MODEL 1
REMARK VINA RESULT:     -10.3      0.000      0.000
REMARK SMILES C=Cc1cc(-c2ccc3cc[nH]c3c2)cc(O)c1F
REMARK SMILES IDX 3 1 4 2 5 3 15 4 16 5 18 6 19 7 2 8 1 9 6 10 7 11 14 12 8 13
REMARK SMILES IDX 13 14 9 15 12 16 10 17 11 18 17 20
REMARK H PARENT 12 19 17 21
ROOT
ATOM      1  C   UNL     1      44.526 131.171  20.290  1.00  0.00     0.014 A 
ATOM      2  C   UNL     1      45.282 131.046  19.107  1.00  0.00     0.020 A 
ATOM      3  C   UNL     1      44.740 131.413  17.862  1.00  0.00    -0.014 A 
ATOM      4  C   UNL     1      43.424 131.900  17.808  1.00  0.00     0.058 A 
ATOM      5  C   UNL     1      42.659 132.014  18.974  1.00  0.00     0.152 A 
ATOM      6  C   UNL     1      43.205 131.645  20.207  1.00  0.00     0.172 A 
ATOM      7  F   UNL     1      42.446 131.769  21.328  1.00  0.00    -0.202 F 
ENDROOT
BRANCH   1   8
ATOM      8  C   UNL     1      45.070 130.778  21.614  1.00  0.00     0.003 C 
ATOM      9  C   UNL     1      44.508 129.864  22.407  1.00  0.00     0.009 C 
ENDBRANCH   1   8
BRANCH   3  10
ATOM     10  C   UNL     1      45.546 131.282  16.622  1.00  0.00    -0.016 A 
ATOM     11  C   UNL     1      45.731 132.397  15.761  1.00  0.00     0.009 A 
ATOM     12  C   UNL     1      46.139 130.040  16.285  1.00  0.00     0.035 A 
ATOM     13  C   UNL     1      46.493 132.284  14.584  1.00  0.00     0.011 A 
ATOM     14  C   UNL     1      46.887 129.964  15.112  1.00  0.00     0.046 A 
ATOM     15  C   UNL     1      47.057 131.045  14.293  1.00  0.00    -0.001 A 
ATOM     16  N   UNL     1      47.528 128.889  14.622  1.00  0.00    -0.361 N 
ATOM     17  C   UNL     1      47.839 130.643  13.233  1.00  0.00     0.028 A 
ATOM     18  C   UNL     1      48.111 129.300  13.473  1.00  0.00     0.083 A 
ATOM     19  H   UNL     1      47.569 127.933  15.039  1.00  0.00     0.166 HD
ENDBRANCH   3  10
BRANCH   5  20
ATOM     20  O   UNL     1      41.352 132.495  18.916  1.00  0.00    -0.505 OA
ATOM     21  H   UNL     1      41.143 133.422  18.564  1.00  0.00     0.293 HD
ENDBRANCH   5  20
TORSDOF 3
ENDMDL
MODEL 2
REMARK VINA RESULT:     -10.1      0.949      1.532
REMARK SMILES C=Cc1cc(-c2ccc3cc[nH]c3c2)cc(O)c1F
REMARK SMILES IDX 3 1 4 2 5 3 15 4 16 5 18 6 19 7 2 8 1 9 6 10 7 11 14 12 8 13
REMARK SMILES IDX 13 14 9 15 12 16 10 17 11 18 17 20
REMARK H PARENT 12 19 17 21
ROOT
ATOM      1  C   UNL     1      44.345 131.501  20.188  1.00  0.00     0.014 A 
ATOM      2  C   UNL     1      45.098 131.076  19.075  1.00  0.00     0.020 A 
ATOM      3  C   UNL     1      44.605 131.233  17.767  1.00  0.00    -0.014 A 
ATOM      4  C   UNL     1      43.340 131.812  17.579  1.00  0.00     0.058 A 
ATOM      5  C   UNL     1      42.576 132.222  18.677  1.00  0.00     0.152 A 
ATOM      6  C   UNL     1      43.073 132.062  19.974  1.00  0.00     0.172 A 
ATOM      7  F   UNL     1      42.317 132.473  21.026  1.00  0.00    -0.202 F 
ENDROOT
BRANCH   1   8
ATOM      8  C   UNL     1      44.837 131.335  21.578  1.00  0.00     0.003 C 
ATOM      9  C   UNL     1      44.444 130.355  22.394  1.00  0.00     0.009 C 
ENDBRANCH   1   8
BRANCH   3  10
ATOM     10  C   UNL     1      45.409 130.785  16.601  1.00  0.00    -0.016 A 
ATOM     11  C   UNL     1      45.593 129.400  16.341  1.00  0.00     0.009 A 
ATOM     12  C   UNL     1      46.000 131.738  15.735  1.00  0.00     0.035 A 
ATOM     13  C   UNL     1      46.351 128.966  15.239  1.00  0.00     0.011 A 
ATOM     14  C   UNL     1      46.744 131.272  14.653  1.00  0.00     0.046 A 
ATOM     15  C   UNL     1      46.913 129.936  14.416  1.00  0.00    -0.001 A 
ATOM     16  N   UNL     1      47.377 132.005  13.722  1.00  0.00    -0.361 N 
ATOM     17  C   UNL     1      47.689 129.811  13.283  1.00  0.00     0.028 A 
ATOM     18  C   UNL     1      47.955 131.117  12.883  1.00  0.00     0.083 A 
ATOM     19  H   UNL     1      47.416 133.046  13.656  1.00  0.00     0.166 HD
ENDBRANCH   3  10
BRANCH   5  20
ATOM     20  O   UNL     1      41.319 132.795  18.488  1.00  0.00    -0.505 OA
ATOM     21  H   UNL     1      40.828 132.717  17.605  1.00  0.00     0.293 HD
ENDBRANCH   5  20
TORSDOF 3
ENDMDL
MODEL 3
REMARK VINA RESULT:     -10.0      1.473      2.299
REMARK SMILES C=Cc1cc(-c2ccc3cc[nH]c3c2)cc(O)c1F
REMARK SMILES IDX 3 1 4 2 5 3 15 4 16 5 18 6 19 7 2 8 1 9 6 10 7 11 14 12 8 13
REMARK SMILES IDX 13 14 9 15 12 16 10 17 11 18 17 20
REMARK H PARENT 12 19 17 21
ROOT
ATOM      1  C   UNL     1      43.075 131.827  19.452  1.00  0.00     0.014 A 
ATOM      2  C   UNL     1      43.736 131.795  18.208  1.00  0.00     0.020 A 
ATOM      3  C   UNL     1      45.004 131.198  18.080  1.00  0.00    -0.014 A 
ATOM      4  C   UNL     1      45.613 130.640  19.215  1.00  0.00     0.058 A 
ATOM      5  C   UNL     1      44.972 130.680  20.458  1.00  0.00     0.152 A 
ATOM      6  C   UNL     1      43.713 131.276  20.577  1.00  0.00     0.172 A 
ATOM      7  F   UNL     1      43.107 131.299  21.793  1.00  0.00    -0.202 F 
ENDROOT
BRANCH   1   8
ATOM      8  C   UNL     1      41.743 132.462  19.617  1.00  0.00     0.003 C 
ATOM      9  C   UNL     1      41.476 133.406  20.521  1.00  0.00     0.009 C 
ENDBRANCH   1   8
BRANCH   3  10
ATOM     10  C   UNL     1      45.691 131.166  16.763  1.00  0.00    -0.016 A 
ATOM     11  C   UNL     1      45.659 132.299  15.906  1.00  0.00     0.009 A 
ATOM     12  C   UNL     1      46.385 130.003  16.350  1.00  0.00     0.035 A 
ATOM     13  C   UNL     1      46.307 132.280  14.658  1.00  0.00     0.011 A 
ATOM     14  C   UNL     1      47.016 130.018  15.107  1.00  0.00     0.046 A 
ATOM     15  C   UNL     1      46.977 131.116  14.293  1.00  0.00    -0.001 A 
ATOM     16  N   UNL     1      47.723 129.027  14.539  1.00  0.00    -0.361 N 
ATOM     17  C   UNL     1      47.690 130.811  13.154  1.00  0.00     0.028 A 
ATOM     18  C   UNL     1      48.137 129.507  13.345  1.00  0.00     0.083 A 
ATOM     19  H   UNL     1      47.915 128.081  14.935  1.00  0.00     0.166 HD
ENDBRANCH   3  10
BRANCH   5  20
ATOM     20  O   UNL     1      45.581 130.127  21.583  1.00  0.00    -0.505 OA
ATOM     21  H   UNL     1      45.977 130.709  22.312  1.00  0.00     0.293 HD
ENDBRANCH   5  20
TORSDOF 3
ENDMDL
MODEL 4
REMARK VINA RESULT:     -10.0      1.065      1.209
REMARK SMILES C=Cc1cc(-c2ccc3cc[nH]c3c2)cc(O)c1F
REMARK SMILES IDX 3 1 4 2 5 3 15 4 16 5 18 6 19 7 2 8 1 9 6 10 7 11 14 12 8 13
REMARK SMILES IDX 13 14 9 15 12 16 10 17 11 18 17 20
REMARK H PARENT 12 19 17 21
ROOT
ATOM      1  C   UNL     1      44.183 131.096  21.062  1.00  0.00     0.014 A 
ATOM      2  C   UNL     1      44.720 130.893  19.775  1.00  0.00     0.020 A 
ATOM      3  C   UNL     1      44.110 131.459  18.641  1.00  0.00    -0.014 A 
ATOM      4  C   UNL     1      42.945 132.226  18.804  1.00  0.00     0.058 A 
ATOM      5  C   UNL     1      42.395 132.421  20.075  1.00  0.00     0.152 A 
ATOM      6  C   UNL     1      43.007 131.855  21.197  1.00  0.00     0.172 A 
ATOM      7  F   UNL     1      42.459 132.061  22.423  1.00  0.00    -0.202 F 
ENDROOT
BRANCH   1   8
ATOM      8  C   UNL     1      44.801 130.499  22.273  1.00  0.00     0.003 C 
ATOM      9  C   UNL     1      44.360 129.386  22.860  1.00  0.00     0.009 C 
ENDBRANCH   1   8
BRANCH   3  10
ATOM     10  C   UNL     1      44.685 131.243  17.289  1.00  0.00    -0.016 A 
ATOM     11  C   UNL     1      44.046 131.780  16.139  1.00  0.00     0.009 A 
ATOM     12  C   UNL     1      45.879 130.497  17.133  1.00  0.00     0.035 A 
ATOM     13  C   UNL     1      44.583 131.582  14.854  1.00  0.00     0.011 A 
ATOM     14  C   UNL     1      46.383 130.320  15.846  1.00  0.00     0.046 A 
ATOM     15  C   UNL     1      45.757 130.843  14.749  1.00  0.00    -0.001 A 
ATOM     16  N   UNL     1      47.494 129.654  15.489  1.00  0.00    -0.361 N 
ATOM     17  C   UNL     1      46.501 130.495  13.642  1.00  0.00     0.028 A 
ATOM     18  C   UNL     1      47.570 129.758  14.143  1.00  0.00     0.083 A 
ATOM     19  H   UNL     1      48.163 129.158  16.118  1.00  0.00     0.166 HD
ENDBRANCH   3  10
BRANCH   5  20
ATOM     20  O   UNL     1      41.237 133.181  20.234  1.00  0.00    -0.505 OA
ATOM     21  H   UNL     1      41.056 133.998  19.662  1.00  0.00     0.293 HD
ENDBRANCH   5  20
TORSDOF 3
ENDMDL
MODEL 5
REMARK VINA RESULT:      -9.9      3.338      6.608
REMARK SMILES C=Cc1cc(-c2ccc3cc[nH]c3c2)cc(O)c1F
REMARK SMILES IDX 3 1 4 2 5 3 15 4 16 5 18 6 19 7 2 8 1 9 6 10 7 11 14 12 8 13
REMARK SMILES IDX 13 14 9 15 12 16 10 17 11 18 17 20
REMARK H PARENT 12 19 17 21
ROOT
ATOM      1  C   UNL     1      46.284 130.801  15.147  1.00  0.00     0.014 A 
ATOM      2  C   UNL     1      46.122 130.819  16.547  1.00  0.00     0.020 A 
ATOM      3  C   UNL     1      44.894 131.186  17.127  1.00  0.00    -0.014 A 
ATOM      4  C   UNL     1      43.826 131.548  16.291  1.00  0.00     0.058 A 
ATOM      5  C   UNL     1      43.980 131.549  14.901  1.00  0.00     0.152 A 
ATOM      6  C   UNL     1      45.204 131.183  14.332  1.00  0.00     0.172 A 
ATOM      7  F   UNL     1      45.330 131.186  12.979  1.00  0.00    -0.202 F 
ENDROOT
BRANCH   1   8
ATOM      8  C   UNL     1      47.573 130.429  14.511  1.00  0.00     0.003 C 
ATOM      9  C   UNL     1      47.810 129.242  13.951  1.00  0.00     0.009 C 
ENDBRANCH   1   8
BRANCH   3  10
ATOM     10  C   UNL     1      44.732 131.198  18.603  1.00  0.00    -0.016 A 
ATOM     11  C   UNL     1      45.762 130.697  19.445  1.00  0.00     0.009 A 
ATOM     12  C   UNL     1      43.548 131.711  19.187  1.00  0.00     0.035 A 
ATOM     13  C   UNL     1      45.620 130.705  20.844  1.00  0.00     0.011 A 
ATOM     14  C   UNL     1      43.441 131.703  20.576  1.00  0.00     0.046 A 
ATOM     15  C   UNL     1      44.439 131.218  21.373  1.00  0.00    -0.001 A 
ATOM     16  N   UNL     1      42.410 132.143  21.317  1.00  0.00    -0.361 N 
ATOM     17  C   UNL     1      44.028 131.353  22.682  1.00  0.00     0.028 A 
ATOM     18  C   UNL     1      42.764 131.931  22.604  1.00  0.00     0.083 A 
ATOM     19  H   UNL     1      41.518 132.563  20.974  1.00  0.00     0.166 HD
ENDBRANCH   3  10
BRANCH   5  20
ATOM     20  O   UNL     1      42.918 131.911  14.073  1.00  0.00    -0.505 OA
ATOM     21  H   UNL     1      42.019 132.184  14.452  1.00  0.00     0.293 HD
ENDBRANCH   5  20
TORSDOF 3
ENDMDL
MODEL 6
REMARK VINA RESULT:      -9.3      3.243      6.514
REMARK SMILES C=Cc1cc(-c2ccc3cc[nH]c3c2)cc(O)c1F
REMARK SMILES IDX 3 1 4 2 5 3 15 4 16 5 18 6 19 7 2 8 1 9 6 10 7 11 14 12 8 13
REMARK SMILES IDX 13 14 9 15 12 16 10 17 11 18 17 20
REMARK H PARENT 12 19 17 21
ROOT
ATOM      1  C   UNL     1      46.022 130.758  15.410  1.00  0.00     0.014 A 
ATOM      2  C   UNL     1      45.629 130.911  16.755  1.00  0.00     0.020 A 
ATOM      3  C   UNL     1      44.341 131.373  17.081  1.00  0.00    -0.014 A 
ATOM      4  C   UNL     1      43.447 131.693  16.046  1.00  0.00     0.058 A 
ATOM      5  C   UNL     1      43.833 131.559  14.708  1.00  0.00     0.152 A 
ATOM      6  C   UNL     1      45.115 131.100  14.391  1.00  0.00     0.172 A 
ATOM      7  F   UNL     1      45.467 130.974  13.085  1.00  0.00    -0.202 F 
ENDROOT
BRANCH   1   8
ATOM      8  C   UNL     1      47.379 130.284  15.039  1.00  0.00     0.003 C 
ATOM      9  C   UNL     1      47.614 129.344  14.122  1.00  0.00     0.009 C 
ENDBRANCH   1   8
BRANCH   3  10
ATOM     10  C   UNL     1      43.934 131.528  18.501  1.00  0.00    -0.016 A 
ATOM     11  C   UNL     1      42.649 132.038  18.831  1.00  0.00     0.009 A 
ATOM     12  C   UNL     1      44.824 131.167  19.541  1.00  0.00     0.035 A 
ATOM     13  C   UNL     1      42.253 132.187  20.172  1.00  0.00     0.011 A 
ATOM     14  C   UNL     1      44.399 131.328  20.858  1.00  0.00     0.046 A 
ATOM     15  C   UNL     1      43.160 131.820  21.161  1.00  0.00    -0.001 A 
ATOM     16  N   UNL     1      45.086 131.044  21.978  1.00  0.00    -0.361 N 
ATOM     17  C   UNL     1      43.052 131.853  22.535  1.00  0.00     0.028 A 
ATOM     18  C   UNL     1      44.266 131.363  23.004  1.00  0.00     0.083 A 
ATOM     19  H   UNL     1      46.053 130.656  22.045  1.00  0.00     0.166 HD
ENDBRANCH   3  10
BRANCH   5  20
ATOM     20  O   UNL     1      42.945 131.880  13.682  1.00  0.00    -0.505 OA
ATOM     21  H   UNL     1      41.950 131.707  13.768  1.00  0.00     0.293 HD
ENDBRANCH   5  20
TORSDOF 3
ENDMDL
MODEL 7
REMARK VINA RESULT:      -8.6      1.042      1.221
REMARK SMILES C=Cc1cc(-c2ccc3cc[nH]c3c2)cc(O)c1F
REMARK SMILES IDX 3 1 4 2 5 3 15 4 16 5 18 6 19 7 2 8 1 9 6 10 7 11 14 12 8 13
REMARK SMILES IDX 13 14 9 15 12 16 10 17 11 18 17 20
REMARK H PARENT 12 19 17 21
ROOT
ATOM      1  C   UNL     1      44.885 130.048  21.030  1.00  0.00     0.014 A 
ATOM      2  C   UNL     1      45.442 130.119  19.737  1.00  0.00     0.020 A 
ATOM      3  C   UNL     1      44.935 131.019  18.781  1.00  0.00    -0.014 A 
ATOM      4  C   UNL     1      43.853 131.845  19.128  1.00  0.00     0.058 A 
ATOM      5  C   UNL     1      43.283 131.771  20.403  1.00  0.00     0.152 A 
ATOM      6  C   UNL     1      43.792 130.874  21.347  1.00  0.00     0.172 A 
ATOM      7  F   UNL     1      43.226 130.822  22.581  1.00  0.00    -0.202 F 
ENDROOT
BRANCH   1   8
ATOM      8  C   UNL     1      45.393 129.098  22.051  1.00  0.00     0.003 C 
ATOM      9  C   UNL     1      44.607 128.395  22.868  1.00  0.00     0.009 C 
ENDBRANCH   1   8
BRANCH   3  10
ATOM     10  C   UNL     1      45.531 131.090  17.423  1.00  0.00    -0.016 A 
ATOM     11  C   UNL     1      45.477 132.297  16.674  1.00  0.00     0.009 A 
ATOM     12  C   UNL     1      46.160 129.952  16.860  1.00  0.00     0.035 A 
ATOM     13  C   UNL     1      46.039 132.374  15.388  1.00  0.00     0.011 A 
ATOM     14  C   UNL     1      46.706 130.065  15.583  1.00  0.00     0.046 A 
ATOM     15  C   UNL     1      46.647 131.233  14.875  1.00  0.00    -0.001 A 
ATOM     16  N   UNL     1      47.342 129.113  14.881  1.00  0.00    -0.361 N 
ATOM     17  C   UNL     1      47.272 131.015  13.666  1.00  0.00     0.028 A 
ATOM     18  C   UNL     1      47.690 129.689  13.709  1.00  0.00     0.083 A 
ATOM     19  H   UNL     1      47.531 128.129  15.177  1.00  0.00     0.166 HD
ENDBRANCH   3  10
BRANCH   5  20
ATOM     20  O   UNL     1      42.208 132.591  20.744  1.00  0.00    -0.505 OA
ATOM     21  H   UNL     1      41.679 133.092  20.039  1.00  0.00     0.293 HD
ENDBRANCH   5  20
TORSDOF 3
ENDMDL
MODEL 8
REMARK VINA RESULT:      -8.5      3.637      6.921
REMARK SMILES C=Cc1cc(-c2ccc3cc[nH]c3c2)cc(O)c1F
REMARK SMILES IDX 3 1 4 2 5 3 15 4 16 5 18 6 19 7 2 8 1 9 6 10 7 11 14 12 8 13
REMARK SMILES IDX 13 14 9 15 12 16 10 17 11 18 17 20
REMARK H PARENT 12 19 17 21
ROOT
ATOM      1  C   UNL     1      44.669 131.338  15.329  1.00  0.00     0.014 A 
ATOM      2  C   UNL     1      44.122 131.583  16.605  1.00  0.00     0.020 A 
ATOM      3  C   UNL     1      44.758 131.108  17.766  1.00  0.00    -0.014 A 
ATOM      4  C   UNL     1      45.947 130.372  17.641  1.00  0.00     0.058 A 
ATOM      5  C   UNL     1      46.491 130.110  16.379  1.00  0.00     0.152 A 
ATOM      6  C   UNL     1      45.852 130.585  15.229  1.00  0.00     0.172 A 
ATOM      7  F   UNL     1      46.400 130.322  14.014  1.00  0.00    -0.202 F 
ENDROOT
BRANCH   1   8
ATOM      8  C   UNL     1      44.011 131.817  14.088  1.00  0.00     0.003 C 
ATOM      9  C   UNL     1      42.779 131.466  13.717  1.00  0.00     0.009 C 
ENDBRANCH   1   8
BRANCH   3  10
ATOM     10  C   UNL     1      44.175 131.375  19.106  1.00  0.00    -0.016 A 
ATOM     11  C   UNL     1      42.919 132.028  19.228  1.00  0.00     0.009 A 
ATOM     12  C   UNL     1      44.868 130.980  20.276  1.00  0.00     0.035 A 
ATOM     13  C   UNL     1      42.357 132.285  20.492  1.00  0.00     0.011 A 
ATOM     14  C   UNL     1      44.282 131.250  21.511  1.00  0.00     0.046 A 
ATOM     15  C   UNL     1      43.073 131.879  21.614  1.00  0.00    -0.001 A 
ATOM     16  N   UNL     1      44.771 130.956  22.728  1.00  0.00    -0.361 N 
ATOM     17  C   UNL     1      42.777 131.992  22.955  1.00  0.00     0.028 A 
ATOM     18  C   UNL     1      43.855 131.408  23.613  1.00  0.00     0.083 A 
ATOM     19  H   UNL     1      45.672 130.476  22.948  1.00  0.00     0.166 HD
ENDBRANCH   3  10
BRANCH   5  20
ATOM     20  O   UNL     1      47.670 129.377  16.257  1.00  0.00    -0.505 OA
ATOM     21  H   UNL     1      48.352 129.340  17.007  1.00  0.00     0.293 HD
ENDBRANCH   5  20
TORSDOF 3
ENDMDL
MODEL 9
REMARK VINA RESULT:      -8.3      1.601      2.428
REMARK SMILES C=Cc1cc(-c2ccc3cc[nH]c3c2)cc(O)c1F
REMARK SMILES IDX 3 1 4 2 5 3 15 4 16 5 18 6 19 7 2 8 1 9 6 10 7 11 14 12 8 13
REMARK SMILES IDX 13 14 9 15 12 16 10 17 11 18 17 20
REMARK H PARENT 12 19 17 21
ROOT
ATOM      1  C   UNL     1      43.669 131.322  21.987  1.00  0.00     0.014 A 
ATOM      2  C   UNL     1      44.341 131.006  20.788  1.00  0.00     0.020 A 
ATOM      3  C   UNL     1      43.899 131.522  19.556  1.00  0.00    -0.014 A 
ATOM      4  C   UNL     1      42.767 132.352  19.530  1.00  0.00     0.058 A 
ATOM      5  C   UNL     1      42.083 132.659  20.711  1.00  0.00     0.152 A 
ATOM      6  C   UNL     1      42.528 132.142  21.932  1.00  0.00     0.172 A 
ATOM      7  F   UNL     1      41.851 132.457  23.067  1.00  0.00    -0.202 F 
ENDROOT
BRANCH   1   8
ATOM      8  C   UNL     1      44.107 130.780  23.298  1.00  0.00     0.003 C 
ATOM      9  C   UNL     1      43.740 129.587  23.769  1.00  0.00     0.009 C 
ENDBRANCH   1   8
BRANCH   3  10
ATOM     10  C   UNL     1      44.617 131.187  18.300  1.00  0.00    -0.016 A 
ATOM     11  C   UNL     1      45.732 130.306  18.320  1.00  0.00     0.009 A 
ATOM     12  C   UNL     1      44.194 131.743  17.068  1.00  0.00     0.035 A 
ATOM     13  C   UNL     1      46.418 129.982  17.136  1.00  0.00     0.011 A 
ATOM     14  C   UNL     1      44.897 131.400  15.914  1.00  0.00     0.046 A 
ATOM     15  C   UNL     1      45.968 130.551  15.948  1.00  0.00    -0.001 A 
ATOM     16  N   UNL     1      44.655 131.813  14.659  1.00  0.00    -0.361 N 
ATOM     17  C   UNL     1      46.432 130.418  14.657  1.00  0.00     0.028 A 
ATOM     18  C   UNL     1      45.591 131.216  13.887  1.00  0.00     0.083 A 
ATOM     19  H   UNL     1      43.902 132.461  14.340  1.00  0.00     0.166 HD
ENDBRANCH   3  10
BRANCH   5  20
ATOM     20  O   UNL     1      40.958 133.481  20.682  1.00  0.00    -0.505 OA
ATOM     21  H   UNL     1      40.960 134.365  20.186  1.00  0.00     0.293 HD
ENDBRANCH   5  20
TORSDOF 3
ENDMDL


