REMARK SMILES C[C@H]1NN(/C(O)=C/c2ccn[nH+]c2)[C@@H](c2cc3ccc(F)cc3[nH]2)O1
REMARK SMILES IDX 5 1 6 2 7 4 8 5 9 6 13 7 10 8 12 9 11 10 4 12 3 13 14 14
REMARK SMILES IDX 2 15 25 16 1 18 15 19 16 20 24 21 17 22 23 23 18 24 22 25
REMARK SMILES IDX 19 26 20 27 21 29
REMARK H PARENT 6 3 12 11 3 17 24 28
ROOT
ATOM      1  C   UNL     1       1.241   1.040   1.550  1.00  0.00     0.205 C 
ENDROOT
BRANCH   1   2
ATOM      2  O   UNL     1       0.536   2.231   1.735  1.00  0.00    -0.494 OA
ATOM      3  H   UNL     1      -0.417   2.251   2.073  1.00  0.00     0.295 HD
ENDBRANCH   1   2
BRANCH   1   4
ATOM      4  C   UNL     1       2.515   1.078   1.125  1.00  0.00     0.082 C 
BRANCH   4   5
ATOM      5  C   UNL     1       3.269   2.327   0.873  1.00  0.00     0.048 A 
ATOM      6  C   UNL     1       3.175   3.443   1.717  1.00  0.00     0.041 A 
ATOM      7  C   UNL     1       4.164   2.382  -0.203  1.00  0.00     0.343 A 
ATOM      8  C   UNL     1       3.936   4.577   1.439  1.00  0.00     0.185 A 
ATOM      9  N   UNL     1       4.883   3.514  -0.429  1.00  0.00    -0.106 N 
ATOM     10  N   UNL     1       4.770   4.579   0.367  1.00  0.00    -0.011 NA
ATOM     11  H   UNL     1       5.539   3.552  -1.240  1.00  0.00     0.490 HD
ENDBRANCH   4   5
ENDBRANCH   1   4
BRANCH   1  12
ATOM     12  N   UNL     1       0.589  -0.229   1.778  1.00  0.00    -0.242 N 
ATOM     13  N   UNL     1       1.282  -1.431   1.877  1.00  0.00    -0.201 NA
ATOM     14  C   UNL     1      -0.832  -0.412   1.939  1.00  0.00     0.283 C 
ATOM     15  C   UNL     1       0.227  -2.409   2.153  1.00  0.00     0.204 C 
ATOM     16  O   UNL     1      -1.046  -1.786   2.134  1.00  0.00    -0.332 OA
ATOM     17  H   UNL     1       1.901  -1.363   2.719  1.00  0.00     0.151 HD
ATOM     18  C   UNL     1       0.268  -3.514   1.104  1.00  0.00     0.058 C 
BRANCH  14  19
ATOM     19  C   UNL     1      -1.578   0.040   0.716  1.00  0.00     0.068 A 
ATOM     20  C   UNL     1      -1.225  -0.255  -0.601  1.00  0.00     0.036 A 
ATOM     21  N   UNL     1      -2.724   0.758   0.762  1.00  0.00    -0.355 N 
ATOM     22  C   UNL     1      -2.206   0.331  -1.369  1.00  0.00     0.000 A 
ATOM     23  C   UNL     1      -3.094   0.933  -0.517  1.00  0.00     0.049 A 
ATOM     24  C   UNL     1      -2.372   0.368  -2.752  1.00  0.00     0.013 A 
ATOM     25  C   UNL     1      -4.214   1.616  -0.989  1.00  0.00     0.065 A 
ATOM     26  C   UNL     1      -3.493   1.052  -3.259  1.00  0.00     0.040 A 
ATOM     27  C   UNL     1      -4.410   1.673  -2.382  1.00  0.00     0.125 A 
ATOM     28  H   UNL     1      -3.219   1.104   1.615  1.00  0.00     0.166 HD
ATOM     29  F   UNL     1      -5.486   2.328  -2.884  1.00  0.00    -0.207 F 
ENDBRANCH  14  19
ENDBRANCH   1  12
TORSDOF 5


