MODEL 1
REMARK VINA RESULT:      -6.1      0.000      0.000
REMARK SMILES Nc1cc(F)c[nH]/c1=N\c1ccc2[nH+]c(Nc3cc4cccc(F)c4[n-]3)cn2c1
REMARK SMILES IDX 10 1 11 2 12 3 13 4 28 5 29 6 27 7 15 8 14 9 9 11 8 12 3 13
REMARK SMILES IDX 4 14 2 15 6 16 7 17 5 18 1 20 16 23 17 25 26 26 18 27 25 28
REMARK SMILES IDX 19 29 23 30 20 31 22 32 21 33 24 34
REMARK H PARENT 14 10 7 19 1 21 1 22 16 24
ROOT
ATOM      1  C   UNL     1      44.714 130.531  17.427  1.00  0.00     0.097 A 
ATOM      2  C   UNL     1      43.530 131.212  17.777  1.00  0.00     0.038 A 
ATOM      3  C   UNL     1      43.458 131.959  18.965  1.00  0.00     0.083 A 
ATOM      4  C   UNL     1      44.599 132.014  19.762  1.00  0.00     0.230 A 
ATOM      5  N   UNL     1      45.729 131.384  19.397  1.00  0.00    -0.231 N 
ATOM      6  C   UNL     1      45.847 130.657  18.258  1.00  0.00     0.196 A 
ATOM      7  C   UNL     1      46.644 131.656  20.343  1.00  0.00     0.248 A 
ATOM      8  C   UNL     1      46.015 132.458  21.289  1.00  0.00     0.256 A 
ATOM      9  N   UNL     1      44.737 132.694  20.916  1.00  0.00    -0.243 N 
ATOM     10  H   UNL     1      44.025 133.282  21.403  1.00  0.00     0.267 HD
ENDROOT
BRANCH   1  11
ATOM     11  N   UNL     1      44.781 129.832  16.176  1.00  0.00    -0.226 NA
BRANCH  11  12
ATOM     12  C   UNL     1      45.672 129.976  15.232  1.00  0.00     0.154 A 
ATOM     13  C   UNL     1      46.501 131.209  13.317  1.00  0.00     0.070 A 
ATOM     14  C   UNL     1      47.549 130.299  13.199  1.00  0.00     0.141 A 
ATOM     15  C   UNL     1      45.548 131.054  14.330  1.00  0.00     0.078 A 
ATOM     16  C   UNL     1      47.632 129.232  14.091  1.00  0.00     0.123 A 
ATOM     17  N   UNL     1      46.703 129.085  15.074  1.00  0.00    -0.342 N 
ATOM     18  F   UNL     1      48.474 130.444  12.218  1.00  0.00    -0.205 F 
ATOM     19  H   UNL     1      46.788 128.240  15.681  1.00  0.00     0.168 HD
BRANCH  15  20
ATOM     20  N   UNL     1      44.473 131.998  14.437  1.00  0.00    -0.396 N 
ATOM     21  H   UNL     1      43.589 131.886  13.894  1.00  0.00     0.156 HD
ATOM     22  H   UNL     1      44.554 132.826  15.069  1.00  0.00     0.156 HD
ENDBRANCH  15  20
ENDBRANCH  11  12
ENDBRANCH   1  11
BRANCH   8  23
ATOM     23  N   UNL     1      46.622 133.061  22.439  1.00  0.00    -0.274 N 
ATOM     24  H   UNL     1      46.200 132.864  23.374  1.00  0.00     0.263 HD
BRANCH  23  25
ATOM     25  C   UNL     1      47.767 133.924  22.390  1.00  0.00     0.087 A 
ATOM     26  N   UNL     1      47.859 134.950  21.509  1.00  0.00    -0.402 NA
ATOM     27  C   UNL     1      48.849 133.882  23.267  1.00  0.00     0.047 A 
ATOM     28  C   UNL     1      49.026 135.544  21.818  1.00  0.00     0.005 A 
ATOM     29  C   UNL     1      49.647 134.928  22.874  1.00  0.00    -0.016 A 
ATOM     30  C   UNL     1      49.584 136.662  21.199  1.00  0.00     0.127 A 
ATOM     31  C   UNL     1      50.861 135.382  23.385  1.00  0.00     0.008 A 
ATOM     32  C   UNL     1      50.814 137.144  21.687  1.00  0.00     0.039 A 
ATOM     33  C   UNL     1      51.449 136.507  22.776  1.00  0.00     0.004 A 
ATOM     34  F   UNL     1      48.963 137.269  20.158  1.00  0.00    -0.207 F 
ENDBRANCH  23  25
ENDBRANCH   8  23
TORSDOF 5
ENDMDL
MODEL 2
REMARK VINA RESULT:      -5.8      4.750      8.818
REMARK SMILES Nc1cc(F)c[nH]/c1=N\c1ccc2[nH+]c(Nc3cc4cccc(F)c4[n-]3)cn2c1
REMARK SMILES IDX 10 1 11 2 12 3 13 4 28 5 29 6 27 7 15 8 14 9 9 11 8 12 3 13
REMARK SMILES IDX 4 14 2 15 6 16 7 17 5 18 1 20 16 23 17 25 26 26 18 27 25 28
REMARK SMILES IDX 19 29 23 30 20 31 22 32 21 33 24 34
REMARK H PARENT 14 10 7 19 1 21 1 22 16 24
ROOT
ATOM      1  C   UNL     1      43.210 130.710  22.653  1.00  0.00     0.097 A 
ATOM      2  C   UNL     1      42.117 131.577  22.444  1.00  0.00     0.038 A 
ATOM      3  C   UNL     1      42.030 132.351  21.275  1.00  0.00     0.083 A 
ATOM      4  C   UNL     1      43.046 132.212  20.333  1.00  0.00     0.230 A 
ATOM      5  N   UNL     1      44.065 131.358  20.534  1.00  0.00    -0.231 N 
ATOM      6  C   UNL     1      44.187 130.587  21.643  1.00  0.00     0.196 A 
ATOM      7  C   UNL     1      44.846 131.427  19.443  1.00  0.00     0.248 A 
ATOM      8  C   UNL     1      44.265 132.362  18.594  1.00  0.00     0.256 A 
ATOM      9  N   UNL     1      43.128 132.843  19.146  1.00  0.00    -0.243 N 
ATOM     10  H   UNL     1      42.460 133.532  18.738  1.00  0.00     0.267 HD
ENDROOT
BRANCH   1  11
ATOM     11  N   UNL     1      43.238 129.883  23.824  1.00  0.00    -0.226 NA
BRANCH  11  12
ATOM     12  C   UNL     1      42.597 128.762  24.020  1.00  0.00     0.154 A 
ATOM     13  C   UNL     1      42.628 126.346  24.211  1.00  0.00     0.070 A 
ATOM     14  C   UNL     1      41.251 126.356  24.420  1.00  0.00     0.141 A 
ATOM     15  C   UNL     1      43.315 127.547  24.002  1.00  0.00     0.078 A 
ATOM     16  C   UNL     1      40.566 127.569  24.409  1.00  0.00     0.123 A 
ATOM     17  N   UNL     1      41.237 128.735  24.206  1.00  0.00    -0.342 N 
ATOM     18  F   UNL     1      40.581 125.194  24.620  1.00  0.00    -0.205 F 
ATOM     19  H   UNL     1      40.665 129.606  24.159  1.00  0.00     0.168 HD
BRANCH  15  20
ATOM     20  N   UNL     1      44.733 127.521  23.786  1.00  0.00    -0.396 N 
ATOM     21  H   UNL     1      45.400 127.927  24.478  1.00  0.00     0.156 HD
ATOM     22  H   UNL     1      45.131 127.090  22.922  1.00  0.00     0.156 HD
ENDBRANCH  15  20
ENDBRANCH  11  12
ENDBRANCH   1  11
BRANCH   8  23
ATOM     23  N   UNL     1      44.706 132.709  17.274  1.00  0.00    -0.274 N 
ATOM     24  H   UNL     1      44.488 133.668  16.923  1.00  0.00     0.263 HD
BRANCH  23  25
ATOM     25  C   UNL     1      45.417 131.821  16.400  1.00  0.00     0.087 A 
ATOM     26  N   UNL     1      46.189 132.274  15.382  1.00  0.00    -0.402 NA
ATOM     27  C   UNL     1      45.483 130.435  16.535  1.00  0.00     0.047 A 
ATOM     28  C   UNL     1      46.725 131.159  14.854  1.00  0.00     0.005 A 
ATOM     29  C   UNL     1      46.322 130.033  15.526  1.00  0.00    -0.016 A 
ATOM     30  C   UNL     1      47.602 131.084  13.773  1.00  0.00     0.127 A 
ATOM     31  C   UNL     1      46.767 128.762  15.170  1.00  0.00     0.008 A 
ATOM     32  C   UNL     1      48.066 129.814  13.383  1.00  0.00     0.039 A 
ATOM     33  C   UNL     1      47.650 128.658  14.080  1.00  0.00     0.004 A 
ATOM     34  F   UNL     1      47.999 132.202  13.116  1.00  0.00    -0.207 F 
ENDBRANCH  23  25
ENDBRANCH   8  23
TORSDOF 5
ENDMDL
MODEL 3
REMARK VINA RESULT:      -5.7      4.988      8.356
REMARK SMILES Nc1cc(F)c[nH]/c1=N\c1ccc2[nH+]c(Nc3cc4cccc(F)c4[n-]3)cn2c1
REMARK SMILES IDX 10 1 11 2 12 3 13 4 28 5 29 6 27 7 15 8 14 9 9 11 8 12 3 13
REMARK SMILES IDX 4 14 2 15 6 16 7 17 5 18 1 20 16 23 17 25 26 26 18 27 25 28
REMARK SMILES IDX 19 29 23 30 20 31 22 32 21 33 24 34
REMARK H PARENT 14 10 7 19 1 21 1 22 16 24
ROOT
ATOM      1  C   UNL     1      45.011 128.235  23.179  1.00  0.00     0.097 A 
ATOM      2  C   UNL     1      44.255 129.201  23.875  1.00  0.00     0.038 A 
ATOM      3  C   UNL     1      43.899 130.412  23.259  1.00  0.00     0.083 A 
ATOM      4  C   UNL     1      44.302 130.607  21.939  1.00  0.00     0.230 A 
ATOM      5  N   UNL     1      44.996 129.662  21.281  1.00  0.00    -0.231 N 
ATOM      6  C   UNL     1      45.357 128.477  21.833  1.00  0.00     0.196 A 
ATOM      7  C   UNL     1      45.198 130.129  20.037  1.00  0.00     0.248 A 
ATOM      8  C   UNL     1      44.613 131.390  19.985  1.00  0.00     0.256 A 
ATOM      9  N   UNL     1      44.038 131.682  21.173  1.00  0.00    -0.243 N 
ATOM     10  H   UNL     1      43.500 132.538  21.431  1.00  0.00     0.267 HD
ENDROOT
BRANCH   1  11
ATOM     11  N   UNL     1      45.302 126.980  23.811  1.00  0.00    -0.226 NA
BRANCH  11  12
ATOM     12  C   UNL     1      45.744 125.890  23.243  1.00  0.00     0.154 A 
ATOM     13  C   UNL     1      45.288 123.774  22.152  1.00  0.00     0.070 A 
ATOM     14  C   UNL     1      46.657 123.547  22.043  1.00  0.00     0.141 A 
ATOM     15  C   UNL     1      44.815 124.944  22.758  1.00  0.00     0.078 A 
ATOM     16  C   UNL     1      47.549 124.489  22.552  1.00  0.00     0.123 A 
ATOM     17  N   UNL     1      47.086 125.625  23.142  1.00  0.00    -0.342 N 
ATOM     18  F   UNL     1      47.120 122.414  21.459  1.00  0.00    -0.205 F 
ATOM     19  H   UNL     1      47.800 126.269  23.548  1.00  0.00     0.168 HD
BRANCH  15  20
ATOM     20  N   UNL     1      43.402 125.162  22.864  1.00  0.00    -0.396 N 
ATOM     21  H   UNL     1      42.733 124.372  22.996  1.00  0.00     0.156 HD
ATOM     22  H   UNL     1      43.009 126.129  22.812  1.00  0.00     0.156 HD
ENDBRANCH  15  20
ENDBRANCH  11  12
ENDBRANCH   1  11
BRANCH   8  23
ATOM     23  N   UNL     1      44.509 132.236  18.831  1.00  0.00    -0.274 N 
ATOM     24  H   UNL     1      44.151 133.208  18.970  1.00  0.00     0.263 HD
BRANCH  23  25
ATOM     25  C   UNL     1      44.855 131.833  17.499  1.00  0.00     0.087 A 
ATOM     26  N   UNL     1      43.989 131.946  16.463  1.00  0.00    -0.402 NA
ATOM     27  C   UNL     1      46.109 131.379  17.093  1.00  0.00     0.047 A 
ATOM     28  C   UNL     1      44.698 131.533  15.396  1.00  0.00     0.005 A 
ATOM     29  C   UNL     1      45.979 131.186  15.740  1.00  0.00    -0.016 A 
ATOM     30  C   UNL     1      44.255 131.460  14.076  1.00  0.00     0.127 A 
ATOM     31  C   UNL     1      46.904 130.747  14.795  1.00  0.00     0.008 A 
ATOM     32  C   UNL     1      45.163 131.015  13.097  1.00  0.00     0.039 A 
ATOM     33  C   UNL     1      46.483 130.661  13.455  1.00  0.00     0.004 A 
ATOM     34  F   UNL     1      42.988 131.808  13.743  1.00  0.00    -0.207 F 
ENDBRANCH  23  25
ENDBRANCH   8  23
TORSDOF 5
ENDMDL
MODEL 4
REMARK VINA RESULT:      -5.5      1.221      1.557
REMARK SMILES Nc1cc(F)c[nH]/c1=N\c1ccc2[nH+]c(Nc3cc4cccc(F)c4[n-]3)cn2c1
REMARK SMILES IDX 10 1 11 2 12 3 13 4 28 5 29 6 27 7 15 8 14 9 9 11 8 12 3 13
REMARK SMILES IDX 4 14 2 15 6 16 7 17 5 18 1 20 16 23 17 25 26 26 18 27 25 28
REMARK SMILES IDX 19 29 23 30 20 31 22 32 21 33 24 34
REMARK H PARENT 14 10 7 19 1 21 1 22 16 24
ROOT
ATOM      1  C   UNL     1      44.382 130.887  17.533  1.00  0.00     0.097 A 
ATOM      2  C   UNL     1      43.215 131.461  18.080  1.00  0.00     0.038 A 
ATOM      3  C   UNL     1      43.243 132.073  19.344  1.00  0.00     0.083 A 
ATOM      4  C   UNL     1      44.463 132.107  20.017  1.00  0.00     0.230 A 
ATOM      5  N   UNL     1      45.571 131.582  19.467  1.00  0.00    -0.231 N 
ATOM      6  C   UNL     1      45.594 130.987  18.248  1.00  0.00     0.196 A 
ATOM      7  C   UNL     1      46.573 131.804  20.335  1.00  0.00     0.248 A 
ATOM      8  C   UNL     1      46.018 132.464  21.425  1.00  0.00     0.256 A 
ATOM      9  N   UNL     1      44.697 132.668  21.218  1.00  0.00    -0.243 N 
ATOM     10  H   UNL     1      44.020 133.160  21.840  1.00  0.00     0.267 HD
ENDROOT
BRANCH   1  11
ATOM     11  N   UNL     1      44.339 130.329  16.212  1.00  0.00    -0.226 NA
BRANCH  11  12
ATOM     12  C   UNL     1      45.340 130.156  15.390  1.00  0.00     0.154 A 
ATOM     13  C   UNL     1      46.617 130.906  13.471  1.00  0.00     0.070 A 
ATOM     14  C   UNL     1      47.457 129.805  13.613  1.00  0.00     0.141 A 
ATOM     15  C   UNL     1      45.546 131.091  14.353  1.00  0.00     0.078 A 
ATOM     16  C   UNL     1      47.214 128.886  14.632  1.00  0.00     0.123 A 
ATOM     17  N   UNL     1      46.172 129.069  15.488  1.00  0.00    -0.342 N 
ATOM     18  F   UNL     1      48.494 129.620  12.760  1.00  0.00    -0.205 F 
ATOM     19  H   UNL     1      46.009 128.323  16.200  1.00  0.00     0.168 HD
BRANCH  15  20
ATOM     20  N   UNL     1      44.688 132.230  14.194  1.00  0.00    -0.396 N 
ATOM     21  H   UNL     1      44.902 132.985  13.506  1.00  0.00     0.156 HD
ATOM     22  H   UNL     1      43.821 132.327  14.769  1.00  0.00     0.156 HD
ENDBRANCH  15  20
ENDBRANCH  11  12
ENDBRANCH   1  11
BRANCH   8  23
ATOM     23  N   UNL     1      46.723 132.976  22.565  1.00  0.00    -0.274 N 
ATOM     24  H   UNL     1      46.446 132.623  23.508  1.00  0.00     0.263 HD
BRANCH  23  25
ATOM     25  C   UNL     1      47.777 133.946  22.495  1.00  0.00     0.087 A 
ATOM     26  N   UNL     1      48.857 133.899  23.312  1.00  0.00    -0.402 NA
ATOM     27  C   UNL     1      47.871 134.969  21.553  1.00  0.00     0.047 A 
ATOM     28  C   UNL     1      49.628 134.920  22.896  1.00  0.00     0.005 A 
ATOM     29  C   UNL     1      49.065 135.585  21.837  1.00  0.00    -0.016 A 
ATOM     30  C   UNL     1      50.864 135.300  23.418  1.00  0.00     0.127 A 
ATOM     31  C   UNL     1      49.694 136.667  21.225  1.00  0.00     0.008 A 
ATOM     32  C   UNL     1      51.524 136.394  22.827  1.00  0.00     0.039 A 
ATOM     33  C   UNL     1      50.941 137.074  21.734  1.00  0.00     0.004 A 
ATOM     34  F   UNL     1      51.416 134.637  24.463  1.00  0.00    -0.207 F 
ENDBRANCH  23  25
ENDBRANCH   8  23
TORSDOF 5
ENDMDL
MODEL 5
REMARK VINA RESULT:      -4.1      7.238      9.102
REMARK SMILES Nc1cc(F)c[nH]/c1=N\c1ccc2[nH+]c(Nc3cc4cccc(F)c4[n-]3)cn2c1
REMARK SMILES IDX 10 1 11 2 12 3 13 4 28 5 29 6 27 7 15 8 14 9 9 11 8 12 3 13
REMARK SMILES IDX 4 14 2 15 6 16 7 17 5 18 1 20 16 23 17 25 26 26 18 27 25 28
REMARK SMILES IDX 19 29 23 30 20 31 22 32 21 33 24 34
REMARK H PARENT 14 10 7 19 1 21 1 22 16 24
ROOT
ATOM      1  C   UNL     1      46.554 123.851  23.387  1.00  0.00     0.097 A 
ATOM      2  C   UNL     1      45.480 123.708  24.290  1.00  0.00     0.038 A 
ATOM      3  C   UNL     1      44.672 124.809  24.620  1.00  0.00     0.083 A 
ATOM      4  C   UNL     1      44.961 126.027  24.009  1.00  0.00     0.230 A 
ATOM      5  N   UNL     1      45.970 126.138  23.128  1.00  0.00    -0.231 N 
ATOM      6  C   UNL     1      46.772 125.103  22.774  1.00  0.00     0.196 A 
ATOM      7  C   UNL     1      45.966 127.410  22.696  1.00  0.00     0.248 A 
ATOM      8  C   UNL     1      44.930 128.055  23.363  1.00  0.00     0.256 A 
ATOM      9  N   UNL     1      44.291 127.183  24.175  1.00  0.00    -0.243 N 
ATOM     10  H   UNL     1      43.459 127.363  24.778  1.00  0.00     0.267 HD
ENDROOT
BRANCH   1  11
ATOM     11  N   UNL     1      47.321 122.696  23.017  1.00  0.00    -0.226 NA
BRANCH  11  12
ATOM     12  C   UNL     1      48.610 122.630  22.816  1.00  0.00     0.154 A 
ATOM     13  C   UNL     1      50.479 122.530  21.276  1.00  0.00     0.070 A 
ATOM     14  C   UNL     1      51.353 122.472  22.359  1.00  0.00     0.141 A 
ATOM     15  C   UNL     1      49.098 122.602  21.492  1.00  0.00     0.078 A 
ATOM     16  C   UNL     1      50.840 122.477  23.654  1.00  0.00     0.123 A 
ATOM     17  N   UNL     1      49.497 122.547  23.860  1.00  0.00    -0.342 N 
ATOM     18  F   UNL     1      52.692 122.399  22.154  1.00  0.00    -0.205 F 
ATOM     19  H   UNL     1      49.168 122.497  24.849  1.00  0.00     0.168 HD
BRANCH  15  20
ATOM     20  N   UNL     1      48.210 122.660  20.367  1.00  0.00    -0.396 N 
ATOM     21  H   UNL     1      47.427 123.348  20.322  1.00  0.00     0.156 HD
ATOM     22  H   UNL     1      48.330 122.006  19.561  1.00  0.00     0.156 HD
ENDBRANCH  15  20
ENDBRANCH  11  12
ENDBRANCH   1  11
BRANCH   8  23
ATOM     23  N   UNL     1      44.495 129.407  23.163  1.00  0.00    -0.274 N 
ATOM     24  H   UNL     1      44.277 129.980  24.009  1.00  0.00     0.263 HD
BRANCH  23  25
ATOM     25  C   UNL     1      44.333 130.022  21.877  1.00  0.00     0.087 A 
ATOM     26  N   UNL     1      43.301 130.856  21.601  1.00  0.00    -0.402 NA
ATOM     27  C   UNL     1      45.229 129.922  20.815  1.00  0.00     0.047 A 
ATOM     28  C   UNL     1      43.536 131.265  20.341  1.00  0.00     0.005 A 
ATOM     29  C   UNL     1      44.690 130.723  19.838  1.00  0.00    -0.016 A 
ATOM     30  C   UNL     1      42.758 132.143  19.588  1.00  0.00     0.127 A 
ATOM     31  C   UNL     1      45.148 131.020  18.556  1.00  0.00     0.008 A 
ATOM     32  C   UNL     1      43.188 132.460  18.286  1.00  0.00     0.039 A 
ATOM     33  C   UNL     1      44.380 131.901  17.773  1.00  0.00     0.004 A 
ATOM     34  F   UNL     1      41.619 132.678  20.094  1.00  0.00    -0.207 F 
ENDBRANCH  23  25
ENDBRANCH   8  23
TORSDOF 5
ENDMDL


