REMARK SMILES Cc1c(Br)cccc1N/C(S)=[N+]1/CCC[C@H](c2ccc3cc(F)ccc3n2)[C@@H]1F
REMARK SMILES IDX 12 1 13 2 14 3 15 4 16 5 28 6 29 7 10 8 9 9 11 11 8 13 7 14
REMARK SMILES IDX 2 15 6 16 3 17 5 18 1 19 4 20 17 21 27 22 18 23 26 24 19 25
REMARK SMILES IDX 25 26 20 27 24 28 21 29 22 30 23 31
REMARK H PARENT 9 10 11 12
ROOT
ATOM      1  N   UNL     1       0.552  -1.710  -0.865  1.00  0.00    -0.224 N 
ATOM      2  C   UNL     1       0.197  -3.131  -0.672  1.00  0.00     0.240 C 
ATOM      3  C   UNL     1      -0.320  -3.347   0.753  1.00  0.00     0.047 C 
ATOM      4  C   UNL     1      -1.494  -2.405   1.050  1.00  0.00     0.021 C 
ATOM      5  C   UNL     1      -1.097  -0.937   0.796  1.00  0.00     0.116 C 
ATOM      6  C   UNL     1      -0.555  -0.755  -0.636  1.00  0.00     0.363 C 
ATOM      7  F   UNL     1      -1.556  -0.981  -1.568  1.00  0.00    -0.196 F 
ENDROOT
BRANCH   1   8
ATOM      8  C   UNL     1       1.780  -1.305  -1.127  1.00  0.00     0.310 C 
ATOM      9  N   UNL     1       2.064   0.079  -1.380  1.00  0.00    -0.235 N 
ATOM     10  H   UNL     1       1.526   0.562  -2.134  1.00  0.00     0.313 HD
BRANCH   8  11
ATOM     11  S   UNL     1       3.173  -2.449  -1.231  1.00  0.00    -0.056 SA
ATOM     12  H   UNL     1       3.423  -2.373   0.151  1.00  0.00     0.116 HD
ENDBRANCH   8  11
BRANCH   9  13
ATOM     13  C   UNL     1       3.084   0.798  -0.665  1.00  0.00     0.129 A 
ATOM     14  C   UNL     1       3.276   0.546   0.705  1.00  0.00     0.052 A 
ATOM     15  C   UNL     1       3.857   1.798  -1.307  1.00  0.00     0.010 A 
ATOM     16  C   UNL     1       4.210   1.277   1.436  1.00  0.00     0.006 A 
ATOM     17  C   UNL     1       4.777   2.556  -0.542  1.00  0.00     0.025 A 
ATOM     18  C   UNL     1       4.951   2.280   0.818  1.00  0.00     0.016 A 
ATOM     19  C   UNL     1       3.673   2.074  -2.780  1.00  0.00     0.050 C 
ATOM     20  Br  UNL     1       5.808   3.994  -1.288  1.00  0.00    -0.050 Br
ENDBRANCH   9  13
ENDBRANCH   1   8
BRANCH   5  21
ATOM     21  C   UNL     1      -2.252   0.003   1.055  1.00  0.00     0.051 A 
ATOM     22  N   UNL     1      -3.491  -0.286   0.565  1.00  0.00    -0.252 NA
ATOM     23  C   UNL     1      -2.046   1.208   1.746  1.00  0.00     0.025 A 
ATOM     24  C   UNL     1      -4.550   0.547   0.742  1.00  0.00     0.071 A 
ATOM     25  C   UNL     1      -3.116   2.084   1.944  1.00  0.00     0.012 A 
ATOM     26  C   UNL     1      -5.806   0.206   0.227  1.00  0.00     0.032 A 
ATOM     27  C   UNL     1      -4.383   1.761   1.444  1.00  0.00     0.003 A 
ATOM     28  C   UNL     1      -6.894   1.066   0.410  1.00  0.00     0.041 A 
ATOM     29  C   UNL     1      -5.478   2.619   1.623  1.00  0.00     0.049 A 
ATOM     30  C   UNL     1      -6.731   2.269   1.106  1.00  0.00     0.123 A 
ATOM     31  F   UNL     1      -7.789   3.099   1.280  1.00  0.00    -0.207 F 
ENDBRANCH   5  21
TORSDOF 4


