MODEL 1
REMARK VINA RESULT:      -7.9      0.000      0.000
REMARK SMILES C=C[C@@H](Oc1[nH+]cnc(C)c1C)c1cc(-c2cnc3[nH]ccc3c2)cc2[nH]ccc12
REMARK SMILES IDX 3 1 2 2 1 3 4 4 5 5 6 6 11 7 7 8 9 9 8 10 12 12 10 13 13 14
REMARK SMILES IDX 14 15 30 16 15 17 29 18 26 19 25 20 28 21 27 22 16 24 17 25
REMARK SMILES IDX 24 26 18 27 23 28 19 29 22 30 20 31 21 32
REMARK H PARENT 6 11 27 23 20 33
ROOT
ATOM      1  C   UNL     1      45.323 129.086  22.152  1.00  0.00     0.231 C 
ENDROOT
BRANCH   1   2
ATOM      2  C   UNL     1      44.652 129.363  23.475  1.00  0.00     0.014 C 
ATOM      3  C   UNL     1      44.760 128.530  24.519  1.00  0.00     0.008 C 
ENDBRANCH   1   2
BRANCH   1   4
ATOM      4  O   UNL     1      45.014 127.757  21.723  1.00  0.00    -0.450 OA
BRANCH   4   5
ATOM      5  C   UNL     1      45.699 126.590  22.104  1.00  0.00     0.289 A 
ATOM      6  N   UNL     1      47.063 126.529  22.088  1.00  0.00    -0.213 N 
ATOM      7  C   UNL     1      44.958 125.463  22.506  1.00  0.00     0.081 A 
ATOM      8  C   UNL     1      47.719 125.411  22.493  1.00  0.00     0.452 A 
ATOM      9  C   UNL     1      45.667 124.324  22.946  1.00  0.00     0.159 A 
ATOM     10  N   UNL     1      47.024 124.331  22.922  1.00  0.00    -0.054 NA
ATOM     11  H   UNL     1      47.635 127.328  21.744  1.00  0.00     0.315 HD
ATOM     12  C   UNL     1      43.448 125.497  22.536  1.00  0.00     0.057 C 
ATOM     13  C   UNL     1      44.966 123.094  23.443  1.00  0.00     0.098 C 
ENDBRANCH   4   5
ENDBRANCH   1   4
BRANCH   1  14
ATOM     14  C   UNL     1      44.814 130.080  21.132  1.00  0.00     0.006 A 
ATOM     15  C   UNL     1      45.344 130.127  19.819  1.00  0.00     0.017 A 
ATOM     16  C   UNL     1      43.747 130.943  21.417  1.00  0.00     0.007 A 
ATOM     17  C   UNL     1      44.857 131.052  18.857  1.00  0.00    -0.014 A 
ATOM     18  C   UNL     1      42.992 131.110  22.564  1.00  0.00     0.028 A 
ATOM     19  C   UNL     1      43.258 131.825  20.487  1.00  0.00     0.046 A 
ATOM     20  C   UNL     1      43.793 131.915  19.206  1.00  0.00     0.035 A 
ATOM     21  C   UNL     1      42.073 132.108  22.260  1.00  0.00     0.083 A 
ATOM     22  N   UNL     1      42.240 132.542  20.991  1.00  0.00    -0.361 N 
ATOM     23  H   UNL     1      41.684 133.280  20.503  1.00  0.00     0.166 HD
BRANCH  17  24
ATOM     24  C   UNL     1      45.472 131.121  17.504  1.00  0.00     0.001 A 
ATOM     25  C   UNL     1      45.459 132.336  16.760  1.00  0.00     0.122 A 
ATOM     26  C   UNL     1      46.065 129.973  16.921  1.00  0.00     0.022 A 
ATOM     27  N   UNL     1      46.001 132.398  15.507  1.00  0.00    -0.238 NA
ATOM     28  C   UNL     1      46.596 130.097  15.643  1.00  0.00     0.019 A 
ATOM     29  C   UNL     1      46.556 131.284  14.973  1.00  0.00     0.137 A 
ATOM     30  C   UNL     1      47.208 129.182  14.814  1.00  0.00     0.030 A 
ATOM     31  N   UNL     1      47.109 131.181  13.756  1.00  0.00    -0.346 N 
ATOM     32  C   UNL     1      47.509 129.890  13.652  1.00  0.00     0.085 A 
ATOM     33  H   UNL     1      47.199 131.930  13.034  1.00  0.00     0.167 HD
ENDBRANCH  17  24
ENDBRANCH   1  14
TORSDOF 5
ENDMDL
MODEL 2
REMARK VINA RESULT:      -7.8      2.349      3.363
REMARK SMILES C=C[C@@H](Oc1[nH+]cnc(C)c1C)c1cc(-c2cnc3[nH]ccc3c2)cc2[nH]ccc12
REMARK SMILES IDX 3 1 2 2 1 3 4 4 5 5 6 6 11 7 7 8 9 9 8 10 12 12 10 13 13 14
REMARK SMILES IDX 14 15 30 16 15 17 29 18 26 19 25 20 28 21 27 22 16 24 17 25
REMARK SMILES IDX 24 26 18 27 23 28 19 29 22 30 20 31 21 32
REMARK H PARENT 6 11 27 23 20 33
ROOT
ATOM      1  C   UNL     1      44.842 130.946  21.571  1.00  0.00     0.231 C 
ENDROOT
BRANCH   1   2
ATOM      2  C   UNL     1      45.843 131.993  21.995  1.00  0.00     0.014 C 
ATOM      3  C   UNL     1      46.453 132.797  21.114  1.00  0.00     0.008 C 
ENDBRANCH   1   2
BRANCH   1   4
ATOM      4  O   UNL     1      43.723 130.960  22.462  1.00  0.00    -0.450 OA
BRANCH   4   5
ATOM      5  C   UNL     1      43.170 129.838  23.105  1.00  0.00     0.289 A 
ATOM      6  N   UNL     1      41.982 129.917  23.773  1.00  0.00    -0.213 N 
ATOM      7  C   UNL     1      43.862 128.613  23.059  1.00  0.00     0.081 A 
ATOM      8  C   UNL     1      41.435 128.821  24.360  1.00  0.00     0.452 A 
ATOM      9  C   UNL     1      43.256 127.486  23.656  1.00  0.00     0.159 A 
ATOM     10  N   UNL     1      42.065 127.626  24.291  1.00  0.00    -0.054 NA
ATOM     11  H   UNL     1      41.476 130.822  23.870  1.00  0.00     0.315 HD
ATOM     12  C   UNL     1      45.178 128.491  22.328  1.00  0.00     0.057 C 
ATOM     13  C   UNL     1      43.890 126.127  23.613  1.00  0.00     0.098 C 
ENDBRANCH   4   5
ENDBRANCH   1   4
BRANCH   1  14
ATOM     14  C   UNL     1      44.377 131.259  20.166  1.00  0.00     0.006 A 
ATOM     15  C   UNL     1      45.091 130.799  19.034  1.00  0.00     0.017 A 
ATOM     16  C   UNL     1      43.181 131.950  19.926  1.00  0.00     0.007 A 
ATOM     17  C   UNL     1      44.648 131.082  17.714  1.00  0.00    -0.014 A 
ATOM     18  C   UNL     1      42.246 132.481  20.795  1.00  0.00     0.028 A 
ATOM     19  C   UNL     1      42.737 132.211  18.655  1.00  0.00     0.046 A 
ATOM     20  C   UNL     1      43.446 131.804  17.529  1.00  0.00     0.035 A 
ATOM     21  C   UNL     1      41.269 133.049  19.985  1.00  0.00     0.083 A 
ATOM     22  N   UNL     1      41.573 132.882  18.679  1.00  0.00    -0.361 N 
ATOM     23  H   UNL     1      41.013 133.205  17.859  1.00  0.00     0.166 HD
BRANCH  17  24
ATOM     24  C   UNL     1      45.449 130.639  16.541  1.00  0.00     0.001 A 
ATOM     25  C   UNL     1      45.659 129.253  16.285  1.00  0.00     0.122 A 
ATOM     26  C   UNL     1      46.035 131.588  15.667  1.00  0.00     0.022 A 
ATOM     27  N   UNL     1      46.414 128.842  15.223  1.00  0.00    -0.238 NA
ATOM     28  C   UNL     1      46.794 131.109  14.606  1.00  0.00     0.019 A 
ATOM     29  C   UNL     1      46.965 129.771  14.406  1.00  0.00     0.137 A 
ATOM     30  C   UNL     1      47.495 131.762  13.615  1.00  0.00     0.030 A 
ATOM     31  N   UNL     1      47.741 129.528  13.340  1.00  0.00    -0.346 N 
ATOM     32  C   UNL     1      48.071 130.748  12.851  1.00  0.00     0.085 A 
ATOM     33  H   UNL     1      48.041 128.598  12.972  1.00  0.00     0.167 HD
ENDBRANCH  17  24
ENDBRANCH   1  14
TORSDOF 5
ENDMDL
MODEL 3
REMARK VINA RESULT:      -7.8      1.986      2.608
REMARK SMILES C=C[C@@H](Oc1[nH+]cnc(C)c1C)c1cc(-c2cnc3[nH]ccc3c2)cc2[nH]ccc12
REMARK SMILES IDX 3 1 2 2 1 3 4 4 5 5 6 6 11 7 7 8 9 9 8 10 12 12 10 13 13 14
REMARK SMILES IDX 14 15 30 16 15 17 29 18 26 19 25 20 28 21 27 22 16 24 17 25
REMARK SMILES IDX 24 26 18 27 23 28 19 29 22 30 20 31 21 32
REMARK H PARENT 6 11 27 23 20 33
ROOT
ATOM      1  C   UNL     1      45.045 131.052  21.826  1.00  0.00     0.231 C 
ENDROOT
BRANCH   1   2
ATOM      2  C   UNL     1      44.198 131.697  22.895  1.00  0.00     0.014 C 
ATOM      3  C   UNL     1      44.650 131.901  24.139  1.00  0.00     0.008 C 
ENDBRANCH   1   2
BRANCH   1   4
ATOM      4  O   UNL     1      44.991 129.629  21.962  1.00  0.00    -0.450 OA
BRANCH   4   5
ATOM      5  C   UNL     1      44.042 128.910  22.710  1.00  0.00     0.289 A 
ATOM      6  N   UNL     1      42.833 129.454  23.034  1.00  0.00    -0.213 N 
ATOM      7  C   UNL     1      44.352 127.603  23.133  1.00  0.00     0.081 A 
ATOM      8  C   UNL     1      41.906 128.741  23.725  1.00  0.00     0.452 A 
ATOM      9  C   UNL     1      43.360 126.877  23.826  1.00  0.00     0.159 A 
ATOM     10  N   UNL     1      42.170 127.469  24.104  1.00  0.00    -0.054 NA
ATOM     11  H   UNL     1      42.598 130.437  22.782  1.00  0.00     0.315 HD
ATOM     12  C   UNL     1      45.680 126.971  22.791  1.00  0.00     0.057 C 
ATOM     13  C   UNL     1      43.576 125.460  24.271  1.00  0.00     0.098 C 
ENDBRANCH   4   5
ENDBRANCH   1   4
BRANCH   1  14
ATOM     14  C   UNL     1      44.507 131.453  20.471  1.00  0.00     0.006 A 
ATOM     15  C   UNL     1      45.238 131.203  19.284  1.00  0.00     0.017 A 
ATOM     16  C   UNL     1      43.232 132.017  20.325  1.00  0.00     0.007 A 
ATOM     17  C   UNL     1      44.727 131.568  18.010  1.00  0.00    -0.014 A 
ATOM     18  C   UNL     1      42.266 132.338  21.260  1.00  0.00     0.028 A 
ATOM     19  C   UNL     1      42.724 132.354  19.097  1.00  0.00     0.046 A 
ATOM     20  C   UNL     1      43.444 132.155  17.922  1.00  0.00     0.035 A 
ATOM     21  C   UNL     1      41.206 132.866  20.532  1.00  0.00     0.083 A 
ATOM     22  N   UNL     1      41.491 132.875  19.211  1.00  0.00    -0.361 N 
ATOM     23  H   UNL     1      40.873 133.213  18.440  1.00  0.00     0.166 HD
BRANCH  17  24
ATOM     24  C   UNL     1      45.541 131.349  16.783  1.00  0.00     0.001 A 
ATOM     25  C   UNL     1      45.804 132.422  15.884  1.00  0.00     0.122 A 
ATOM     26  C   UNL     1      46.054 130.064  16.477  1.00  0.00     0.022 A 
ATOM     27  N   UNL     1      46.531 132.220  14.743  1.00  0.00    -0.238 NA
ATOM     28  C   UNL     1      46.782 129.920  15.303  1.00  0.00     0.019 A 
ATOM     29  C   UNL     1      47.004 130.980  14.474  1.00  0.00     0.137 A 
ATOM     30  C   UNL     1      47.381 128.821  14.727  1.00  0.00     0.030 A 
ATOM     31  N   UNL     1      47.714 130.621  13.395  1.00  0.00    -0.346 N 
ATOM     32  C   UNL     1      47.946 129.294  13.544  1.00  0.00     0.085 A 
ATOM     33  H   UNL     1      48.011 131.229  12.599  1.00  0.00     0.167 HD
ENDBRANCH  17  24
ENDBRANCH   1  14
TORSDOF 5
ENDMDL
MODEL 4
REMARK VINA RESULT:      -7.6      0.900      1.414
REMARK SMILES C=C[C@@H](Oc1[nH+]cnc(C)c1C)c1cc(-c2cnc3[nH]ccc3c2)cc2[nH]ccc12
REMARK SMILES IDX 3 1 2 2 1 3 4 4 5 5 6 6 11 7 7 8 9 9 8 10 12 12 10 13 13 14
REMARK SMILES IDX 14 15 30 16 15 17 29 18 26 19 25 20 28 21 27 22 16 24 17 25
REMARK SMILES IDX 24 26 18 27 23 28 19 29 22 30 20 31 21 32
REMARK H PARENT 6 11 27 23 20 33
ROOT
ATOM      1  C   UNL     1      45.375 128.992  22.235  1.00  0.00     0.231 C 
ENDROOT
BRANCH   1   2
ATOM      2  C   UNL     1      44.433 128.940  23.413  1.00  0.00     0.014 C 
ATOM      3  C   UNL     1      44.827 128.527  24.625  1.00  0.00     0.008 C 
ENDBRANCH   1   2
BRANCH   1   4
ATOM      4  O   UNL     1      45.447 127.704  21.618  1.00  0.00    -0.450 OA
BRANCH   4   5
ATOM      5  C   UNL     1      45.062 126.487  22.208  1.00  0.00     0.289 A 
ATOM      6  N   UNL     1      43.748 126.186  22.425  1.00  0.00    -0.213 N 
ATOM      7  C   UNL     1      46.057 125.565  22.586  1.00  0.00     0.081 A 
ATOM      8  C   UNL     1      43.382 124.994  22.961  1.00  0.00     0.452 A 
ATOM      9  C   UNL     1      45.645 124.324  23.117  1.00  0.00     0.159 A 
ATOM     10  N   UNL     1      44.321 124.078  23.292  1.00  0.00    -0.054 NA
ATOM     11  H   UNL     1      42.995 126.871  22.206  1.00  0.00     0.315 HD
ATOM     12  C   UNL     1      47.520 125.866  22.360  1.00  0.00     0.057 C 
ATOM     13  C   UNL     1      46.629 123.256  23.499  1.00  0.00     0.098 C 
ENDBRANCH   4   5
ENDBRANCH   1   4
BRANCH   1  14
ATOM     14  C   UNL     1      44.851 130.003  21.239  1.00  0.00     0.006 A 
ATOM     15  C   UNL     1      45.357 130.067  19.918  1.00  0.00     0.017 A 
ATOM     16  C   UNL     1      43.793 130.866  21.556  1.00  0.00     0.007 A 
ATOM     17  C   UNL     1      44.857 131.007  18.979  1.00  0.00    -0.014 A 
ATOM     18  C   UNL     1      43.060 131.019  22.719  1.00  0.00     0.028 A 
ATOM     19  C   UNL     1      43.291 131.763  20.649  1.00  0.00     0.046 A 
ATOM     20  C   UNL     1      43.803 131.870  19.359  1.00  0.00     0.035 A 
ATOM     21  C   UNL     1      42.139 132.024  22.447  1.00  0.00     0.083 A 
ATOM     22  N   UNL     1      42.285 132.476  21.182  1.00  0.00    -0.361 N 
ATOM     23  H   UNL     1      41.723 133.223  20.715  1.00  0.00     0.166 HD
BRANCH  17  24
ATOM     24  C   UNL     1      45.446 131.094  17.615  1.00  0.00     0.001 A 
ATOM     25  C   UNL     1      45.413 132.316  16.884  1.00  0.00     0.122 A 
ATOM     26  C   UNL     1      46.036 129.956  17.010  1.00  0.00     0.022 A 
ATOM     27  N   UNL     1      45.932 132.394  15.622  1.00  0.00    -0.238 NA
ATOM     28  C   UNL     1      46.544 130.096  15.724  1.00  0.00     0.019 A 
ATOM     29  C   UNL     1      46.485 131.289  15.067  1.00  0.00     0.137 A 
ATOM     30  C   UNL     1      47.146 129.193  14.876  1.00  0.00     0.030 A 
ATOM     31  N   UNL     1      47.016 131.203  13.840  1.00  0.00    -0.346 N 
ATOM     32  C   UNL     1      47.423 129.915  13.716  1.00  0.00     0.085 A 
ATOM     33  H   UNL     1      47.089 131.959  13.124  1.00  0.00     0.167 HD
ENDBRANCH  17  24
ENDBRANCH   1  14
TORSDOF 5
ENDMDL
MODEL 5
REMARK VINA RESULT:      -7.5      1.869      2.621
REMARK SMILES C=C[C@@H](Oc1[nH+]cnc(C)c1C)c1cc(-c2cnc3[nH]ccc3c2)cc2[nH]ccc12
REMARK SMILES IDX 3 1 2 2 1 3 4 4 5 5 6 6 11 7 7 8 9 9 8 10 12 12 10 13 13 14
REMARK SMILES IDX 14 15 30 16 15 17 29 18 26 19 25 20 28 21 27 22 16 24 17 25
REMARK SMILES IDX 24 26 18 27 23 28 19 29 22 30 20 31 21 32
REMARK H PARENT 6 11 27 23 20 33
ROOT
ATOM      1  C   UNL     1      44.610 130.900  22.088  1.00  0.00     0.231 C 
ENDROOT
BRANCH   1   2
ATOM      2  C   UNL     1      43.499 131.250  23.047  1.00  0.00     0.014 C 
ATOM      3  C   UNL     1      43.642 132.182  23.998  1.00  0.00     0.008 C 
ENDBRANCH   1   2
BRANCH   1   4
ATOM      4  O   UNL     1      44.867 129.494  22.140  1.00  0.00    -0.450 OA
BRANCH   4   5
ATOM      5  C   UNL     1      44.215 128.569  22.975  1.00  0.00     0.289 A 
ATOM      6  N   UNL     1      43.211 128.956  23.815  1.00  0.00    -0.213 N 
ATOM      7  C   UNL     1      44.613 127.219  22.942  1.00  0.00     0.081 A 
ATOM      8  C   UNL     1      42.560 128.051  24.592  1.00  0.00     0.452 A 
ATOM      9  C   UNL     1      43.900 126.298  23.740  1.00  0.00     0.159 A 
ATOM     10  N   UNL     1      42.900 126.742  24.543  1.00  0.00    -0.054 NA
ATOM     11  H   UNL     1      42.933 129.956  23.901  1.00  0.00     0.315 HD
ATOM     12  C   UNL     1      45.719 126.758  22.024  1.00  0.00     0.057 C 
ATOM     13  C   UNL     1      44.215 124.830  23.733  1.00  0.00     0.098 C 
ENDBRANCH   4   5
ENDBRANCH   1   4
BRANCH   1  14
ATOM     14  C   UNL     1      44.185 131.287  20.689  1.00  0.00     0.006 A 
ATOM     15  C   UNL     1      44.908 130.852  19.552  1.00  0.00     0.017 A 
ATOM     16  C   UNL     1      43.017 132.026  20.454  1.00  0.00     0.007 A 
ATOM     17  C   UNL     1      44.502 131.204  18.237  1.00  0.00    -0.014 A 
ATOM     18  C   UNL     1      42.081 132.551  21.327  1.00  0.00     0.028 A 
ATOM     19  C   UNL     1      42.608 132.354  19.188  1.00  0.00     0.046 A 
ATOM     20  C   UNL     1      43.328 131.971  18.060  1.00  0.00     0.035 A 
ATOM     21  C   UNL     1      41.140 133.183  20.523  1.00  0.00     0.083 A 
ATOM     22  N   UNL     1      41.466 133.061  19.217  1.00  0.00    -0.361 N 
ATOM     23  H   UNL     1      40.934 133.437  18.401  1.00  0.00     0.166 HD
BRANCH  17  24
ATOM     24  C   UNL     1      45.313 130.784  17.063  1.00  0.00     0.001 A 
ATOM     25  C   UNL     1      45.676 129.418  16.879  1.00  0.00     0.122 A 
ATOM     26  C   UNL     1      45.756 131.738  16.113  1.00  0.00     0.022 A 
ATOM     27  N   UNL     1      46.441 129.031  15.815  1.00  0.00    -0.238 NA
ATOM     28  C   UNL     1      46.533 131.285  15.054  1.00  0.00     0.019 A 
ATOM     29  C   UNL     1      46.854 129.966  14.926  1.00  0.00     0.137 A 
ATOM     30  C   UNL     1      47.122 131.952  14.001  1.00  0.00     0.030 A 
ATOM     31  N   UNL     1      47.619 129.748  13.847  1.00  0.00    -0.346 N 
ATOM     32  C   UNL     1      47.788 130.966  13.276  1.00  0.00     0.085 A 
ATOM     33  H   UNL     1      48.015 128.837  13.523  1.00  0.00     0.167 HD
ENDBRANCH  17  24
ENDBRANCH   1  14
TORSDOF 5
ENDMDL
MODEL 6
REMARK VINA RESULT:      -7.3      1.840      2.546
REMARK SMILES C=C[C@@H](Oc1[nH+]cnc(C)c1C)c1cc(-c2cnc3[nH]ccc3c2)cc2[nH]ccc12
REMARK SMILES IDX 3 1 2 2 1 3 4 4 5 5 6 6 11 7 7 8 9 9 8 10 12 12 10 13 13 14
REMARK SMILES IDX 14 15 30 16 15 17 29 18 26 19 25 20 28 21 27 22 16 24 17 25
REMARK SMILES IDX 24 26 18 27 23 28 19 29 22 30 20 31 21 32
REMARK H PARENT 6 11 27 23 20 33
ROOT
ATOM      1  C   UNL     1      45.147 131.010  21.413  1.00  0.00     0.231 C 
ENDROOT
BRANCH   1   2
ATOM      2  C   UNL     1      45.659 132.263  22.079  1.00  0.00     0.014 C 
ATOM      3  C   UNL     1      45.330 132.589  23.337  1.00  0.00     0.008 C 
ENDBRANCH   1   2
BRANCH   1   4
ATOM      4  O   UNL     1      44.151 130.398  22.237  1.00  0.00    -0.450 OA
BRANCH   4   5
ATOM      5  C   UNL     1      44.155 129.063  22.678  1.00  0.00     0.289 A 
ATOM      6  N   UNL     1      45.226 128.245  22.458  1.00  0.00    -0.213 N 
ATOM      7  C   UNL     1      43.026 128.563  23.355  1.00  0.00     0.081 A 
ATOM      8  C   UNL     1      45.238 126.968  22.919  1.00  0.00     0.452 A 
ATOM      9  C   UNL     1      43.079 127.240  23.845  1.00  0.00     0.159 A 
ATOM     10  N   UNL     1      44.180 126.482  23.609  1.00  0.00    -0.054 NA
ATOM     11  H   UNL     1      46.051 128.571  21.913  1.00  0.00     0.315 HD
ATOM     12  C   UNL     1      41.825 129.440  23.615  1.00  0.00     0.057 C 
ATOM     13  C   UNL     1      41.947 126.636  24.625  1.00  0.00     0.098 C 
ENDBRANCH   4   5
ENDBRANCH   1   4
BRANCH   1  14
ATOM     14  C   UNL     1      44.542 131.383  20.077  1.00  0.00     0.006 A 
ATOM     15  C   UNL     1      45.223 131.128  18.863  1.00  0.00     0.017 A 
ATOM     16  C   UNL     1      43.253 131.925  19.981  1.00  0.00     0.007 A 
ATOM     17  C   UNL     1      44.650 131.466  17.608  1.00  0.00    -0.014 A 
ATOM     18  C   UNL     1      42.324 132.244  20.954  1.00  0.00     0.028 A 
ATOM     19  C   UNL     1      42.685 132.236  18.772  1.00  0.00     0.046 A 
ATOM     20  C   UNL     1      43.355 132.032  17.570  1.00  0.00     0.035 A 
ATOM     21  C   UNL     1      41.224 132.745  20.267  1.00  0.00     0.083 A 
ATOM     22  N   UNL     1      41.450 132.740  18.935  1.00  0.00    -0.361 N 
ATOM     23  H   UNL     1      40.793 133.057  18.187  1.00  0.00     0.166 HD
BRANCH  17  24
ATOM     24  C   UNL     1      45.412 131.242  16.349  1.00  0.00     0.001 A 
ATOM     25  C   UNL     1      45.102 131.979  15.170  1.00  0.00     0.122 A 
ATOM     26  C   UNL     1      46.449 130.277  16.295  1.00  0.00     0.022 A 
ATOM     27  N   UNL     1      45.783 131.759  14.005  1.00  0.00    -0.238 NA
ATOM     28  C   UNL     1      47.103 130.097  15.082  1.00  0.00     0.019 A 
ATOM     29  C   UNL     1      46.766 130.827  13.982  1.00  0.00     0.137 A 
ATOM     30  C   UNL     1      48.117 129.241  14.709  1.00  0.00     0.030 A 
ATOM     31  N   UNL     1      47.507 130.487  12.918  1.00  0.00    -0.346 N 
ATOM     32  C   UNL     1      48.338 129.510  13.359  1.00  0.00     0.085 A 
ATOM     33  H   UNL     1      47.449 130.877  11.951  1.00  0.00     0.167 HD
ENDBRANCH  17  24
ENDBRANCH   1  14
TORSDOF 5
ENDMDL
MODEL 7
REMARK VINA RESULT:      -7.0      1.725      7.439
REMARK SMILES C=C[C@@H](Oc1[nH+]cnc(C)c1C)c1cc(-c2cnc3[nH]ccc3c2)cc2[nH]ccc12
REMARK SMILES IDX 3 1 2 2 1 3 4 4 5 5 6 6 11 7 7 8 9 9 8 10 12 12 10 13 13 14
REMARK SMILES IDX 14 15 30 16 15 17 29 18 26 19 25 20 28 21 27 22 16 24 17 25
REMARK SMILES IDX 24 26 18 27 23 28 19 29 22 30 20 31 21 32
REMARK H PARENT 6 11 27 23 20 33
ROOT
ATOM      1  C   UNL     1      44.862 131.081  19.775  1.00  0.00     0.231 C 
ENDROOT
BRANCH   1   2
ATOM      2  C   UNL     1      45.700 132.267  20.184  1.00  0.00     0.014 C 
ATOM      3  C   UNL     1      46.513 132.235  21.249  1.00  0.00     0.008 C 
ENDBRANCH   1   2
BRANCH   1   4
ATOM      4  O   UNL     1      45.611 130.243  18.891  1.00  0.00    -0.450 OA
BRANCH   4   5
ATOM      5  C   UNL     1      45.691 130.384  17.495  1.00  0.00     0.289 A 
ATOM      6  N   UNL     1      46.750 129.890  16.790  1.00  0.00    -0.213 N 
ATOM      7  C   UNL     1      44.656 131.055  16.815  1.00  0.00     0.081 A 
ATOM      8  C   UNL     1      46.803 129.997  15.437  1.00  0.00     0.452 A 
ATOM      9  C   UNL     1      44.725 131.128  15.407  1.00  0.00     0.159 A 
ATOM     10  N   UNL     1      45.797 130.602  14.762  1.00  0.00    -0.054 NA
ATOM     11  H   UNL     1      47.556 129.438  17.271  1.00  0.00     0.315 HD
ATOM     12  C   UNL     1      43.470 131.614  17.564  1.00  0.00     0.057 C 
ATOM     13  C   UNL     1      43.645 131.775  14.590  1.00  0.00     0.098 C 
ENDBRANCH   4   5
ENDBRANCH   1   4
BRANCH   1  14
ATOM     14  C   UNL     1      44.485 130.302  21.016  1.00  0.00     0.006 A 
ATOM     15  C   UNL     1      45.058 129.037  21.294  1.00  0.00     0.017 A 
ATOM     16  C   UNL     1      43.614 130.830  21.979  1.00  0.00     0.007 A 
ATOM     17  C   UNL     1      44.715 128.311  22.465  1.00  0.00    -0.014 A 
ATOM     18  C   UNL     1      42.937 132.035  22.031  1.00  0.00     0.028 A 
ATOM     19  C   UNL     1      43.293 130.144  23.121  1.00  0.00     0.046 A 
ATOM     20  C   UNL     1      43.813 128.882  23.393  1.00  0.00     0.035 A 
ATOM     21  C   UNL     1      42.226 132.009  23.225  1.00  0.00     0.083 A 
ATOM     22  N   UNL     1      42.445 130.851  23.887  1.00  0.00    -0.361 N 
ATOM     23  H   UNL     1      42.041 130.570  24.808  1.00  0.00     0.166 HD
BRANCH  17  24
ATOM     24  C   UNL     1      45.285 126.957  22.704  1.00  0.00     0.001 A 
ATOM     25  C   UNL     1      44.460 125.798  22.642  1.00  0.00     0.122 A 
ATOM     26  C   UNL     1      46.658 126.798  23.018  1.00  0.00     0.022 A 
ATOM     27  N   UNL     1      44.974 124.555  22.885  1.00  0.00    -0.238 NA
ATOM     28  C   UNL     1      47.123 125.511  23.257  1.00  0.00     0.019 A 
ATOM     29  C   UNL     1      46.289 124.434  23.187  1.00  0.00     0.137 A 
ATOM     30  C   UNL     1      48.372 125.038  23.598  1.00  0.00     0.030 A 
ATOM     31  N   UNL     1      46.935 123.293  23.466  1.00  0.00    -0.346 N 
ATOM     32  C   UNL     1      48.215 123.658  23.722  1.00  0.00     0.085 A 
ATOM     33  H   UNL     1      46.535 122.328  23.496  1.00  0.00     0.167 HD
ENDBRANCH  17  24
ENDBRANCH   1  14
TORSDOF 5
ENDMDL
MODEL 8
REMARK VINA RESULT:      -6.6      1.922      7.274
REMARK SMILES C=C[C@@H](Oc1[nH+]cnc(C)c1C)c1cc(-c2cnc3[nH]ccc3c2)cc2[nH]ccc12
REMARK SMILES IDX 3 1 2 2 1 3 4 4 5 5 6 6 11 7 7 8 9 9 8 10 12 12 10 13 13 14
REMARK SMILES IDX 14 15 30 16 15 17 29 18 26 19 25 20 28 21 27 22 16 24 17 25
REMARK SMILES IDX 24 26 18 27 23 28 19 29 22 30 20 31 21 32
REMARK H PARENT 6 11 27 23 20 33
ROOT
ATOM      1  C   UNL     1      45.041 131.506  20.923  1.00  0.00     0.231 C 
ENDROOT
BRANCH   1   2
ATOM      2  C   UNL     1      46.248 132.149  21.562  1.00  0.00     0.014 C 
ATOM      3  C   UNL     1      47.218 132.724  20.839  1.00  0.00     0.008 C 
ENDBRANCH   1   2
BRANCH   1   4
ATOM      4  O   UNL     1      45.397 130.979  19.642  1.00  0.00    -0.450 OA
BRANCH   4   5
ATOM      5  C   UNL     1      44.693 131.188  18.443  1.00  0.00     0.289 A 
ATOM      6  N   UNL     1      43.494 131.840  18.427  1.00  0.00    -0.213 N 
ATOM      7  C   UNL     1      45.238 130.707  17.238  1.00  0.00     0.081 A 
ATOM      8  C   UNL     1      42.837 132.071  17.261  1.00  0.00     0.452 A 
ATOM      9  C   UNL     1      44.546 130.984  16.039  1.00  0.00     0.159 A 
ATOM     10  N   UNL     1      43.366 131.653  16.087  1.00  0.00    -0.054 NA
ATOM     11  H   UNL     1      43.040 132.159  19.309  1.00  0.00     0.315 HD
ATOM     12  C   UNL     1      46.562 129.981  17.219  1.00  0.00     0.057 C 
ATOM     13  C   UNL     1      45.074 130.560  14.699  1.00  0.00     0.098 C 
ENDBRANCH   4   5
ENDBRANCH   1   4
BRANCH   1  14
ATOM     14  C   UNL     1      44.558 130.385  21.817  1.00  0.00     0.006 A 
ATOM     15  C   UNL     1      45.116 129.086  21.737  1.00  0.00     0.017 A 
ATOM     16  C   UNL     1      43.594 130.602  22.811  1.00  0.00     0.007 A 
ATOM     17  C   UNL     1      44.673 128.037  22.584  1.00  0.00    -0.014 A 
ATOM     18  C   UNL     1      42.901 131.742  23.175  1.00  0.00     0.028 A 
ATOM     19  C   UNL     1      43.174 129.599  23.646  1.00  0.00     0.046 A 
ATOM     20  C   UNL     1      43.681 128.306  23.556  1.00  0.00     0.035 A 
ATOM     21  C   UNL     1      42.080 131.357  24.228  1.00  0.00     0.083 A 
ATOM     22  N   UNL     1      42.250 130.047  24.512  1.00  0.00    -0.361 N 
ATOM     23  H   UNL     1      41.764 129.499  25.257  1.00  0.00     0.166 HD
BRANCH  17  24
ATOM     24  C   UNL     1      45.234 126.666  22.440  1.00  0.00     0.001 A 
ATOM     25  C   UNL     1      44.396 125.520  22.558  1.00  0.00     0.122 A 
ATOM     26  C   UNL     1      46.618 126.474  22.201  1.00  0.00     0.022 A 
ATOM     27  N   UNL     1      44.911 124.259  22.451  1.00  0.00    -0.238 NA
ATOM     28  C   UNL     1      47.083 125.169  22.104  1.00  0.00     0.019 A 
ATOM     29  C   UNL     1      46.238 124.106  22.227  1.00  0.00     0.137 A 
ATOM     30  C   UNL     1      48.349 124.662  21.902  1.00  0.00     0.030 A 
ATOM     31  N   UNL     1      46.892 122.941  22.115  1.00  0.00    -0.346 N 
ATOM     32  C   UNL     1      48.191 123.277  21.917  1.00  0.00     0.085 A 
ATOM     33  H   UNL     1      46.492 121.979  22.183  1.00  0.00     0.167 HD
ENDBRANCH  17  24
ENDBRANCH   1  14
TORSDOF 5
ENDMDL
MODEL 9
REMARK VINA RESULT:      -6.4      1.141      1.459
REMARK SMILES C=C[C@@H](Oc1[nH+]cnc(C)c1C)c1cc(-c2cnc3[nH]ccc3c2)cc2[nH]ccc12
REMARK SMILES IDX 3 1 2 2 1 3 4 4 5 5 6 6 11 7 7 8 9 9 8 10 12 12 10 13 13 14
REMARK SMILES IDX 14 15 30 16 15 17 29 18 26 19 25 20 28 21 27 22 16 24 17 25
REMARK SMILES IDX 24 26 18 27 23 28 19 29 22 30 20 31 21 32
REMARK H PARENT 6 11 27 23 20 33
ROOT
ATOM      1  C   UNL     1      44.785 129.756  22.164  1.00  0.00     0.231 C 
ENDROOT
BRANCH   1   2
ATOM      2  C   UNL     1      44.059 130.393  23.323  1.00  0.00     0.014 C 
ATOM      3  C   UNL     1      44.152 129.919  24.572  1.00  0.00     0.008 C 
ENDBRANCH   1   2
BRANCH   1   4
ATOM      4  O   UNL     1      44.371 128.394  22.026  1.00  0.00    -0.450 OA
BRANCH   4   5
ATOM      5  C   UNL     1      45.132 127.264  22.373  1.00  0.00     0.289 A 
ATOM      6  N   UNL     1      46.402 127.091  21.902  1.00  0.00    -0.213 N 
ATOM      7  C   UNL     1      44.566 126.292  23.219  1.00  0.00     0.081 A 
ATOM      8  C   UNL     1      47.145 126.015  22.271  1.00  0.00     0.452 A 
ATOM      9  C   UNL     1      45.371 125.198  23.606  1.00  0.00     0.159 A 
ATOM     10  N   UNL     1      46.633 125.091  23.117  1.00  0.00    -0.054 NA
ATOM     11  H   UNL     1      46.826 127.765  21.231  1.00  0.00     0.315 HD
ATOM     12  C   UNL     1      43.164 126.452  23.758  1.00  0.00     0.057 C 
ATOM     13  C   UNL     1      44.875 124.139  24.547  1.00  0.00     0.098 C 
ENDBRANCH   4   5
ENDBRANCH   1   4
BRANCH   1  14
ATOM     14  C   UNL     1      44.450 130.519  20.902  1.00  0.00     0.006 A 
ATOM     15  C   UNL     1      45.088 130.228  19.672  1.00  0.00     0.017 A 
ATOM     16  C   UNL     1      43.441 131.492  20.878  1.00  0.00     0.007 A 
ATOM     17  C   UNL     1      44.765 130.935  18.484  1.00  0.00    -0.014 A 
ATOM     18  C   UNL     1      42.611 131.968  21.877  1.00  0.00     0.028 A 
ATOM     19  C   UNL     1      43.109 132.166  19.731  1.00  0.00     0.046 A 
ATOM     20  C   UNL     1      43.754 131.923  18.522  1.00  0.00     0.035 A 
ATOM     21  C   UNL     1      41.809 132.926  21.267  1.00  0.00     0.083 A 
ATOM     22  N   UNL     1      42.118 133.044  19.957  1.00  0.00    -0.361 N 
ATOM     23  H   UNL     1      41.670 133.684  19.263  1.00  0.00     0.166 HD
BRANCH  17  24
ATOM     24  C   UNL     1      45.493 130.650  17.218  1.00  0.00     0.001 A 
ATOM     25  C   UNL     1      45.950 129.334  16.922  1.00  0.00     0.122 A 
ATOM     26  C   UNL     1      45.762 131.688  16.291  1.00  0.00     0.022 A 
ATOM     27  N   UNL     1      46.641 129.072  15.771  1.00  0.00    -0.238 NA
ATOM     28  C   UNL     1      46.470 131.361  15.141  1.00  0.00     0.019 A 
ATOM     29  C   UNL     1      46.887 130.085  14.906  1.00  0.00     0.137 A 
ATOM     30  C   UNL     1      46.898 132.131  14.081  1.00  0.00     0.030 A 
ATOM     31  N   UNL     1      47.562 129.992  13.752  1.00  0.00    -0.346 N 
ATOM     32  C   UNL     1      47.574 131.248  13.241  1.00  0.00     0.085 A 
ATOM     33  H   UNL     1      48.001 129.138  13.339  1.00  0.00     0.167 HD
ENDBRANCH  17  24
ENDBRANCH   1  14
TORSDOF 5
ENDMDL


