MODEL 1
REMARK VINA RESULT:      -7.4      0.000      0.000
REMARK SMILES [H]/N=c1\[nH]c(C(=O)N2N[C@H](C)O[C@H]2c2ccc3cc(C)[nH]c3c2)cs1
REMARK SMILES IDX 6 1 7 2 5 3 3 4 25 5 4 6 24 7 2 9 1 10 8 11 9 12 13 13 10 14
REMARK SMILES IDX 12 15 11 17 14 18 15 19 23 20 16 21 22 22 17 23 21 24 18 25
REMARK SMILES IDX 19 26 20 28
REMARK H PARENT 4 8 9 16 21 27
ROOT
ATOM      1  C   UNL     1      45.396 130.885  20.260  1.00  0.00     0.288 C 
ATOM      2  O   UNL     1      46.577 130.925  19.818  1.00  0.00    -0.266 OA
ENDROOT
BRANCH   1   3
ATOM      3  C   UNL     1      45.085 129.985  21.385  1.00  0.00     0.118 A 
ATOM      4  C   UNL     1      44.313 129.409  23.416  1.00  0.00     0.179 A 
ATOM      5  S   UNL     1      44.957 127.964  22.859  1.00  0.00    -0.105 S 
ATOM      6  N   UNL     1      44.460 130.408  22.519  1.00  0.00    -0.327 N 
ATOM      7  C   UNL     1      45.456 128.639  21.396  1.00  0.00     0.100 A 
ATOM      8  H   UNL     1      44.173 131.395  22.702  1.00  0.00     0.169 HD
BRANCH   4   9
ATOM      9  N   UNL     1      43.757 129.559  24.574  1.00  0.00    -0.275 NA
ATOM     10  H   UNL     1      42.770 129.259  24.745  1.00  0.00     0.190 HD
ENDBRANCH   4   9
ENDBRANCH   1   3
BRANCH   1  11
ATOM     11  N   UNL     1      44.381 131.701  19.651  1.00  0.00    -0.237 N 
ATOM     12  N   UNL     1      43.898 132.858  20.253  1.00  0.00    -0.201 NA
ATOM     13  C   UNL     1      43.492 131.223  18.620  1.00  0.00     0.267 C 
ATOM     14  C   UNL     1      42.591 133.045  19.619  1.00  0.00     0.204 C 
ATOM     15  O   UNL     1      42.436 132.145  18.535  1.00  0.00    -0.333 OA
ATOM     16  H   UNL     1      44.516 133.645  19.950  1.00  0.00     0.151 HD
ATOM     17  C   UNL     1      41.486 132.807  20.642  1.00  0.00     0.058 C 
BRANCH  13  18
ATOM     18  C   UNL     1      44.217 131.143  17.301  1.00  0.00     0.005 A 
ATOM     19  C   UNL     1      43.661 131.747  16.144  1.00  0.00     0.009 A 
ATOM     20  C   UNL     1      45.440 130.438  17.206  1.00  0.00     0.035 A 
ATOM     21  C   UNL     1      44.317 131.658  14.903  1.00  0.00     0.011 A 
ATOM     22  C   UNL     1      46.063 130.372  15.961  1.00  0.00     0.046 A 
ATOM     23  C   UNL     1      45.521 130.961  14.851  1.00  0.00    -0.000 A 
ATOM     24  N   UNL     1      47.213 129.748  15.659  1.00  0.00    -0.359 N 
ATOM     25  C   UNL     1      46.362 130.704  13.790  1.00  0.00     0.031 A 
ATOM     26  C   UNL     1      47.404 129.958  14.336  1.00  0.00     0.013 A 
ATOM     27  H   UNL     1      47.827 129.204  16.308  1.00  0.00     0.166 HD
ATOM     28  C   UNL     1      48.540 129.377  13.559  1.00  0.00     0.064 C 
ENDBRANCH  13  18
ENDBRANCH   1  11
TORSDOF 4
ENDMDL
MODEL 2
REMARK VINA RESULT:      -7.3      0.992      1.083
REMARK SMILES [H]/N=c1\[nH]c(C(=O)N2N[C@H](C)O[C@H]2c2ccc3cc(C)[nH]c3c2)cs1
REMARK SMILES IDX 6 1 7 2 5 3 3 4 25 5 4 6 24 7 2 9 1 10 8 11 9 12 13 13 10 14
REMARK SMILES IDX 12 15 11 17 14 18 15 19 23 20 16 21 22 22 17 23 21 24 18 25
REMARK SMILES IDX 19 26 20 28
REMARK H PARENT 4 8 9 16 21 27
ROOT
ATOM      1  C   UNL     1      45.238 130.859  20.262  1.00  0.00     0.288 C 
ATOM      2  O   UNL     1      46.414 130.856  19.806  1.00  0.00    -0.266 OA
ENDROOT
BRANCH   1   3
ATOM      3  C   UNL     1      44.914 129.992  21.409  1.00  0.00     0.118 A 
ATOM      4  C   UNL     1      44.961 128.132  22.669  1.00  0.00     0.179 A 
ATOM      5  S   UNL     1      43.883 129.101  23.510  1.00  0.00    -0.105 S 
ATOM      6  N   UNL     1      45.430 128.739  21.558  1.00  0.00    -0.327 N 
ATOM      7  C   UNL     1      44.010 130.368  22.404  1.00  0.00     0.100 A 
ATOM      8  H   UNL     1      46.069 128.279  20.873  1.00  0.00     0.169 HD
BRANCH   4   9
ATOM      9  N   UNL     1      45.296 126.935  23.028  1.00  0.00    -0.275 NA
ATOM     10  H   UNL     1      46.041 126.769  23.741  1.00  0.00     0.190 HD
ENDBRANCH   4   9
ENDBRANCH   1   3
BRANCH   1  11
ATOM     11  N   UNL     1      44.240 131.692  19.647  1.00  0.00    -0.237 N 
ATOM     12  N   UNL     1      43.756 132.845  20.256  1.00  0.00    -0.201 NA
ATOM     13  C   UNL     1      43.363 131.234  18.596  1.00  0.00     0.267 C 
ATOM     14  C   UNL     1      42.461 133.051  19.603  1.00  0.00     0.204 C 
ATOM     15  O   UNL     1      42.316 132.166  18.505  1.00  0.00    -0.333 OA
ATOM     16  H   UNL     1      44.387 133.631  19.973  1.00  0.00     0.151 HD
ATOM     17  C   UNL     1      41.338 132.811  20.605  1.00  0.00     0.058 C 
BRANCH  13  18
ATOM     18  C   UNL     1      44.108 131.164  17.288  1.00  0.00     0.005 A 
ATOM     19  C   UNL     1      43.580 131.793  16.132  1.00  0.00     0.009 A 
ATOM     20  C   UNL     1      45.323 130.445  17.202  1.00  0.00     0.035 A 
ATOM     21  C   UNL     1      44.255 131.714  14.900  1.00  0.00     0.011 A 
ATOM     22  C   UNL     1      45.966 130.389  15.967  1.00  0.00     0.046 A 
ATOM     23  C   UNL     1      45.450 131.002  14.856  1.00  0.00    -0.000 A 
ATOM     24  N   UNL     1      47.113 129.754  15.674  1.00  0.00    -0.359 N 
ATOM     25  C   UNL     1      46.305 130.749  13.806  1.00  0.00     0.031 A 
ATOM     26  C   UNL     1      47.328 129.981  14.357  1.00  0.00     0.013 A 
ATOM     27  H   UNL     1      47.708 129.192  16.324  1.00  0.00     0.166 HD
ATOM     28  C   UNL     1      48.469 129.397  13.590  1.00  0.00     0.064 C 
ENDBRANCH  13  18
ENDBRANCH   1  11
TORSDOF 4
ENDMDL
MODEL 3
REMARK VINA RESULT:      -6.5      2.591      6.667
REMARK SMILES [H]/N=c1\[nH]c(C(=O)N2N[C@H](C)O[C@H]2c2ccc3cc(C)[nH]c3c2)cs1
REMARK SMILES IDX 6 1 7 2 5 3 3 4 25 5 4 6 24 7 2 9 1 10 8 11 9 12 13 13 10 14
REMARK SMILES IDX 12 15 11 17 14 18 15 19 23 20 16 21 22 22 17 23 21 24 18 25
REMARK SMILES IDX 19 26 20 28
REMARK H PARENT 4 8 9 16 21 27
ROOT
ATOM      1  C   UNL     1      45.441 131.098  19.570  1.00  0.00     0.288 C 
ATOM      2  O   UNL     1      46.496 131.151  20.259  1.00  0.00    -0.266 OA
ENDROOT
BRANCH   1   3
ATOM      3  C   UNL     1      45.549 130.940  18.109  1.00  0.00     0.118 A 
ATOM      4  C   UNL     1      45.268 131.484  15.947  1.00  0.00     0.179 A 
ATOM      5  S   UNL     1      46.007 129.983  15.840  1.00  0.00    -0.105 S 
ATOM      6  N   UNL     1      45.080 131.867  17.228  1.00  0.00    -0.327 N 
ATOM      7  C   UNL     1      46.094 129.800  17.514  1.00  0.00     0.100 A 
ATOM      8  H   UNL     1      44.588 132.746  17.502  1.00  0.00     0.169 HD
BRANCH   4   9
ATOM      9  N   UNL     1      44.903 132.189  14.925  1.00  0.00    -0.275 NA
ATOM     10  H   UNL     1      43.897 132.272  14.654  1.00  0.00     0.190 HD
ENDBRANCH   4   9
ENDBRANCH   1   3
BRANCH   1  11
ATOM     11  N   UNL     1      44.162 131.208  20.219  1.00  0.00    -0.237 N 
ATOM     12  N   UNL     1      42.989 131.454  19.512  1.00  0.00    -0.201 NA
ATOM     13  C   UNL     1      44.008 131.491  21.625  1.00  0.00     0.267 C 
ATOM     14  C   UNL     1      42.094 132.009  20.530  1.00  0.00     0.204 C 
ATOM     15  O   UNL     1      42.671 131.877  21.818  1.00  0.00    -0.333 OA
ATOM     16  H   UNL     1      42.606 130.526  19.219  1.00  0.00     0.151 HD
ATOM     17  C   UNL     1      41.833 133.482  20.234  1.00  0.00     0.058 C 
BRANCH  13  18
ATOM     18  C   UNL     1      44.314 130.262  22.441  1.00  0.00     0.005 A 
ATOM     19  C   UNL     1      44.151 130.282  23.850  1.00  0.00     0.009 A 
ATOM     20  C   UNL     1      44.795 129.092  21.808  1.00  0.00     0.035 A 
ATOM     21  C   UNL     1      44.456 129.148  24.624  1.00  0.00     0.011 A 
ATOM     22  C   UNL     1      45.085 127.986  22.605  1.00  0.00     0.046 A 
ATOM     23  C   UNL     1      44.921 128.014  23.964  1.00  0.00    -0.000 A 
ATOM     24  N   UNL     1      45.558 126.795  22.204  1.00  0.00    -0.359 N 
ATOM     25  C   UNL     1      45.305 126.785  24.455  1.00  0.00     0.031 A 
ATOM     26  C   UNL     1      45.683 126.056  23.330  1.00  0.00     0.013 A 
ATOM     27  H   UNL     1      45.792 126.504  21.228  1.00  0.00     0.166 HD
ATOM     28  C   UNL     1      46.246 124.672  23.356  1.00  0.00     0.064 C 
ENDBRANCH  13  18
ENDBRANCH   1  11
TORSDOF 4
ENDMDL
MODEL 4
REMARK VINA RESULT:      -6.0      1.026      1.058
REMARK SMILES [H]/N=c1\[nH]c(C(=O)N2N[C@H](C)O[C@H]2c2ccc3cc(C)[nH]c3c2)cs1
REMARK SMILES IDX 6 1 7 2 5 3 3 4 25 5 4 6 24 7 2 9 1 10 8 11 9 12 13 13 10 14
REMARK SMILES IDX 12 15 11 17 14 18 15 19 23 20 16 21 22 22 17 23 21 24 18 25
REMARK SMILES IDX 19 26 20 28
REMARK H PARENT 4 8 9 16 21 27
ROOT
ATOM      1  C   UNL     1      45.122 130.906  20.003  1.00  0.00     0.288 C 
ATOM      2  O   UNL     1      46.345 130.854  19.700  1.00  0.00    -0.266 OA
ENDROOT
BRANCH   1   3
ATOM      3  C   UNL     1      44.659 130.229  21.228  1.00  0.00     0.118 A 
ATOM      4  C   UNL     1      43.389 129.904  23.053  1.00  0.00     0.179 A 
ATOM      5  S   UNL     1      44.504 128.658  23.172  1.00  0.00    -0.105 S 
ATOM      6  N   UNL     1      43.599 130.671  21.961  1.00  0.00    -0.327 N 
ATOM      7  C   UNL     1      45.307 129.113  21.761  1.00  0.00     0.100 A 
ATOM      8  H   UNL     1      43.044 131.527  21.741  1.00  0.00     0.169 HD
BRANCH   4   9
ATOM      9  N   UNL     1      42.447 130.122  23.912  1.00  0.00    -0.275 NA
ATOM     10  H   UNL     1      42.591 130.760  24.727  1.00  0.00     0.190 HD
ENDBRANCH   4   9
ENDBRANCH   1   3
BRANCH   1  11
ATOM     11  N   UNL     1      44.206 131.606  19.143  1.00  0.00    -0.237 N 
ATOM     12  N   UNL     1      43.414 132.655  19.599  1.00  0.00    -0.201 NA
ATOM     13  C   UNL     1      43.713 131.064  17.901  1.00  0.00     0.267 C 
ATOM     14  C   UNL     1      42.319 132.695  18.627  1.00  0.00     0.204 C 
ATOM     15  O   UNL     1      42.599 131.838  17.534  1.00  0.00    -0.333 OA
ATOM     16  H   UNL     1      43.972 133.533  19.489  1.00  0.00     0.151 HD
ATOM     17  C   UNL     1      41.021 132.259  19.299  1.00  0.00     0.058 C 
BRANCH  13  18
ATOM     18  C   UNL     1      44.775 131.150  16.835  1.00  0.00     0.005 A 
ATOM     19  C   UNL     1      45.124 132.405  16.275  1.00  0.00     0.009 A 
ATOM     20  C   UNL     1      45.407 129.973  16.368  1.00  0.00     0.035 A 
ATOM     21  C   UNL     1      46.097 132.493  15.263  1.00  0.00     0.011 A 
ATOM     22  C   UNL     1      46.368 130.098  15.367  1.00  0.00     0.046 A 
ATOM     23  C   UNL     1      46.700 131.315  14.834  1.00  0.00    -0.000 A 
ATOM     24  N   UNL     1      47.069 129.112  14.784  1.00  0.00    -0.359 N 
ATOM     25  C   UNL     1      47.658 131.098  13.867  1.00  0.00     0.031 A 
ATOM     26  C   UNL     1      47.866 129.720  13.875  1.00  0.00     0.013 A 
ATOM     27  H   UNL     1      47.004 128.088  14.982  1.00  0.00     0.166 HD
ATOM     28  C   UNL     1      48.773 128.986  12.944  1.00  0.00     0.064 C 
ENDBRANCH  13  18
ENDBRANCH   1  11
TORSDOF 4
ENDMDL
MODEL 5
REMARK VINA RESULT:      -5.3      2.928      7.241
REMARK SMILES [H]/N=c1\[nH]c(C(=O)N2N[C@H](C)O[C@H]2c2ccc3cc(C)[nH]c3c2)cs1
REMARK SMILES IDX 6 1 7 2 5 3 3 4 25 5 4 6 24 7 2 9 1 10 8 11 9 12 13 13 10 14
REMARK SMILES IDX 12 15 11 17 14 18 15 19 23 20 16 21 22 22 17 23 21 24 18 25
REMARK SMILES IDX 19 26 20 28
REMARK H PARENT 4 8 9 16 21 27
ROOT
ATOM      1  C   UNL     1      46.287 130.085  16.142  1.00  0.00     0.288 C 
ATOM      2  O   UNL     1      46.825 129.554  17.151  1.00  0.00    -0.266 OA
ENDROOT
BRANCH   1   3
ATOM      3  C   UNL     1      47.061 130.189  14.892  1.00  0.00     0.118 A 
ATOM      4  C   UNL     1      48.548 129.565  13.326  1.00  0.00     0.179 A 
ATOM      5  S   UNL     1      48.045 131.062  12.760  1.00  0.00    -0.105 S 
ATOM      6  N   UNL     1      47.939 129.230  14.483  1.00  0.00    -0.327 N 
ATOM      7  C   UNL     1      46.995 131.306  14.057  1.00  0.00     0.100 A 
ATOM      8  H   UNL     1      48.157 128.362  15.021  1.00  0.00     0.169 HD
BRANCH   4   9
ATOM      9  N   UNL     1      49.428 128.823  12.736  1.00  0.00    -0.275 NA
ATOM     10  H   UNL     1      49.898 129.133  11.856  1.00  0.00     0.190 HD
ENDBRANCH   4   9
ENDBRANCH   1   3
BRANCH   1  11
ATOM     11  N   UNL     1      44.943 130.588  16.235  1.00  0.00    -0.237 N 
ATOM     12  N   UNL     1      43.944 130.207  15.346  1.00  0.00    -0.201 NA
ATOM     13  C   UNL     1      44.597 131.797  16.942  1.00  0.00     0.267 C 
ATOM     14  C   UNL     1      42.971 131.297  15.447  1.00  0.00     0.204 C 
ATOM     15  O   UNL     1      43.307 132.159  16.521  1.00  0.00    -0.333 OA
ATOM     16  H   UNL     1      43.499 129.343  15.734  1.00  0.00     0.151 HD
ATOM     17  C   UNL     1      42.951 132.089  14.144  1.00  0.00     0.058 C 
BRANCH  13  18
ATOM     18  C   UNL     1      44.606 131.552  18.429  1.00  0.00     0.005 A 
ATOM     19  C   UNL     1      45.723 130.928  19.043  1.00  0.00     0.009 A 
ATOM     20  C   UNL     1      43.487 131.916  19.215  1.00  0.00     0.035 A 
ATOM     21  C   UNL     1      45.732 130.673  20.426  1.00  0.00     0.011 A 
ATOM     22  C   UNL     1      43.531 131.650  20.582  1.00  0.00     0.046 A 
ATOM     23  C   UNL     1      44.615 131.051  21.166  1.00  0.00    -0.000 A 
ATOM     24  N   UNL     1      42.576 131.905  21.492  1.00  0.00    -0.359 N 
ATOM     25  C   UNL     1      44.343 130.916  22.510  1.00  0.00     0.031 A 
ATOM     26  C   UNL     1      43.073 131.468  22.672  1.00  0.00     0.013 A 
ATOM     27  H   UNL     1      41.641 132.339  21.322  1.00  0.00     0.166 HD
ATOM     28  C   UNL     1      42.308 131.494  23.955  1.00  0.00     0.064 C 
ENDBRANCH  13  18
ENDBRANCH   1  11
TORSDOF 4
ENDMDL
MODEL 6
REMARK VINA RESULT:      -5.0      1.342      1.861
REMARK SMILES [H]/N=c1\[nH]c(C(=O)N2N[C@H](C)O[C@H]2c2ccc3cc(C)[nH]c3c2)cs1
REMARK SMILES IDX 6 1 7 2 5 3 3 4 25 5 4 6 24 7 2 9 1 10 8 11 9 12 13 13 10 14
REMARK SMILES IDX 12 15 11 17 14 18 15 19 23 20 16 21 22 22 17 23 21 24 18 25
REMARK SMILES IDX 19 26 20 28
REMARK H PARENT 4 8 9 16 21 27
ROOT
ATOM      1  C   UNL     1      45.161 131.605  20.908  1.00  0.00     0.288 C 
ATOM      2  O   UNL     1      46.338 132.058  20.939  1.00  0.00    -0.266 OA
ENDROOT
BRANCH   1   3
ATOM      3  C   UNL     1      44.758 130.595  21.903  1.00  0.00     0.118 A 
ATOM      4  C   UNL     1      44.675 128.568  22.871  1.00  0.00     0.179 A 
ATOM      5  S   UNL     1      43.615 129.456  23.819  1.00  0.00    -0.105 S 
ATOM      6  N   UNL     1      45.209 129.310  21.876  1.00  0.00    -0.327 N 
ATOM      7  C   UNL     1      43.839 130.865  22.919  1.00  0.00     0.100 A 
ATOM      8  H   UNL     1      45.849 128.924  21.148  1.00  0.00     0.169 HD
BRANCH   4   9
ATOM      9  N   UNL     1      44.940 127.316  23.054  1.00  0.00    -0.275 NA
ATOM     10  H   UNL     1      45.018 126.912  24.015  1.00  0.00     0.190 HD
ENDBRANCH   4   9
ENDBRANCH   1   3
BRANCH   1  11
ATOM     11  N   UNL     1      44.247 132.070  19.900  1.00  0.00    -0.237 N 
ATOM     12  N   UNL     1      43.561 133.274  20.017  1.00  0.00    -0.201 NA
ATOM     13  C   UNL     1      43.642 131.203  18.919  1.00  0.00     0.267 C 
ATOM     14  C   UNL     1      42.415 133.095  19.124  1.00  0.00     0.204 C 
ATOM     15  O   UNL     1      42.566 131.911  18.359  1.00  0.00    -0.333 OA
ATOM     16  H   UNL     1      44.173 134.018  19.609  1.00  0.00     0.151 HD
ATOM     17  C   UNL     1      41.133 133.012  19.945  1.00  0.00     0.058 C 
BRANCH  13  18
ATOM     18  C   UNL     1      44.642 130.849  17.848  1.00  0.00     0.005 A 
ATOM     19  C   UNL     1      45.690 129.934  18.123  1.00  0.00     0.009 A 
ATOM     20  C   UNL     1      44.557 131.454  16.571  1.00  0.00     0.035 A 
ATOM     21  C   UNL     1      46.642 129.615  17.138  1.00  0.00     0.011 A 
ATOM     22  C   UNL     1      45.516 131.113  15.619  1.00  0.00     0.046 A 
ATOM     23  C   UNL     1      46.521 130.225  15.894  1.00  0.00    -0.000 A 
ATOM     24  N   UNL     1      45.617 131.579  14.364  1.00  0.00    -0.359 N 
ATOM     25  C   UNL     1      47.301 130.117  14.763  1.00  0.00     0.031 A 
ATOM     26  C   UNL     1      46.700 130.965  13.834  1.00  0.00     0.013 A 
ATOM     27  H   UNL     1      44.997 132.279  13.897  1.00  0.00     0.166 HD
ATOM     28  C   UNL     1      47.225 131.243  12.464  1.00  0.00     0.064 C 
ENDBRANCH  13  18
ENDBRANCH   1  11
TORSDOF 4
ENDMDL
MODEL 7
REMARK VINA RESULT:      -5.0      7.586     10.600
REMARK SMILES [H]/N=c1\[nH]c(C(=O)N2N[C@H](C)O[C@H]2c2ccc3cc(C)[nH]c3c2)cs1
REMARK SMILES IDX 6 1 7 2 5 3 3 4 25 5 4 6 24 7 2 9 1 10 8 11 9 12 13 13 10 14
REMARK SMILES IDX 12 15 11 17 14 18 15 19 23 20 16 21 22 22 17 23 21 24 18 25
REMARK SMILES IDX 19 26 20 28
REMARK H PARENT 4 8 9 16 21 27
ROOT
ATOM      1  C   UNL     1      50.179 123.844  19.613  1.00  0.00     0.288 C 
ATOM      2  O   UNL     1      49.062 123.290  19.423  1.00  0.00    -0.266 OA
ENDROOT
BRANCH   1   3
ATOM      3  C   UNL     1      51.192 123.795  18.543  1.00  0.00     0.118 A 
ATOM      4  C   UNL     1      52.766 124.595  17.153  1.00  0.00     0.179 A 
ATOM      5  S   UNL     1      52.629 123.000  16.652  1.00  0.00    -0.105 S 
ATOM      6  N   UNL     1      51.929 124.880  18.173  1.00  0.00    -0.327 N 
ATOM      7  C   UNL     1      51.435 122.645  17.790  1.00  0.00     0.100 A 
ATOM      8  H   UNL     1      51.828 125.832  18.589  1.00  0.00     0.169 HD
BRANCH   4   9
ATOM      9  N   UNL     1      53.566 125.459  16.617  1.00  0.00    -0.275 NA
ATOM     10  H   UNL     1      54.479 125.703  17.063  1.00  0.00     0.190 HD
ENDBRANCH   4   9
ENDBRANCH   1   3
BRANCH   1  11
ATOM     11  N   UNL     1      50.445 124.495  20.868  1.00  0.00    -0.237 N 
ATOM     12  N   UNL     1      51.385 125.512  20.992  1.00  0.00    -0.201 NA
ATOM     13  C   UNL     1      50.109 123.918  22.147  1.00  0.00     0.267 C 
ATOM     14  C   UNL     1      51.713 125.494  22.419  1.00  0.00     0.204 C 
ATOM     15  O   UNL     1      50.825 124.638  23.118  1.00  0.00    -0.333 OA
ATOM     16  H   UNL     1      50.893 126.413  20.788  1.00  0.00     0.151 HD
ATOM     17  C   UNL     1      53.146 125.009  22.610  1.00  0.00     0.058 C 
BRANCH  13  18
ATOM     18  C   UNL     1      48.629 124.038  22.401  1.00  0.00     0.005 A 
ATOM     19  C   UNL     1      47.784 122.909  22.247  1.00  0.00     0.009 A 
ATOM     20  C   UNL     1      48.071 125.287  22.763  1.00  0.00     0.035 A 
ATOM     21  C   UNL     1      46.397 123.016  22.458  1.00  0.00     0.011 A 
ATOM     22  C   UNL     1      46.694 125.356  22.966  1.00  0.00     0.046 A 
ATOM     23  C   UNL     1      45.887 124.259  22.820  1.00  0.00    -0.000 A 
ATOM     24  N   UNL     1      45.974 126.439  23.302  1.00  0.00    -0.359 N 
ATOM     25  C   UNL     1      44.592 124.658  23.073  1.00  0.00     0.031 A 
ATOM     26  C   UNL     1      44.692 126.014  23.378  1.00  0.00     0.013 A 
ATOM     27  H   UNL     1      46.328 127.410  23.459  1.00  0.00     0.166 HD
ATOM     28  C   UNL     1      43.534 126.915  23.660  1.00  0.00     0.064 C 
ENDBRANCH  13  18
ENDBRANCH   1  11
TORSDOF 4
ENDMDL
MODEL 8
REMARK VINA RESULT:      -5.0      1.134      1.376
REMARK SMILES [H]/N=c1\[nH]c(C(=O)N2N[C@H](C)O[C@H]2c2ccc3cc(C)[nH]c3c2)cs1
REMARK SMILES IDX 6 1 7 2 5 3 3 4 25 5 4 6 24 7 2 9 1 10 8 11 9 12 13 13 10 14
REMARK SMILES IDX 12 15 11 17 14 18 15 19 23 20 16 21 22 22 17 23 21 24 18 25
REMARK SMILES IDX 19 26 20 28
REMARK H PARENT 4 8 9 16 21 27
ROOT
ATOM      1  C   UNL     1      45.241 130.676  20.343  1.00  0.00     0.288 C 
ATOM      2  O   UNL     1      46.380 130.314  19.940  1.00  0.00    -0.266 OA
ENDROOT
BRANCH   1   3
ATOM      3  C   UNL     1      44.767 130.206  21.658  1.00  0.00     0.118 A 
ATOM      4  C   UNL     1      43.751 130.348  23.657  1.00  0.00     0.179 A 
ATOM      5  S   UNL     1      44.384 128.796  23.692  1.00  0.00    -0.105 S 
ATOM      6  N   UNL     1      44.041 130.989  22.505  1.00  0.00    -0.327 N 
ATOM      7  C   UNL     1      45.072 128.939  22.159  1.00  0.00     0.100 A 
ATOM      8  H   UNL     1      43.781 131.982  22.314  1.00  0.00     0.169 HD
BRANCH   4   9
ATOM      9  N   UNL     1      43.077 130.881  24.625  1.00  0.00    -0.275 NA
ATOM     10  H   UNL     1      43.556 131.327  25.439  1.00  0.00     0.190 HD
ENDBRANCH   4   9
ENDBRANCH   1   3
BRANCH   1  11
ATOM     11  N   UNL     1      44.428 131.521  19.512  1.00  0.00    -0.237 N 
ATOM     12  N   UNL     1      44.054 132.804  19.897  1.00  0.00    -0.201 NA
ATOM     13  C   UNL     1      43.596 131.019  18.445  1.00  0.00     0.267 C 
ATOM     14  C   UNL     1      42.865 133.065  19.082  1.00  0.00     0.204 C 
ATOM     15  O   UNL     1      42.700 132.047  18.110  1.00  0.00    -0.333 OA
ATOM     16  H   UNL     1      44.810 133.453  19.578  1.00  0.00     0.151 HD
ATOM     17  C   UNL     1      41.632 133.121  19.978  1.00  0.00     0.058 C 
BRANCH  13  18
ATOM     18  C   UNL     1      44.441 130.659  17.250  1.00  0.00     0.005 A 
ATOM     19  C   UNL     1      44.553 129.307  16.837  1.00  0.00     0.009 A 
ATOM     20  C   UNL     1      45.150 131.666  16.554  1.00  0.00     0.035 A 
ATOM     21  C   UNL     1      45.358 128.957  15.737  1.00  0.00     0.011 A 
ATOM     22  C   UNL     1      45.936 131.284  15.469  1.00  0.00     0.046 A 
ATOM     23  C   UNL     1      46.035 129.976  15.075  1.00  0.00    -0.000 A 
ATOM     24  N   UNL     1      46.689 132.077  14.690  1.00  0.00    -0.359 N 
ATOM     25  C   UNL     1      46.890 129.930  13.995  1.00  0.00     0.031 A 
ATOM     26  C   UNL     1      47.265 131.255  13.782  1.00  0.00     0.013 A 
ATOM     27  H   UNL     1      46.814 133.111  14.774  1.00  0.00     0.166 HD
ATOM     28  C   UNL     1      48.246 131.712  12.753  1.00  0.00     0.064 C 
ENDBRANCH  13  18
ENDBRANCH   1  11
TORSDOF 4
ENDMDL
MODEL 9
REMARK VINA RESULT:      -4.6      1.800      2.342
REMARK SMILES [H]/N=c1\[nH]c(C(=O)N2N[C@H](C)O[C@H]2c2ccc3cc(C)[nH]c3c2)cs1
REMARK SMILES IDX 6 1 7 2 5 3 3 4 25 5 4 6 24 7 2 9 1 10 8 11 9 12 13 13 10 14
REMARK SMILES IDX 12 15 11 17 14 18 15 19 23 20 16 21 22 22 17 23 21 24 18 25
REMARK SMILES IDX 19 26 20 28
REMARK H PARENT 4 8 9 16 21 27
ROOT
ATOM      1  C   UNL     1      45.227 129.101  21.598  1.00  0.00     0.288 C 
ATOM      2  O   UNL     1      46.140 128.800  20.781  1.00  0.00    -0.266 OA
ENDROOT
BRANCH   1   3
ATOM      3  C   UNL     1      44.750 128.078  22.545  1.00  0.00     0.118 A 
ATOM      4  C   UNL     1      43.313 127.083  23.959  1.00  0.00     0.179 A 
ATOM      5  S   UNL     1      44.668 126.102  24.082  1.00  0.00    -0.105 S 
ATOM      6  N   UNL     1      43.506 128.108  23.101  1.00  0.00    -0.327 N 
ATOM      7  C   UNL     1      45.556 127.028  22.988  1.00  0.00     0.100 A 
ATOM      8  H   UNL     1      42.800 128.858  22.929  1.00  0.00     0.169 HD
BRANCH   4   9
ATOM      9  N   UNL     1      42.217 126.895  24.618  1.00  0.00    -0.275 NA
ATOM     10  H   UNL     1      42.081 127.295  25.573  1.00  0.00     0.190 HD
ENDBRANCH   4   9
ENDBRANCH   1   3
BRANCH   1  11
ATOM     11  N   UNL     1      44.664 130.424  21.578  1.00  0.00    -0.237 N 
ATOM     12  N   UNL     1      44.862 131.332  22.612  1.00  0.00    -0.201 NA
ATOM     13  C   UNL     1      43.545 130.796  20.746  1.00  0.00     0.267 C 
ATOM     14  C   UNL     1      43.741 132.263  22.461  1.00  0.00     0.204 C 
ATOM     15  O   UNL     1      43.055 132.014  21.246  1.00  0.00    -0.333 OA
ATOM     16  H   UNL     1      45.743 131.854  22.400  1.00  0.00     0.151 HD
ATOM     17  C   UNL     1      42.780 132.102  23.633  1.00  0.00     0.058 C 
BRANCH  13  18
ATOM     18  C   UNL     1      43.991 130.966  19.317  1.00  0.00     0.005 A 
ATOM     19  C   UNL     1      43.225 131.753  18.419  1.00  0.00     0.009 A 
ATOM     20  C   UNL     1      45.159 130.314  18.856  1.00  0.00     0.035 A 
ATOM     21  C   UNL     1      43.618 131.899  17.077  1.00  0.00     0.011 A 
ATOM     22  C   UNL     1      45.520 130.482  17.521  1.00  0.00     0.046 A 
ATOM     23  C   UNL     1      44.776 131.248  16.663  1.00  0.00    -0.000 A 
ATOM     24  N   UNL     1      46.577 129.945  16.890  1.00  0.00    -0.359 N 
ATOM     25  C   UNL     1      45.385 131.199  15.427  1.00  0.00     0.031 A 
ATOM     26  C   UNL     1      46.503 130.390  15.614  1.00  0.00     0.013 A 
ATOM     27  H   UNL     1      47.299 129.308  17.296  1.00  0.00     0.166 HD
ATOM     28  C   UNL     1      47.452 129.979  14.536  1.00  0.00     0.064 C 
ENDBRANCH  13  18
ENDBRANCH   1  11
TORSDOF 4
ENDMDL


