MODEL 1
REMARK VINA RESULT:      -5.3      0.000      0.000
REMARK SMILES O=C([N-]c1ccc(Br)[nH+]c1Cl)N(c1cc2ccccc2[nH]1)c1cn2ccccc2[nH+]1
REMARK SMILES IDX 1 1 2 2 3 3 4 4 5 5 10 6 6 7 9 8 7 9 11 10 8 12 12 13 13 14
REMARK SMILES IDX 14 15 21 16 15 17 20 18 16 19 19 20 17 21 18 22 22 24 23 25
REMARK SMILES IDX 30 26 24 27 29 28 25 29 28 30 26 31 27 32
REMARK H PARENT 9 11 21 23 30 33
ROOT
ATOM      1  O   UNL     1      45.327 128.399  23.945  1.00  0.00    -0.254 OA
ATOM      2  C   UNL     1      45.201 127.838  22.824  1.00  0.00     0.312 C 
ENDROOT
BRANCH   2   3
ATOM      3  N   UNL     1      45.226 128.646  21.640  1.00  0.00    -0.360 NA
BRANCH   3   4
ATOM      4  C   UNL     1      44.384 129.782  21.393  1.00  0.00     0.050 A 
ATOM      5  C   UNL     1      43.232 130.017  22.159  1.00  0.00     0.019 A 
ATOM      6  C   UNL     1      44.717 130.692  20.376  1.00  0.00     0.277 A 
ATOM      7  C   UNL     1      42.419 131.114  21.878  1.00  0.00     0.088 A 
ATOM      8  N   UNL     1      43.906 131.757  20.121  1.00  0.00    -0.189 N 
ATOM      9  C   UNL     1      42.771 131.980  20.841  1.00  0.00     0.247 A 
ATOM     10  Cl  UNL     1      46.153 130.445  19.392  1.00  0.00    -0.011 Cl
ATOM     11  H   UNL     1      44.157 132.417  19.352  1.00  0.00     0.456 HD
ATOM     12  Br  UNL     1      41.661 133.481  20.437  1.00  0.00     0.027 Br
ENDBRANCH   3   4
ENDBRANCH   2   3
BRANCH   2  13
ATOM     13  N   UNL     1      45.083 126.403  22.752  1.00  0.00    -0.176 N 
BRANCH  13  14
ATOM     14  C   UNL     1      43.802 125.775  22.949  1.00  0.00     0.178 A 
ATOM     15  C   UNL     1      43.030 125.876  24.105  1.00  0.00     0.073 A 
ATOM     16  N   UNL     1      43.190 125.009  22.013  1.00  0.00    -0.328 N 
ATOM     17  C   UNL     1      41.901 125.133  23.838  1.00  0.00     0.003 A 
ATOM     18  C   UNL     1      42.031 124.624  22.571  1.00  0.00     0.048 A 
ATOM     19  C   UNL     1      40.779 124.875  24.623  1.00  0.00     0.010 A 
ATOM     20  C   UNL     1      41.045 123.818  22.002  1.00  0.00     0.027 A 
ATOM     21  C   UNL     1      39.767 124.066  24.075  1.00  0.00     0.001 A 
ATOM     22  C   UNL     1      39.899 123.539  22.770  1.00  0.00     0.002 A 
ATOM     23  H   UNL     1      43.545 124.754  21.064  1.00  0.00     0.169 HD
ENDBRANCH  13  14
BRANCH  13  24
ATOM     24  C   UNL     1      46.246 125.595  22.494  1.00  0.00     0.267 A 
ATOM     25  C   UNL     1      46.303 124.208  22.558  1.00  0.00     0.249 A 
ATOM     26  N   UNL     1      47.485 126.098  22.278  1.00  0.00    -0.243 N 
ATOM     27  N   UNL     1      47.590 123.864  22.379  1.00  0.00    -0.233 N 
ATOM     28  C   UNL     1      48.275 125.010  22.216  1.00  0.00     0.230 A 
ATOM     29  C   UNL     1      48.172 122.639  22.389  1.00  0.00     0.168 A 
ATOM     30  C   UNL     1      49.657 125.000  22.043  1.00  0.00     0.081 A 
ATOM     31  C   UNL     1      49.562 122.567  22.212  1.00  0.00     0.035 A 
ATOM     32  C   UNL     1      50.302 123.753  22.038  1.00  0.00     0.010 A 
ATOM     33  H   UNL     1      47.773 127.100  22.231  1.00  0.00     0.267 HD
ENDBRANCH  13  24
ENDBRANCH   2  13
TORSDOF 5
ENDMDL
MODEL 2
REMARK VINA RESULT:      -5.3      3.369      7.777
REMARK SMILES O=C([N-]c1ccc(Br)[nH+]c1Cl)N(c1cc2ccccc2[nH]1)c1cn2ccccc2[nH+]1
REMARK SMILES IDX 1 1 2 2 3 3 4 4 5 5 10 6 6 7 9 8 7 9 11 10 8 12 12 13 13 14
REMARK SMILES IDX 14 15 21 16 15 17 20 18 16 19 19 20 17 21 18 22 22 24 23 25
REMARK SMILES IDX 30 26 24 27 29 28 25 29 28 30 26 31 27 32
REMARK H PARENT 9 11 21 23 30 33
ROOT
ATOM      1  O   UNL     1      46.496 122.780  23.425  1.00  0.00    -0.254 OA
ATOM      2  C   UNL     1      46.117 123.655  22.600  1.00  0.00     0.312 C 
ENDROOT
BRANCH   2   3
ATOM      3  N   UNL     1      45.005 123.363  21.744  1.00  0.00    -0.360 NA
BRANCH   3   4
ATOM      4  C   UNL     1      43.627 123.358  22.146  1.00  0.00     0.050 A 
ATOM      5  C   UNL     1      42.611 123.776  21.273  1.00  0.00     0.019 A 
ATOM      6  C   UNL     1      43.274 122.915  23.431  1.00  0.00     0.277 A 
ATOM      7  C   UNL     1      41.284 123.786  21.700  1.00  0.00     0.088 A 
ATOM      8  N   UNL     1      41.969 122.933  23.825  1.00  0.00    -0.189 N 
ATOM      9  C   UNL     1      40.978 123.362  22.994  1.00  0.00     0.247 A 
ATOM     10  Cl  UNL     1      44.510 122.375  24.560  1.00  0.00    -0.011 Cl
ATOM     11  H   UNL     1      41.723 122.615  24.789  1.00  0.00     0.456 HD
ATOM     12  Br  UNL     1      39.166 123.380  23.598  1.00  0.00     0.027 Br
ENDBRANCH   3   4
ENDBRANCH   2   3
BRANCH   2  13
ATOM     13  N   UNL     1      46.774 124.938  22.568  1.00  0.00    -0.176 N 
BRANCH  13  14
ATOM     14  C   UNL     1      48.197 125.013  22.357  1.00  0.00     0.178 A 
ATOM     15  C   UNL     1      49.063 125.872  23.034  1.00  0.00     0.073 A 
ATOM     16  N   UNL     1      48.867 124.240  21.468  1.00  0.00    -0.328 N 
ATOM     17  C   UNL     1      50.308 125.589  22.519  1.00  0.00     0.003 A 
ATOM     18  C   UNL     1      50.154 124.603  21.578  1.00  0.00     0.048 A 
ATOM     19  C   UNL     1      51.557 126.133  22.816  1.00  0.00     0.010 A 
ATOM     20  C   UNL     1      51.241 124.094  20.867  1.00  0.00     0.027 A 
ATOM     21  C   UNL     1      52.672 125.638  22.116  1.00  0.00     0.001 A 
ATOM     22  C   UNL     1      52.515 124.623  21.145  1.00  0.00     0.002 A 
ATOM     23  H   UNL     1      48.470 123.523  20.820  1.00  0.00     0.169 HD
ENDBRANCH  13  14
BRANCH  13  24
ATOM     24  C   UNL     1      46.013 126.145  22.757  1.00  0.00     0.267 A 
ATOM     25  C   UNL     1      45.861 127.165  21.825  1.00  0.00     0.249 A 
ATOM     26  N   UNL     1      45.444 126.506  23.931  1.00  0.00    -0.243 N 
ATOM     27  N   UNL     1      45.194 128.155  22.440  1.00  0.00    -0.233 N 
ATOM     28  C   UNL     1      44.957 127.739  23.696  1.00  0.00     0.230 A 
ATOM     29  C   UNL     1      44.828 129.376  21.976  1.00  0.00     0.168 A 
ATOM     30  C   UNL     1      44.306 128.560  24.614  1.00  0.00     0.081 A 
ATOM     31  C   UNL     1      44.162 130.245  22.854  1.00  0.00     0.035 A 
ATOM     32  C   UNL     1      43.902 129.831  24.175  1.00  0.00     0.010 A 
ATOM     33  H   UNL     1      45.436 125.978  24.832  1.00  0.00     0.267 HD
ENDBRANCH  13  24
ENDBRANCH   2  13
TORSDOF 5
ENDMDL
MODEL 3
REMARK VINA RESULT:      -4.8      4.393      7.109
REMARK SMILES O=C([N-]c1ccc(Br)[nH+]c1Cl)N(c1cc2ccccc2[nH]1)c1cn2ccccc2[nH+]1
REMARK SMILES IDX 1 1 2 2 3 3 4 4 5 5 10 6 6 7 9 8 7 9 11 10 8 12 12 13 13 14
REMARK SMILES IDX 14 15 21 16 15 17 20 18 16 19 19 20 17 21 18 22 22 24 23 25
REMARK SMILES IDX 30 26 24 27 29 28 25 29 28 30 26 31 27 32
REMARK H PARENT 9 11 21 23 30 33
ROOT
ATOM      1  O   UNL     1      45.023 132.933  22.553  1.00  0.00    -0.254 OA
ATOM      2  C   UNL     1      45.670 132.542  21.544  1.00  0.00     0.312 C 
ENDROOT
BRANCH   2   3
ATOM      3  N   UNL     1      46.782 133.324  21.091  1.00  0.00    -0.360 NA
BRANCH   3   4
ATOM      4  C   UNL     1      47.858 133.794  21.917  1.00  0.00     0.050 A 
ATOM      5  C   UNL     1      48.480 132.953  22.853  1.00  0.00     0.019 A 
ATOM      6  C   UNL     1      48.316 135.114  21.786  1.00  0.00     0.277 A 
ATOM      7  C   UNL     1      49.504 133.445  23.661  1.00  0.00     0.088 A 
ATOM      8  N   UNL     1      49.320 135.572  22.587  1.00  0.00    -0.189 N 
ATOM      9  C   UNL     1      49.912 134.772  23.517  1.00  0.00     0.247 A 
ATOM     10  Cl  UNL     1      47.573 136.206  20.624  1.00  0.00    -0.011 Cl
ATOM     11  H   UNL     1      49.639 136.561  22.490  1.00  0.00     0.456 HD
ATOM     12  Br  UNL     1      51.307 135.463  24.625  1.00  0.00     0.027 Br
ENDBRANCH   3   4
ENDBRANCH   2   3
BRANCH   2  13
ATOM     13  N   UNL     1      45.309 131.304  20.900  1.00  0.00    -0.176 N 
BRANCH  13  14
ATOM     14  C   UNL     1      44.983 130.148  21.695  1.00  0.00     0.178 A 
ATOM     15  C   UNL     1      45.497 128.867  21.494  1.00  0.00     0.073 A 
ATOM     16  N   UNL     1      44.131 130.176  22.748  1.00  0.00    -0.328 N 
ATOM     17  C   UNL     1      44.921 128.100  22.482  1.00  0.00     0.003 A 
ATOM     18  C   UNL     1      44.103 128.919  23.219  1.00  0.00     0.048 A 
ATOM     19  C   UNL     1      45.064 126.746  22.777  1.00  0.00     0.010 A 
ATOM     20  C   UNL     1      43.369 128.436  24.302  1.00  0.00     0.027 A 
ATOM     21  C   UNL     1      44.336 126.231  23.866  1.00  0.00     0.001 A 
ATOM     22  C   UNL     1      43.491 127.072  24.624  1.00  0.00     0.002 A 
ATOM     23  H   UNL     1      43.594 130.994  23.113  1.00  0.00     0.169 HD
ENDBRANCH  13  14
BRANCH  13  24
ATOM     24  C   UNL     1      45.283 131.217  19.464  1.00  0.00     0.267 A 
ATOM     25  C   UNL     1      44.304 131.751  18.634  1.00  0.00     0.249 A 
ATOM     26  N   UNL     1      46.155 130.481  18.734  1.00  0.00    -0.243 N 
ATOM     27  N   UNL     1      44.584 131.335  17.388  1.00  0.00    -0.233 N 
ATOM     28  C   UNL     1      45.691 130.578  17.473  1.00  0.00     0.230 A 
ATOM     29  C   UNL     1      43.915 131.553  16.228  1.00  0.00     0.168 A 
ATOM     30  C   UNL     1      46.227 129.960  16.346  1.00  0.00     0.081 A 
ATOM     31  C   UNL     1      44.412 130.962  15.057  1.00  0.00     0.035 A 
ATOM     32  C   UNL     1      45.572 130.164  15.121  1.00  0.00     0.010 A 
ATOM     33  H   UNL     1      46.964 129.918  19.075  1.00  0.00     0.267 HD
ENDBRANCH  13  24
ENDBRANCH   2  13
TORSDOF 5
ENDMDL
MODEL 4
REMARK VINA RESULT:      -4.8      4.479      7.983
REMARK SMILES O=C([N-]c1ccc(Br)[nH+]c1Cl)N(c1cc2ccccc2[nH]1)c1cn2ccccc2[nH+]1
REMARK SMILES IDX 1 1 2 2 3 3 4 4 5 5 10 6 6 7 9 8 7 9 11 10 8 12 12 13 13 14
REMARK SMILES IDX 14 15 21 16 15 17 20 18 16 19 19 20 17 21 18 22 22 24 23 25
REMARK SMILES IDX 30 26 24 27 29 28 25 29 28 30 26 31 27 32
REMARK H PARENT 9 11 21 23 30 33
ROOT
ATOM      1  O   UNL     1      42.435 131.855  21.705  1.00  0.00    -0.254 OA
ATOM      2  C   UNL     1      43.561 131.509  22.153  1.00  0.00     0.312 C 
ENDROOT
BRANCH   2   3
ATOM      3  N   UNL     1      43.619 130.768  23.378  1.00  0.00    -0.360 NA
BRANCH   3   4
ATOM      4  C   UNL     1      42.974 129.509  23.618  1.00  0.00     0.050 A 
ATOM      5  C   UNL     1      41.709 129.441  24.223  1.00  0.00     0.019 A 
ATOM      6  C   UNL     1      43.603 128.314  23.233  1.00  0.00     0.277 A 
ATOM      7  C   UNL     1      41.118 128.202  24.469  1.00  0.00     0.088 A 
ATOM      8  N   UNL     1      43.005 127.115  23.483  1.00  0.00    -0.189 N 
ATOM      9  C   UNL     1      41.790 127.037  24.093  1.00  0.00     0.247 A 
ATOM     10  Cl  UNL     1      45.186 128.346  22.467  1.00  0.00    -0.011 Cl
ATOM     11  H   UNL     1      43.492 126.234  23.206  1.00  0.00     0.456 HD
ATOM     12  Br  UNL     1      40.998 125.332  24.434  1.00  0.00     0.027 Br
ENDBRANCH   3   4
ENDBRANCH   2   3
BRANCH   2  13
ATOM     13  N   UNL     1      44.754 131.822  21.406  1.00  0.00    -0.176 N 
BRANCH  13  14
ATOM     14  C   UNL     1      44.836 131.488  20.007  1.00  0.00     0.178 A 
ATOM     15  C   UNL     1      45.795 130.649  19.439  1.00  0.00     0.073 A 
ATOM     16  N   UNL     1      43.972 131.951  19.072  1.00  0.00    -0.328 N 
ATOM     17  C   UNL     1      45.479 130.615  18.099  1.00  0.00     0.003 A 
ATOM     18  C   UNL     1      44.378 131.410  17.912  1.00  0.00     0.048 A 
ATOM     19  C   UNL     1      46.087 129.940  17.042  1.00  0.00     0.010 A 
ATOM     20  C   UNL     1      43.809 131.587  16.651  1.00  0.00     0.027 A 
ATOM     21  C   UNL     1      45.533 130.097  15.758  1.00  0.00     0.001 A 
ATOM     22  C   UNL     1      44.400 130.918  15.563  1.00  0.00     0.002 A 
ATOM     23  H   UNL     1      43.169 132.605  19.213  1.00  0.00     0.169 HD
ENDBRANCH  13  14
BRANCH  13  24
ATOM     24  C   UNL     1      45.868 132.460  22.057  1.00  0.00     0.267 A 
ATOM     25  C   UNL     1      45.891 132.913  23.371  1.00  0.00     0.249 A 
ATOM     26  N   UNL     1      47.009 132.822  21.424  1.00  0.00    -0.243 N 
ATOM     27  N   UNL     1      47.058 133.558  23.537  1.00  0.00    -0.233 N 
ATOM     28  C   UNL     1      47.706 133.491  22.361  1.00  0.00     0.230 A 
ATOM     29  C   UNL     1      47.545 134.208  24.624  1.00  0.00     0.168 A 
ATOM     30  C   UNL     1      48.946 134.102  22.190  1.00  0.00     0.081 A 
ATOM     31  C   UNL     1      48.794 134.837  24.513  1.00  0.00     0.035 A 
ATOM     32  C   UNL     1      49.493 134.781  23.291  1.00  0.00     0.010 A 
ATOM     33  H   UNL     1      47.265 132.673  20.423  1.00  0.00     0.267 HD
ENDBRANCH  13  24
ENDBRANCH   2  13
TORSDOF 5
ENDMDL
MODEL 5
REMARK VINA RESULT:      -4.1      5.222      8.247
REMARK SMILES O=C([N-]c1ccc(Br)[nH+]c1Cl)N(c1cc2ccccc2[nH]1)c1cn2ccccc2[nH+]1
REMARK SMILES IDX 1 1 2 2 3 3 4 4 5 5 10 6 6 7 9 8 7 9 11 10 8 12 12 13 13 14
REMARK SMILES IDX 14 15 21 16 15 17 20 18 16 19 19 20 17 21 18 22 22 24 23 25
REMARK SMILES IDX 30 26 24 27 29 28 25 29 28 30 26 31 27 32
REMARK H PARENT 9 11 21 23 30 33
ROOT
ATOM      1  O   UNL     1      48.156 132.063  20.386  1.00  0.00    -0.254 OA
ATOM      2  C   UNL     1      47.076 132.275  21.000  1.00  0.00     0.312 C 
ENDROOT
BRANCH   2   3
ATOM      3  N   UNL     1      47.044 133.288  22.013  1.00  0.00    -0.360 NA
BRANCH   3   4
ATOM      4  C   UNL     1      48.192 133.962  22.551  1.00  0.00     0.050 A 
ATOM      5  C   UNL     1      48.938 133.406  23.602  1.00  0.00     0.019 A 
ATOM      6  C   UNL     1      48.596 135.194  22.014  1.00  0.00     0.277 A 
ATOM      7  C   UNL     1      50.032 134.096  24.122  1.00  0.00     0.088 A 
ATOM      8  N   UNL     1      49.670 135.849  22.538  1.00  0.00    -0.189 N 
ATOM      9  C   UNL     1      50.384 135.331  23.577  1.00  0.00     0.247 A 
ATOM     10  Cl  UNL     1      47.699 135.929  20.691  1.00  0.00    -0.011 Cl
ATOM     11  H   UNL     1      49.949 136.773  22.140  1.00  0.00     0.456 HD
ATOM     12  Br  UNL     1      51.875 136.294  24.286  1.00  0.00     0.027 Br
ENDBRANCH   3   4
ENDBRANCH   2   3
BRANCH   2  13
ATOM     13  N   UNL     1      45.893 131.533  20.640  1.00  0.00    -0.176 N 
BRANCH  13  14
ATOM     14  C   UNL     1      45.585 131.298  19.253  1.00  0.00     0.178 A 
ATOM     15  C   UNL     1      46.255 130.396  18.426  1.00  0.00     0.073 A 
ATOM     16  N   UNL     1      44.589 131.929  18.587  1.00  0.00    -0.328 N 
ATOM     17  C   UNL     1      45.618 130.500  17.209  1.00  0.00     0.003 A 
ATOM     18  C   UNL     1      44.621 131.432  17.340  1.00  0.00     0.048 A 
ATOM     19  C   UNL     1      45.852 129.838  16.005  1.00  0.00     0.010 A 
ATOM     20  C   UNL     1      43.790 131.769  16.273  1.00  0.00     0.027 A 
ATOM     21  C   UNL     1      45.027 130.156  14.910  1.00  0.00     0.001 A 
ATOM     22  C   UNL     1      44.001 131.119  15.043  1.00  0.00     0.002 A 
ATOM     23  H   UNL     1      43.939 132.661  18.954  1.00  0.00     0.169 HD
ENDBRANCH  13  14
BRANCH  13  24
ATOM     24  C   UNL     1      45.014 131.035  21.665  1.00  0.00     0.267 A 
ATOM     25  C   UNL     1      44.829 129.699  22.000  1.00  0.00     0.249 A 
ATOM     26  N   UNL     1      44.143 131.808  22.357  1.00  0.00    -0.243 N 
ATOM     27  N   UNL     1      43.836 129.660  22.904  1.00  0.00    -0.233 N 
ATOM     28  C   UNL     1      43.443 130.930  23.099  1.00  0.00     0.230 A 
ATOM     29  C   UNL     1      43.259 128.595  23.515  1.00  0.00     0.168 A 
ATOM     30  C   UNL     1      42.393 131.231  23.964  1.00  0.00     0.081 A 
ATOM     31  C   UNL     1      42.200 128.838  24.403  1.00  0.00     0.035 A 
ATOM     32  C   UNL     1      41.769 130.161  24.625  1.00  0.00     0.010 A 
ATOM     33  H   UNL     1      44.004 132.840  22.288  1.00  0.00     0.267 HD
ENDBRANCH  13  24
ENDBRANCH   2  13
TORSDOF 5
ENDMDL
MODEL 6
REMARK VINA RESULT:      -3.9      4.742      8.047
REMARK SMILES O=C([N-]c1ccc(Br)[nH+]c1Cl)N(c1cc2ccccc2[nH]1)c1cn2ccccc2[nH+]1
REMARK SMILES IDX 1 1 2 2 3 3 4 4 5 5 10 6 6 7 9 8 7 9 11 10 8 12 12 13 13 14
REMARK SMILES IDX 14 15 21 16 15 17 20 18 16 19 19 20 17 21 18 22 22 24 23 25
REMARK SMILES IDX 30 26 24 27 29 28 25 29 28 30 26 31 27 32
REMARK H PARENT 9 11 21 23 30 33
ROOT
ATOM      1  O   UNL     1      45.962 134.109  19.862  1.00  0.00    -0.254 OA
ATOM      2  C   UNL     1      46.120 133.142  20.655  1.00  0.00     0.312 C 
ENDROOT
BRANCH   2   3
ATOM      3  N   UNL     1      46.821 133.364  21.885  1.00  0.00    -0.360 NA
BRANCH   3   4
ATOM      4  C   UNL     1      47.901 134.292  22.070  1.00  0.00     0.050 A 
ATOM      5  C   UNL     1      48.206 135.258  21.098  1.00  0.00     0.019 A 
ATOM      6  C   UNL     1      48.664 134.252  23.247  1.00  0.00     0.277 A 
ATOM      7  C   UNL     1      49.278 136.128  21.293  1.00  0.00     0.088 A 
ATOM      8  N   UNL     1      49.707 135.114  23.414  1.00  0.00    -0.189 N 
ATOM      9  C   UNL     1      50.029 136.038  22.466  1.00  0.00     0.247 A 
ATOM     10  Cl  UNL     1      48.317 133.065  24.497  1.00  0.00    -0.011 Cl
ATOM     11  H   UNL     1      50.276 135.063  24.288  1.00  0.00     0.456 HD
ATOM     12  Br  UNL     1      51.507 137.216  22.742  1.00  0.00     0.027 Br
ENDBRANCH   3   4
ENDBRANCH   2   3
BRANCH   2  13
ATOM     13  N   UNL     1      45.556 131.855  20.332  1.00  0.00    -0.176 N 
BRANCH  13  14
ATOM     14  C   UNL     1      45.448 131.440  18.958  1.00  0.00     0.178 A 
ATOM     15  C   UNL     1      44.711 132.102  17.977  1.00  0.00     0.073 A 
ATOM     16  N   UNL     1      46.067 130.345  18.452  1.00  0.00    -0.328 N 
ATOM     17  C   UNL     1      44.907 131.361  16.832  1.00  0.00     0.003 A 
ATOM     18  C   UNL     1      45.727 130.310  17.154  1.00  0.00     0.048 A 
ATOM     19  C   UNL     1      44.419 131.544  15.540  1.00  0.00     0.010 A 
ATOM     20  C   UNL     1      46.115 129.367  16.203  1.00  0.00     0.027 A 
ATOM     21  C   UNL     1      44.795 130.609  14.558  1.00  0.00     0.001 A 
ATOM     22  C   UNL     1      45.639 129.524  14.888  1.00  0.00     0.002 A 
ATOM     23  H   UNL     1      46.670 129.660  18.962  1.00  0.00     0.169 HD
ENDBRANCH  13  14
BRANCH  13  24
ATOM     24  C   UNL     1      45.092 130.986  21.382  1.00  0.00     0.267 A 
ATOM     25  C   UNL     1      45.385 129.633  21.508  1.00  0.00     0.249 A 
ATOM     26  N   UNL     1      44.191 131.352  22.324  1.00  0.00    -0.243 N 
ATOM     27  N   UNL     1      44.654 129.173  22.537  1.00  0.00    -0.233 N 
ATOM     28  C   UNL     1      43.949 130.217  23.006  1.00  0.00     0.230 A 
ATOM     29  C   UNL     1      44.556 127.917  23.040  1.00  0.00     0.168 A 
ATOM     30  C   UNL     1      43.056 130.062  24.064  1.00  0.00     0.081 A 
ATOM     31  C   UNL     1      43.676 127.702  24.112  1.00  0.00     0.035 A 
ATOM     32  C   UNL     1      42.926 128.780  24.622  1.00  0.00     0.010 A 
ATOM     33  H   UNL     1      43.739 132.284  22.456  1.00  0.00     0.267 HD
ENDBRANCH  13  24
ENDBRANCH   2  13
TORSDOF 5
ENDMDL
MODEL 7
REMARK VINA RESULT:      -2.6      4.379      8.360
REMARK SMILES O=C([N-]c1ccc(Br)[nH+]c1Cl)N(c1cc2ccccc2[nH]1)c1cn2ccccc2[nH+]1
REMARK SMILES IDX 1 1 2 2 3 3 4 4 5 5 10 6 6 7 9 8 7 9 11 10 8 12 12 13 13 14
REMARK SMILES IDX 14 15 21 16 15 17 20 18 16 19 19 20 17 21 18 22 22 24 23 25
REMARK SMILES IDX 30 26 24 27 29 28 25 29 28 30 26 31 27 32
REMARK H PARENT 9 11 21 23 30 33
ROOT
ATOM      1  O   UNL     1      43.443 133.355  19.571  1.00  0.00    -0.254 OA
ATOM      2  C   UNL     1      43.958 132.225  19.781  1.00  0.00     0.312 C 
ENDROOT
BRANCH   2   3
ATOM      3  N   UNL     1      43.838 131.212  18.775  1.00  0.00    -0.360 NA
BRANCH   3   4
ATOM      4  C   UNL     1      44.556 131.187  17.532  1.00  0.00     0.050 A 
ATOM      5  C   UNL     1      43.997 131.712  16.357  1.00  0.00     0.019 A 
ATOM      6  C   UNL     1      45.848 130.641  17.481  1.00  0.00     0.277 A 
ATOM      7  C   UNL     1      44.707 131.649  15.158  1.00  0.00     0.088 A 
ATOM      8  N   UNL     1      46.523 130.592  16.298  1.00  0.00    -0.189 N 
ATOM      9  C   UNL     1      45.979 131.075  15.146  1.00  0.00     0.247 A 
ATOM     10  Cl  UNL     1      46.594 129.975  18.928  1.00  0.00    -0.011 Cl
ATOM     11  H   UNL     1      47.477 130.168  16.271  1.00  0.00     0.456 HD
ATOM     12  Br  UNL     1      46.960 130.971  13.509  1.00  0.00     0.027 Br
ENDBRANCH   3   4
ENDBRANCH   2   3
BRANCH   2  13
ATOM     13  N   UNL     1      44.693 131.991  20.999  1.00  0.00    -0.176 N 
BRANCH  13  14
ATOM     14  C   UNL     1      45.847 132.794  21.310  1.00  0.00     0.178 A 
ATOM     15  C   UNL     1      46.130 134.040  20.750  1.00  0.00     0.073 A 
ATOM     16  N   UNL     1      46.800 132.428  22.201  1.00  0.00    -0.328 N 
ATOM     17  C   UNL     1      47.310 134.430  21.344  1.00  0.00     0.003 A 
ATOM     18  C   UNL     1      47.686 133.437  22.211  1.00  0.00     0.048 A 
ATOM     19  C   UNL     1      48.069 135.587  21.177  1.00  0.00     0.010 A 
ATOM     20  C   UNL     1      48.852 133.532  22.971  1.00  0.00     0.027 A 
ATOM     21  C   UNL     1      49.250 135.712  21.932  1.00  0.00     0.001 A 
ATOM     22  C   UNL     1      49.640 134.688  22.824  1.00  0.00     0.002 A 
ATOM     23  H   UNL     1      46.850 131.543  22.755  1.00  0.00     0.169 HD
ENDBRANCH  13  14
BRANCH  13  24
ATOM     24  C   UNL     1      44.281 130.949  21.903  1.00  0.00     0.267 A 
ATOM     25  C   UNL     1      44.860 129.690  22.011  1.00  0.00     0.249 A 
ATOM     26  N   UNL     1      43.178 131.017  22.684  1.00  0.00    -0.243 N 
ATOM     27  N   UNL     1      44.100 128.986  22.866  1.00  0.00    -0.233 N 
ATOM     28  C   UNL     1      43.101 129.799  23.253  1.00  0.00     0.230 A 
ATOM     29  C   UNL     1      44.219 127.699  23.279  1.00  0.00     0.168 A 
ATOM     30  C   UNL     1      42.109 129.353  24.123  1.00  0.00     0.081 A 
ATOM     31  C   UNL     1      43.252 127.196  24.162  1.00  0.00     0.035 A 
ATOM     32  C   UNL     1      42.196 128.029  24.583  1.00  0.00     0.010 A 
ATOM     33  H   UNL     1      42.504 131.809  22.779  1.00  0.00     0.267 HD
ENDBRANCH  13  24
ENDBRANCH   2  13
TORSDOF 5
ENDMDL
MODEL 8
REMARK VINA RESULT:      -2.4      3.285      5.864
REMARK SMILES O=C([N-]c1ccc(Br)[nH+]c1Cl)N(c1cc2ccccc2[nH]1)c1cn2ccccc2[nH+]1
REMARK SMILES IDX 1 1 2 2 3 3 4 4 5 5 10 6 6 7 9 8 7 9 11 10 8 12 12 13 13 14
REMARK SMILES IDX 14 15 21 16 15 17 20 18 16 19 19 20 17 21 18 22 22 24 23 25
REMARK SMILES IDX 30 26 24 27 29 28 25 29 28 30 26 31 27 32
REMARK H PARENT 9 11 21 23 30 33
ROOT
ATOM      1  O   UNL     1      45.187 123.732  21.449  1.00  0.00    -0.254 OA
ATOM      2  C   UNL     1      45.142 124.300  22.573  1.00  0.00     0.312 C 
ENDROOT
BRANCH   2   3
ATOM      3  N   UNL     1      44.362 123.703  23.617  1.00  0.00    -0.360 NA
BRANCH   3   4
ATOM      4  C   UNL     1      42.946 123.471  23.566  1.00  0.00     0.050 A 
ATOM      5  C   UNL     1      42.107 123.849  24.625  1.00  0.00     0.019 A 
ATOM      6  C   UNL     1      42.377 122.866  22.435  1.00  0.00     0.277 A 
ATOM      7  C   UNL     1      40.739 123.586  24.559  1.00  0.00     0.088 A 
ATOM      8  N   UNL     1      41.036 122.620  22.393  1.00  0.00    -0.189 N 
ATOM      9  C   UNL     1      40.216 122.959  23.427  1.00  0.00     0.247 A 
ATOM     10  Cl  UNL     1      43.385 122.380  21.079  1.00  0.00    -0.011 Cl
ATOM     11  H   UNL     1      40.628 122.155  21.552  1.00  0.00     0.456 HD
ATOM     12  Br  UNL     1      38.346 122.582  23.327  1.00  0.00     0.027 Br
ENDBRANCH   3   4
ENDBRANCH   2   3
BRANCH   2  13
ATOM     13  N   UNL     1      45.907 125.501  22.799  1.00  0.00    -0.176 N 
BRANCH  13  14
ATOM     14  C   UNL     1      45.236 126.768  22.932  1.00  0.00     0.178 A 
ATOM     15  C   UNL     1      44.160 127.018  23.783  1.00  0.00     0.073 A 
ATOM     16  N   UNL     1      45.585 127.880  22.241  1.00  0.00    -0.328 N 
ATOM     17  C   UNL     1      43.860 128.347  23.586  1.00  0.00     0.003 A 
ATOM     18  C   UNL     1      44.736 128.836  22.651  1.00  0.00     0.048 A 
ATOM     19  C   UNL     1      42.880 129.151  24.165  1.00  0.00     0.010 A 
ATOM     20  C   UNL     1      44.690 130.164  22.228  1.00  0.00     0.027 A 
ATOM     21  C   UNL     1      42.810 130.497  23.760  1.00  0.00     0.001 A 
ATOM     22  C   UNL     1      43.711 131.001  22.794  1.00  0.00     0.002 A 
ATOM     23  H   UNL     1      46.342 127.976  21.527  1.00  0.00     0.169 HD
ENDBRANCH  13  14
BRANCH  13  24
ATOM     24  C   UNL     1      47.343 125.438  22.881  1.00  0.00     0.267 A 
ATOM     25  C   UNL     1      48.167 126.393  23.464  1.00  0.00     0.249 A 
ATOM     26  N   UNL     1      48.095 124.487  22.277  1.00  0.00    -0.243 N 
ATOM     27  N   UNL     1      49.433 126.019  23.211  1.00  0.00    -0.233 N 
ATOM     28  C   UNL     1      49.363 124.880  22.500  1.00  0.00     0.230 A 
ATOM     29  C   UNL     1      50.601 126.628  23.534  1.00  0.00     0.168 A 
ATOM     30  C   UNL     1      50.517 124.246  22.045  1.00  0.00     0.081 A 
ATOM     31  C   UNL     1      51.797 126.033  23.108  1.00  0.00     0.035 A 
ATOM     32  C   UNL     1      51.750 124.838  22.362  1.00  0.00     0.010 A 
ATOM     33  H   UNL     1      47.769 123.670  21.715  1.00  0.00     0.267 HD
ENDBRANCH  13  24
ENDBRANCH   2  13
TORSDOF 5
ENDMDL


