MODEL 1
REMARK VINA RESULT:      -9.7      0.000      0.000
REMARK SMILES O/C(=N\c1cc2cc(-c3[nH+]c[nH+]cc3F)[nH]c2cc1F)c1cc(F)c[nH]1
REMARK SMILES IDX 3 1 2 2 1 3 21 5 22 6 26 7 23 8 25 9 24 11 4 12 19 13 5 14
REMARK SMILES IDX 18 15 6 16 17 17 7 18 16 19 8 20 20 21 9 23 14 24 10 25
REMARK SMILES IDX 13 26 11 27 12 28 15 29
REMARK H PARENT 1 4 26 10 16 22 10 30 12 31
ROOT
ATOM      1  N   UNL     1      43.118 131.845  22.406  1.00  0.00    -0.209 NA
ENDROOT
BRANCH   1   2
ATOM      2  C   UNL     1      43.649 131.027  23.265  1.00  0.00     0.235 C 
BRANCH   2   3
ATOM      3  O   UNL     1      44.830 131.373  23.929  1.00  0.00    -0.492 OA
ATOM      4  H   UNL     1      45.742 131.272  23.506  1.00  0.00     0.295 HD
ENDBRANCH   2   3
BRANCH   2   5
ATOM      5  C   UNL     1      42.966 129.748  23.552  1.00  0.00     0.104 A 
ATOM      6  C   UNL     1      43.530 128.483  23.488  1.00  0.00     0.072 A 
ATOM      7  N   UNL     1      41.669 129.659  23.919  1.00  0.00    -0.355 N 
ATOM      8  C   UNL     1      42.522 127.609  23.833  1.00  0.00     0.141 A 
ATOM      9  C   UNL     1      41.393 128.353  24.092  1.00  0.00     0.122 A 
ATOM     10  H   UNL     1      40.996 130.447  24.046  1.00  0.00     0.166 HD
ATOM     11  F   UNL     1      42.623 126.260  23.904  1.00  0.00    -0.205 F 
ENDBRANCH   2   5
ENDBRANCH   1   2
BRANCH   1  12
ATOM     12  C   UNL     1      43.298 131.789  20.984  1.00  0.00     0.104 A 
ATOM     13  C   UNL     1      42.345 132.353  20.088  1.00  0.00     0.151 A 
ATOM     14  C   UNL     1      44.487 131.228  20.476  1.00  0.00     0.042 A 
ATOM     15  C   UNL     1      42.561 132.308  18.698  1.00  0.00     0.068 A 
ATOM     16  C   UNL     1      44.664 131.199  19.096  1.00  0.00     0.003 A 
ATOM     17  C   UNL     1      43.734 131.717  18.237  1.00  0.00     0.049 A 
ATOM     18  C   UNL     1      45.705 130.711  18.337  1.00  0.00     0.043 A 
ATOM     19  N   UNL     1      44.135 131.587  16.962  1.00  0.00    -0.349 N 
ATOM     20  C   UNL     1      45.340 130.966  17.013  1.00  0.00     0.116 A 
ATOM     21  F   UNL     1      41.244 132.990  20.559  1.00  0.00    -0.205 F 
ATOM     22  H   UNL     1      43.612 131.892  16.111  1.00  0.00     0.167 HD
BRANCH  20  23
ATOM     23  C   UNL     1      46.149 130.649  15.812  1.00  0.00     0.274 A 
ATOM     24  C   UNL     1      46.549 131.655  14.916  1.00  0.00     0.260 A 
ATOM     25  N   UNL     1      46.524 129.358  15.569  1.00  0.00    -0.151 N 
ATOM     26  C   UNL     1      47.310 131.297  13.803  1.00  0.00     0.358 A 
ATOM     27  C   UNL     1      47.265 129.035  14.476  1.00  0.00     0.629 A 
ATOM     28  N   UNL     1      47.652 129.999  13.601  1.00  0.00    -0.159 N 
ATOM     29  F   UNL     1      46.253 132.961  15.127  1.00  0.00    -0.193 F 
ATOM     30  H   UNL     1      46.229 128.590  16.211  1.00  0.00     0.460 HD
ATOM     31  H   UNL     1      48.222 129.739  12.765  1.00  0.00     0.459 HD
ENDBRANCH  20  23
ENDBRANCH   1  12
TORSDOF 5
ENDMDL
MODEL 2
REMARK VINA RESULT:      -8.9      1.452      1.672
REMARK SMILES O/C(=N\c1cc2cc(-c3[nH+]c[nH+]cc3F)[nH]c2cc1F)c1cc(F)c[nH]1
REMARK SMILES IDX 3 1 2 2 1 3 21 5 22 6 26 7 23 8 25 9 24 11 4 12 19 13 5 14
REMARK SMILES IDX 18 15 6 16 17 17 7 18 16 19 8 20 20 21 9 23 14 24 10 25
REMARK SMILES IDX 13 26 11 27 12 28 15 29
REMARK H PARENT 1 4 26 10 16 22 10 30 12 31
ROOT
ATOM      1  N   UNL     1      43.190 132.179  22.379  1.00  0.00    -0.209 NA
ENDROOT
BRANCH   1   2
ATOM      2  C   UNL     1      42.467 131.420  23.149  1.00  0.00     0.235 C 
BRANCH   2   3
ATOM      3  O   UNL     1      41.324 131.933  23.769  1.00  0.00    -0.492 OA
ATOM      4  H   UNL     1      40.667 132.533  23.289  1.00  0.00     0.295 HD
ENDBRANCH   2   3
BRANCH   2   5
ATOM      5  C   UNL     1      42.854 130.004  23.324  1.00  0.00     0.104 A 
ATOM      6  C   UNL     1      44.136 129.485  23.227  1.00  0.00     0.072 A 
ATOM      7  N   UNL     1      41.975 129.018  23.606  1.00  0.00    -0.355 N 
ATOM      8  C   UNL     1      44.008 128.133  23.462  1.00  0.00     0.141 A 
ATOM      9  C   UNL     1      42.676 127.873  23.691  1.00  0.00     0.122 A 
ATOM     10  H   UNL     1      40.943 129.114  23.734  1.00  0.00     0.166 HD
ATOM     11  F   UNL     1      45.012 127.224  23.466  1.00  0.00    -0.205 F 
ENDBRANCH   2   5
ENDBRANCH   1   2
BRANCH   1  12
ATOM     12  C   UNL     1      43.295 132.056  20.953  1.00  0.00     0.104 A 
ATOM     13  C   UNL     1      42.241 132.466  20.088  1.00  0.00     0.151 A 
ATOM     14  C   UNL     1      44.506 131.588  20.405  1.00  0.00     0.042 A 
ATOM     15  C   UNL     1      42.383 132.360  18.692  1.00  0.00     0.068 A 
ATOM     16  C   UNL     1      44.608 131.494  19.019  1.00  0.00     0.003 A 
ATOM     17  C   UNL     1      43.584 131.864  18.192  1.00  0.00     0.049 A 
ATOM     18  C   UNL     1      45.651 131.069  18.226  1.00  0.00     0.043 A 
ATOM     19  N   UNL     1      43.924 131.699  16.904  1.00  0.00    -0.349 N 
ATOM     20  C   UNL     1      45.188 131.206  16.915  1.00  0.00     0.116 A 
ATOM     21  F   UNL     1      41.107 133.017  20.591  1.00  0.00    -0.205 F 
ATOM     22  H   UNL     1      43.325 131.898  16.071  1.00  0.00     0.167 HD
BRANCH  20  23
ATOM     23  C   UNL     1      45.958 130.900  15.685  1.00  0.00     0.274 A 
ATOM     24  C   UNL     1      46.121 129.577  15.238  1.00  0.00     0.260 A 
ATOM     25  N   UNL     1      46.516 131.917  14.964  1.00  0.00    -0.151 N 
ATOM     26  C   UNL     1      46.855 129.350  14.075  1.00  0.00     0.358 A 
ATOM     27  C   UNL     1      47.229 131.668  13.833  1.00  0.00     0.629 A 
ATOM     28  N   UNL     1      47.396 130.393  13.395  1.00  0.00    -0.159 N 
ATOM     29  F   UNL     1      45.549 128.529  15.881  1.00  0.00    -0.193 F 
ATOM     30  H   UNL     1      46.422 132.907  15.281  1.00  0.00     0.460 HD
ATOM     31  H   UNL     1      47.945 130.214  12.525  1.00  0.00     0.459 HD
ENDBRANCH  20  23
ENDBRANCH   1  12
TORSDOF 5
ENDMDL
MODEL 3
REMARK VINA RESULT:      -8.1      1.170      1.284
REMARK SMILES O/C(=N\c1cc2cc(-c3[nH+]c[nH+]cc3F)[nH]c2cc1F)c1cc(F)c[nH]1
REMARK SMILES IDX 3 1 2 2 1 3 21 5 22 6 26 7 23 8 25 9 24 11 4 12 19 13 5 14
REMARK SMILES IDX 18 15 6 16 17 17 7 18 16 19 8 20 20 21 9 23 14 24 10 25
REMARK SMILES IDX 13 26 11 27 12 28 15 29
REMARK H PARENT 1 4 26 10 16 22 10 30 12 31
ROOT
ATOM      1  N   UNL     1      42.919 132.280  22.361  1.00  0.00    -0.209 NA
ENDROOT
BRANCH   1   2
ATOM      2  C   UNL     1      42.465 131.407  23.210  1.00  0.00     0.235 C 
BRANCH   2   3
ATOM      3  O   UNL     1      41.360 131.715  24.011  1.00  0.00    -0.492 OA
ATOM      4  H   UNL     1      40.485 132.044  23.628  1.00  0.00     0.295 HD
ENDBRANCH   2   3
BRANCH   2   5
ATOM      5  C   UNL     1      43.109 130.079  23.286  1.00  0.00     0.104 A 
ATOM      6  C   UNL     1      44.429 129.789  22.976  1.00  0.00     0.072 A 
ATOM      7  N   UNL     1      42.467 128.957  23.675  1.00  0.00    -0.355 N 
ATOM      8  C   UNL     1      44.573 128.435  23.193  1.00  0.00     0.141 A 
ATOM      9  C   UNL     1      43.357 127.949  23.620  1.00  0.00     0.122 A 
ATOM     10  H   UNL     1      41.467 128.873  23.965  1.00  0.00     0.166 HD
ATOM     11  F   UNL     1      45.705 127.713  23.017  1.00  0.00    -0.205 F 
ENDBRANCH   2   5
ENDBRANCH   1   2
BRANCH   1  12
ATOM     12  C   UNL     1      43.047 132.074  20.946  1.00  0.00     0.104 A 
ATOM     13  C   UNL     1      41.983 132.373  20.049  1.00  0.00     0.151 A 
ATOM     14  C   UNL     1      44.288 131.638  20.438  1.00  0.00     0.042 A 
ATOM     15  C   UNL     1      42.146 132.188  18.663  1.00  0.00     0.068 A 
ATOM     16  C   UNL     1      44.411 131.464  19.062  1.00  0.00     0.003 A 
ATOM     17  C   UNL     1      43.378 131.726  18.205  1.00  0.00     0.049 A 
ATOM     18  C   UNL     1      45.483 131.047  18.305  1.00  0.00     0.043 A 
ATOM     19  N   UNL     1      43.741 131.500  16.933  1.00  0.00    -0.349 N 
ATOM     20  C   UNL     1      45.029 131.077  16.985  1.00  0.00     0.116 A 
ATOM     21  F   UNL     1      40.816 132.892  20.507  1.00  0.00    -0.205 F 
ATOM     22  H   UNL     1      43.142 131.614  16.085  1.00  0.00     0.167 HD
BRANCH  20  23
ATOM     23  C   UNL     1      45.829 130.737  15.784  1.00  0.00     0.274 A 
ATOM     24  C   UNL     1      46.495 131.731  15.045  1.00  0.00     0.260 A 
ATOM     25  N   UNL     1      45.932 129.435  15.384  1.00  0.00    -0.151 N 
ATOM     26  C   UNL     1      47.232 131.352  13.925  1.00  0.00     0.358 A 
ATOM     27  C   UNL     1      46.656 129.091  14.286  1.00  0.00     0.629 A 
ATOM     28  N   UNL     1      47.299 130.045  13.563  1.00  0.00    -0.159 N 
ATOM     29  F   UNL     1      46.474 133.034  15.419  1.00  0.00    -0.193 F 
ATOM     30  H   UNL     1      45.436 128.679  15.906  1.00  0.00     0.460 HD
ATOM     31  H   UNL     1      47.853 129.769  12.722  1.00  0.00     0.459 HD
ENDBRANCH  20  23
ENDBRANCH   1  12
TORSDOF 5
ENDMDL


