REMARK SMILES c1cc2cc(CN3CC[C@H]4CCC[C@H]43)ccc2[nH]1
REMARK SMILES IDX 1 1 2 2 3 3 4 4 5 5 15 6 16 7 17 8 18 9 6 11 7 12 8 13 14 14
REMARK SMILES IDX 9 15 13 16 10 17 12 18 11 19
REMARK H PARENT 18 10
ROOT
ATOM      1  C   UNL     1      -0.000  -6.137  -3.084  1.00  0.00     0.083 A 
ATOM      2  C   UNL     1      -0.206  -4.907  -3.701  1.00  0.00     0.028 A 
ATOM      3  C   UNL     1       0.192  -3.969  -2.774  1.00  0.00    -0.000 A 
ATOM      4  C   UNL     1       0.204  -2.578  -2.839  1.00  0.00     0.015 A 
ATOM      5  C   UNL     1       0.670  -1.865  -1.712  1.00  0.00    -0.033 A 
ATOM      6  C   UNL     1       1.097  -2.572  -0.558  1.00  0.00     0.007 A 
ATOM      7  C   UNL     1       1.072  -3.978  -0.528  1.00  0.00     0.027 A 
ATOM      8  C   UNL     1       0.611  -4.645  -1.660  1.00  0.00     0.045 A 
ATOM      9  N   UNL     1       0.498  -5.972  -1.837  1.00  0.00    -0.361 N 
ATOM     10  H   UNL     1       0.742  -6.724  -1.155  1.00  0.00     0.166 HD
ENDROOT
BRANCH   5  11
ATOM     11  C   UNL     1       0.650  -0.361  -1.720  1.00  0.00     0.120 C 
BRANCH  11  12
ATOM     12  N   UNL     1      -0.735   0.136  -1.589  1.00  0.00    -0.296 NA
ATOM     13  C   UNL     1      -0.808   1.574  -1.864  1.00  0.00     0.085 C 
ATOM     14  C   UNL     1      -1.289  -0.053  -0.234  1.00  0.00     0.060 C 
ATOM     15  C   UNL     1      -2.012   2.091  -1.109  1.00  0.00     0.021 C 
ATOM     16  C   UNL     1      -2.288  -1.215  -0.219  1.00  0.00     0.019 C 
ATOM     17  C   UNL     1      -2.079   1.205   0.129  1.00  0.00     0.007 C 
ATOM     18  C   UNL     1      -3.673  -0.591  -0.203  1.00  0.00     0.002 C 
ATOM     19  C   UNL     1      -3.498   0.755   0.475  1.00  0.00     0.005 C 
ENDBRANCH  11  12
ENDBRANCH   5  11
TORSDOF 2


