MODEL 1
REMARK VINA RESULT:      -7.8      0.000      0.000
REMARK SMILES CN(/C=C(\O)N(N)c1cccc2cc3ccccc3cc12)CCO
REMARK SMILES IDX 3 1 4 2 5 3 6 5 8 6 9 7 21 8 10 9 20 10 12 11 11 12 19 13
REMARK SMILES IDX 13 14 18 15 14 16 17 17 15 18 16 19 7 20 2 23 1 24 22 25
REMARK SMILES IDX 23 26 24 27
REMARK H PARENT 5 4 7 21 7 22 24 28
ROOT
ATOM      1  C   UNL     1      44.459 129.201  22.458  1.00  0.00     0.149 C 
ENDROOT
BRANCH   1   2
ATOM      2  C   UNL     1      44.646 130.535  22.455  1.00  0.00     0.222 C 
BRANCH   2   3
ATOM      3  O   UNL     1      44.457 131.276  23.622  1.00  0.00    -0.493 OA
ATOM      4  H   UNL     1      45.035 132.071  23.862  1.00  0.00     0.295 HD
ENDBRANCH   2   3
BRANCH   2   5
ATOM      5  N   UNL     1      45.017 131.209  21.232  1.00  0.00    -0.247 N 
BRANCH   5   6
ATOM      6  C   UNL     1      44.006 131.634  20.298  1.00  0.00     0.069 A 
ATOM      7  C   UNL     1      42.828 132.218  20.788  1.00  0.00     0.028 A 
ATOM      8  C   UNL     1      44.173 131.461  18.902  1.00  0.00     0.008 A 
ATOM      9  C   UNL     1      41.813 132.608  19.915  1.00  0.00     0.003 A 
ATOM     10  C   UNL     1      45.357 130.922  18.363  1.00  0.00     0.019 A 
ATOM     11  C   UNL     1      43.131 131.857  18.023  1.00  0.00    -0.016 A 
ATOM     12  C   UNL     1      41.958 132.425  18.540  1.00  0.00     0.009 A 
ATOM     13  C   UNL     1      45.499 130.751  16.978  1.00  0.00    -0.018 A 
ATOM     14  C   UNL     1      43.275 131.685  16.638  1.00  0.00     0.017 A 
ATOM     15  C   UNL     1      46.677 130.203  16.445  1.00  0.00     0.009 A 
ATOM     16  C   UNL     1      44.450 131.132  16.110  1.00  0.00    -0.018 A 
ATOM     17  C   UNL     1      46.811 130.036  15.064  1.00  0.00     0.001 A 
ATOM     18  C   UNL     1      44.596 130.958  14.725  1.00  0.00     0.009 A 
ATOM     19  C   UNL     1      45.774 130.411  14.206  1.00  0.00     0.001 A 
ENDBRANCH   5   6
BRANCH   5  20
ATOM     20  N   UNL     1      46.353 131.602  21.027  1.00  0.00    -0.240 NA
ATOM     21  H   UNL     1      46.964 130.956  21.576  1.00  0.00     0.144 HD
ATOM     22  H   UNL     1      46.474 132.566  21.415  1.00  0.00     0.144 HD
ENDBRANCH   5  20
ENDBRANCH   2   5
ENDBRANCH   1   2
BRANCH   1  23
ATOM     23  N   UNL     1      43.639 128.487  23.412  1.00  0.00    -0.374 N 
ATOM     24  C   UNL     1      42.863 129.170  24.454  1.00  0.00     0.143 C 
BRANCH  23  25
ATOM     25  C   UNL     1      43.747 127.023  23.459  1.00  0.00     0.144 C 
BRANCH  25  26
ATOM     26  C   UNL     1      45.127 126.583  23.958  1.00  0.00     0.177 C 
BRANCH  26  27
ATOM     27  O   UNL     1      45.951 126.223  22.883  1.00  0.00    -0.395 OA
ATOM     28  H   UNL     1      45.712 125.290  22.638  1.00  0.00     0.210 HD
ENDBRANCH  26  27
ENDBRANCH  25  26
ENDBRANCH  23  25
ENDBRANCH   1  23
TORSDOF 9
ENDMDL
MODEL 2
REMARK VINA RESULT:      -7.2      1.048      1.153
REMARK SMILES CN(/C=C(\O)N(N)c1cccc2cc3ccccc3cc12)CCO
REMARK SMILES IDX 3 1 4 2 5 3 6 5 8 6 9 7 21 8 10 9 20 10 12 11 11 12 19 13
REMARK SMILES IDX 13 14 18 15 14 16 17 17 15 18 16 19 7 20 2 23 1 24 22 25
REMARK SMILES IDX 23 26 24 27
REMARK H PARENT 5 4 7 21 7 22 24 28
ROOT
ATOM      1  C   UNL     1      44.610 129.688  23.060  1.00  0.00     0.149 C 
ENDROOT
BRANCH   1   2
ATOM      2  C   UNL     1      44.866 129.931  21.761  1.00  0.00     0.222 C 
BRANCH   2   3
ATOM      3  O   UNL     1      45.161 128.881  20.892  1.00  0.00    -0.493 OA
ATOM      4  H   UNL     1      44.572 128.063  20.806  1.00  0.00     0.295 HD
ENDBRANCH   2   3
BRANCH   2   5
ATOM      5  N   UNL     1      44.866 131.290  21.268  1.00  0.00    -0.247 N 
BRANCH   5   6
ATOM      6  C   UNL     1      43.886 131.715  20.301  1.00  0.00     0.069 A 
ATOM      7  C   UNL     1      42.693 132.299  20.752  1.00  0.00     0.028 A 
ATOM      8  C   UNL     1      44.099 131.541  18.911  1.00  0.00     0.008 A 
ATOM      9  C   UNL     1      41.707 132.689  19.846  1.00  0.00     0.003 A 
ATOM     10  C   UNL     1      45.300 131.002  18.412  1.00  0.00     0.019 A 
ATOM     11  C   UNL     1      43.087 131.937  17.998  1.00  0.00    -0.016 A 
ATOM     12  C   UNL     1      41.897 132.506  18.477  1.00  0.00     0.009 A 
ATOM     13  C   UNL     1      45.487 130.830  17.032  1.00  0.00    -0.018 A 
ATOM     14  C   UNL     1      43.276 131.764  16.619  1.00  0.00     0.017 A 
ATOM     15  C   UNL     1      46.682 130.282  16.538  1.00  0.00     0.009 A 
ATOM     16  C   UNL     1      44.467 131.211  16.130  1.00  0.00    -0.018 A 
ATOM     17  C   UNL     1      46.861 130.113  15.163  1.00  0.00     0.001 A 
ATOM     18  C   UNL     1      44.659 131.036  14.751  1.00  0.00     0.009 A 
ATOM     19  C   UNL     1      45.853 130.488  14.271  1.00  0.00     0.001 A 
ENDBRANCH   5   6
BRANCH   5  20
ATOM     20  N   UNL     1      45.716 132.247  21.853  1.00  0.00    -0.240 NA
ATOM     21  H   UNL     1      46.697 131.897  21.770  1.00  0.00     0.144 HD
ATOM     22  H   UNL     1      45.484 132.312  22.872  1.00  0.00     0.144 HD
ENDBRANCH   5  20
ENDBRANCH   2   5
ENDBRANCH   1   2
BRANCH   1  23
ATOM     23  N   UNL     1      43.285 129.612  23.638  1.00  0.00    -0.374 N 
ATOM     24  C   UNL     1      42.431 130.791  23.812  1.00  0.00     0.143 C 
BRANCH  23  25
ATOM     25  C   UNL     1      42.868 128.342  24.247  1.00  0.00     0.144 C 
BRANCH  25  26
ATOM     26  C   UNL     1      43.609 127.156  23.622  1.00  0.00     0.177 C 
BRANCH  26  27
ATOM     27  O   UNL     1      44.645 126.721  24.461  1.00  0.00    -0.395 OA
ATOM     28  H   UNL     1      44.825 127.459  25.100  1.00  0.00     0.210 HD
ENDBRANCH  26  27
ENDBRANCH  25  26
ENDBRANCH  23  25
ENDBRANCH   1  23
TORSDOF 9
ENDMDL
MODEL 3
REMARK VINA RESULT:      -7.2      1.152      1.188
REMARK SMILES CN(/C=C(\O)N(N)c1cccc2cc3ccccc3cc12)CCO
REMARK SMILES IDX 3 1 4 2 5 3 6 5 8 6 9 7 21 8 10 9 20 10 12 11 11 12 19 13
REMARK SMILES IDX 13 14 18 15 14 16 17 17 15 18 16 19 7 20 2 23 1 24 22 25
REMARK SMILES IDX 23 26 24 27
REMARK H PARENT 5 4 7 21 7 22 24 28
ROOT
ATOM      1  C   UNL     1      44.324 129.617  22.592  1.00  0.00     0.149 C 
ENDROOT
BRANCH   1   2
ATOM      2  C   UNL     1      45.101 129.858  21.519  1.00  0.00     0.222 C 
BRANCH   2   3
ATOM      3  O   UNL     1      45.892 128.843  20.980  1.00  0.00    -0.493 OA
ATOM      4  H   UNL     1      46.629 128.389  21.505  1.00  0.00     0.295 HD
ENDBRANCH   2   3
BRANCH   2   5
ATOM      5  N   UNL     1      45.141 131.180  20.939  1.00  0.00    -0.247 N 
BRANCH   5   6
ATOM      6  C   UNL     1      44.121 131.602  20.013  1.00  0.00     0.069 A 
ATOM      7  C   UNL     1      42.933 132.155  20.513  1.00  0.00     0.028 A 
ATOM      8  C   UNL     1      44.291 131.457  18.614  1.00  0.00     0.008 A 
ATOM      9  C   UNL     1      41.910 132.540  19.648  1.00  0.00     0.003 A 
ATOM     10  C   UNL     1      45.485 130.951  18.065  1.00  0.00     0.019 A 
ATOM     11  C   UNL     1      43.241 131.848  17.742  1.00  0.00    -0.016 A 
ATOM     12  C   UNL     1      42.058 132.385  18.270  1.00  0.00     0.009 A 
ATOM     13  C   UNL     1      45.629 130.807  16.678  1.00  0.00    -0.018 A 
ATOM     14  C   UNL     1      43.388 131.703  16.355  1.00  0.00     0.017 A 
ATOM     15  C   UNL     1      46.817 130.291  16.134  1.00  0.00     0.009 A 
ATOM     16  C   UNL     1      44.572 131.182  15.817  1.00  0.00    -0.018 A 
ATOM     17  C   UNL     1      46.953 130.150  14.751  1.00  0.00     0.001 A 
ATOM     18  C   UNL     1      44.721 131.036  14.429  1.00  0.00     0.009 A 
ATOM     19  C   UNL     1      45.909 130.520  13.900  1.00  0.00     0.001 A 
ENDBRANCH   5   6
BRANCH   5  20
ATOM     20  N   UNL     1      46.081 132.120  21.403  1.00  0.00    -0.240 NA
ATOM     21  H   UNL     1      46.024 132.961  20.786  1.00  0.00     0.144 HD
ATOM     22  H   UNL     1      47.037 131.708  21.295  1.00  0.00     0.144 HD
ENDBRANCH   5  20
ENDBRANCH   2   5
ENDBRANCH   1   2
BRANCH   1  23
ATOM     23  N   UNL     1      44.244 128.348  23.282  1.00  0.00    -0.374 N 
ATOM     24  C   UNL     1      43.414 128.150  24.477  1.00  0.00     0.143 C 
BRANCH  23  25
ATOM     25  C   UNL     1      45.176 127.285  22.887  1.00  0.00     0.144 C 
BRANCH  25  26
ATOM     26  C   UNL     1      44.427 126.025  22.442  1.00  0.00     0.177 C 
BRANCH  26  27
ATOM     27  O   UNL     1      43.165 125.958  23.048  1.00  0.00    -0.395 OA
ATOM     28  H   UNL     1      42.640 125.284  22.543  1.00  0.00     0.210 HD
ENDBRANCH  26  27
ENDBRANCH  25  26
ENDBRANCH  23  25
ENDBRANCH   1  23
TORSDOF 9
ENDMDL
MODEL 4
REMARK VINA RESULT:      -6.6      1.249      1.943
REMARK SMILES CN(/C=C(\O)N(N)c1cccc2cc3ccccc3cc12)CCO
REMARK SMILES IDX 3 1 4 2 5 3 6 5 8 6 9 7 21 8 10 9 20 10 12 11 11 12 19 13
REMARK SMILES IDX 13 14 18 15 14 16 17 17 15 18 16 19 7 20 2 23 1 24 22 25
REMARK SMILES IDX 23 26 24 27
REMARK H PARENT 5 4 7 21 7 22 24 28
ROOT
ATOM      1  C   UNL     1      44.416 128.778  22.018  1.00  0.00     0.149 C 
ENDROOT
BRANCH   1   2
ATOM      2  C   UNL     1      45.196 129.658  21.362  1.00  0.00     0.222 C 
BRANCH   2   3
ATOM      3  O   UNL     1      46.362 129.230  20.727  1.00  0.00    -0.493 OA
ATOM      4  H   UNL     1      46.489 128.279  20.405  1.00  0.00     0.295 HD
ENDBRANCH   2   3
BRANCH   2   5
ATOM      5  N   UNL     1      44.842 131.059  21.339  1.00  0.00    -0.247 N 
BRANCH   5   6
ATOM      6  C   UNL     1      43.857 131.548  20.407  1.00  0.00     0.069 A 
ATOM      7  C   UNL     1      42.679 132.125  20.903  1.00  0.00     0.028 A 
ATOM      8  C   UNL     1      44.051 131.444  19.008  1.00  0.00     0.008 A 
ATOM      9  C   UNL     1      41.688 132.576  20.032  1.00  0.00     0.003 A 
ATOM     10  C   UNL     1      45.238 130.914  18.466  1.00  0.00     0.019 A 
ATOM     11  C   UNL     1      43.035 131.901  18.130  1.00  0.00    -0.016 A 
ATOM     12  C   UNL     1      41.859 132.461  18.652  1.00  0.00     0.009 A 
ATOM     13  C   UNL     1      45.406 130.812  17.078  1.00  0.00    -0.018 A 
ATOM     14  C   UNL     1      43.205 131.798  16.741  1.00  0.00     0.017 A 
ATOM     15  C   UNL     1      46.587 130.273  16.540  1.00  0.00     0.009 A 
ATOM     16  C   UNL     1      44.382 131.254  16.209  1.00  0.00    -0.018 A 
ATOM     17  C   UNL     1      46.748 130.174  15.156  1.00  0.00     0.001 A 
ATOM     18  C   UNL     1      44.555 131.149  14.820  1.00  0.00     0.009 A 
ATOM     19  C   UNL     1      45.735 130.610  14.298  1.00  0.00     0.001 A 
ENDBRANCH   5   6
BRANCH   5  20
ATOM     20  N   UNL     1      45.334 131.922  22.337  1.00  0.00    -0.240 NA
ATOM     21  H   UNL     1      45.747 132.756  21.863  1.00  0.00     0.144 HD
ATOM     22  H   UNL     1      46.104 131.429  22.846  1.00  0.00     0.144 HD
ENDBRANCH   5  20
ENDBRANCH   2   5
ENDBRANCH   1   2
BRANCH   1  23
ATOM     23  N   UNL     1      44.520 128.479  23.429  1.00  0.00    -0.374 N 
ATOM     24  C   UNL     1      45.490 127.516  23.963  1.00  0.00     0.143 C 
BRANCH  23  25
ATOM     25  C   UNL     1      43.487 129.011  24.328  1.00  0.00     0.144 C 
BRANCH  25  26
ATOM     26  C   UNL     1      42.115 129.029  23.647  1.00  0.00     0.177 C 
BRANCH  26  27
ATOM     27  O   UNL     1      41.289 130.006  24.221  1.00  0.00    -0.395 OA
ATOM     28  H   UNL     1      41.414 130.835  23.689  1.00  0.00     0.210 HD
ENDBRANCH  26  27
ENDBRANCH  25  26
ENDBRANCH  23  25
ENDBRANCH   1  23
TORSDOF 9
ENDMDL
MODEL 5
REMARK VINA RESULT:      -6.5      0.992      1.089
REMARK SMILES CN(/C=C(\O)N(N)c1cccc2cc3ccccc3cc12)CCO
REMARK SMILES IDX 3 1 4 2 5 3 6 5 8 6 9 7 21 8 10 9 20 10 12 11 11 12 19 13
REMARK SMILES IDX 13 14 18 15 14 16 17 17 15 18 16 19 7 20 2 23 1 24 22 25
REMARK SMILES IDX 23 26 24 27
REMARK H PARENT 5 4 7 21 7 22 24 28
ROOT
ATOM      1  C   UNL     1      44.996 129.487  23.207  1.00  0.00     0.149 C 
ENDROOT
BRANCH   1   2
ATOM      2  C   UNL     1      44.164 130.145  22.376  1.00  0.00     0.222 C 
BRANCH   2   3
ATOM      3  O   UNL     1      42.784 130.091  22.573  1.00  0.00    -0.493 OA
ATOM      4  H   UNL     1      42.362 130.145  23.490  1.00  0.00     0.295 HD
ENDBRANCH   2   3
BRANCH   2   5
ATOM      5  N   UNL     1      44.700 130.887  21.258  1.00  0.00    -0.247 N 
BRANCH   5   6
ATOM      6  C   UNL     1      43.819 131.456  20.270  1.00  0.00     0.069 A 
ATOM      7  C   UNL     1      42.664 132.129  20.695  1.00  0.00     0.028 A 
ATOM      8  C   UNL     1      44.089 131.335  18.885  1.00  0.00     0.008 A 
ATOM      9  C   UNL     1      41.770 132.660  19.766  1.00  0.00     0.003 A 
ATOM     10  C   UNL     1      45.259 130.707  18.415  1.00  0.00     0.019 A 
ATOM     11  C   UNL     1      43.170 131.874  17.948  1.00  0.00    -0.016 A 
ATOM     12  C   UNL     1      42.016 132.531  18.400  1.00  0.00     0.009 A 
ATOM     13  C   UNL     1      45.503 130.590  17.039  1.00  0.00    -0.018 A 
ATOM     14  C   UNL     1      43.417 131.756  16.572  1.00  0.00     0.017 A 
ATOM     15  C   UNL     1      46.666 129.955  16.573  1.00  0.00     0.009 A 
ATOM     16  C   UNL     1      44.575 131.115  16.111  1.00  0.00    -0.018 A 
ATOM     17  C   UNL     1      46.903 129.842  15.201  1.00  0.00     0.001 A 
ATOM     18  C   UNL     1      44.823 130.995  14.735  1.00  0.00     0.009 A 
ATOM     19  C   UNL     1      45.984 130.359  14.284  1.00  0.00     0.001 A 
ENDBRANCH   5   6
BRANCH   5  20
ATOM     20  N   UNL     1      46.072 131.201  21.219  1.00  0.00    -0.240 NA
ATOM     21  H   UNL     1      46.603 130.346  21.501  1.00  0.00     0.144 HD
ATOM     22  H   UNL     1      46.258 131.943  21.932  1.00  0.00     0.144 HD
ENDBRANCH   5  20
ENDBRANCH   2   5
ENDBRANCH   1   2
BRANCH   1  23
ATOM     23  N   UNL     1      45.052 128.048  23.346  1.00  0.00    -0.374 N 
ATOM     24  C   UNL     1      44.812 127.368  24.624  1.00  0.00     0.143 C 
BRANCH  23  25
ATOM     25  C   UNL     1      45.558 127.262  22.213  1.00  0.00     0.144 C 
BRANCH  25  26
ATOM     26  C   UNL     1      45.621 125.770  22.555  1.00  0.00     0.177 C 
BRANCH  26  27
ATOM     27  O   UNL     1      45.751 124.999  21.392  1.00  0.00    -0.395 OA
ATOM     28  H   UNL     1      46.697 124.698  21.352  1.00  0.00     0.210 HD
ENDBRANCH  26  27
ENDBRANCH  25  26
ENDBRANCH  23  25
ENDBRANCH   1  23
TORSDOF 9
ENDMDL
MODEL 6
REMARK VINA RESULT:      -6.5      2.902      4.460
REMARK SMILES CN(/C=C(\O)N(N)c1cccc2cc3ccccc3cc12)CCO
REMARK SMILES IDX 3 1 4 2 5 3 6 5 8 6 9 7 21 8 10 9 20 10 12 11 11 12 19 13
REMARK SMILES IDX 13 14 18 15 14 16 17 17 15 18 16 19 7 20 2 23 1 24 22 25
REMARK SMILES IDX 23 26 24 27
REMARK H PARENT 5 4 7 21 7 22 24 28
ROOT
ATOM      1  C   UNL     1      47.366 132.883  21.259  1.00  0.00     0.149 C 
ENDROOT
BRANCH   1   2
ATOM      2  C   UNL     1      46.177 132.374  21.632  1.00  0.00     0.222 C 
BRANCH   2   3
ATOM      3  O   UNL     1      45.562 132.809  22.807  1.00  0.00    -0.493 OA
ATOM      4  H   UNL     1      44.652 132.477  23.100  1.00  0.00     0.295 HD
ENDBRANCH   2   3
BRANCH   2   5
ATOM      5  N   UNL     1      45.545 131.351  20.830  1.00  0.00    -0.247 N 
BRANCH   5   6
ATOM      6  C   UNL     1      44.400 131.666  20.014  1.00  0.00     0.069 A 
ATOM      7  C   UNL     1      43.219 132.097  20.636  1.00  0.00     0.028 A 
ATOM      8  C   UNL     1      44.442 131.537  18.605  1.00  0.00     0.008 A 
ATOM      9  C   UNL     1      42.080 132.376  19.881  1.00  0.00     0.003 A 
ATOM     10  C   UNL     1      45.620 131.152  17.935  1.00  0.00     0.019 A 
ATOM     11  C   UNL     1      43.276 131.818  17.846  1.00  0.00    -0.016 A 
ATOM     12  C   UNL     1      42.104 132.234  18.494  1.00  0.00     0.009 A 
ATOM     13  C   UNL     1      45.637 131.020  16.539  1.00  0.00    -0.018 A 
ATOM     14  C   UNL     1      43.296 131.686  16.449  1.00  0.00     0.017 A 
ATOM     15  C   UNL     1      46.810 130.627  15.874  1.00  0.00     0.009 A 
ATOM     16  C   UNL     1      44.467 131.286  15.791  1.00  0.00    -0.018 A 
ATOM     17  C   UNL     1      46.820 130.497  14.483  1.00  0.00     0.001 A 
ATOM     18  C   UNL     1      44.489 131.153  14.394  1.00  0.00     0.009 A 
ATOM     19  C   UNL     1      45.663 130.759  13.745  1.00  0.00     0.001 A 
ENDBRANCH   5   6
BRANCH   5  20
ATOM     20  N   UNL     1      46.147 130.083  20.713  1.00  0.00    -0.240 NA
ATOM     21  H   UNL     1      45.480 129.460  20.205  1.00  0.00     0.144 HD
ATOM     22  H   UNL     1      46.280 129.694  21.675  1.00  0.00     0.144 HD
ENDBRANCH   5  20
ENDBRANCH   2   5
ENDBRANCH   1   2
BRANCH   1  23
ATOM     23  N   UNL     1      48.059 133.950  21.949  1.00  0.00    -0.374 N 
ATOM     24  C   UNL     1      48.894 133.713  23.132  1.00  0.00     0.143 C 
BRANCH  23  25
ATOM     25  C   UNL     1      47.753 135.334  21.567  1.00  0.00     0.144 C 
BRANCH  25  26
ATOM     26  C   UNL     1      48.968 136.016  20.930  1.00  0.00     0.177 C 
BRANCH  26  27
ATOM     27  O   UNL     1      49.695 136.732  21.891  1.00  0.00    -0.395 OA
ATOM     28  H   UNL     1      49.826 136.122  22.664  1.00  0.00     0.210 HD
ENDBRANCH  26  27
ENDBRANCH  25  26
ENDBRANCH  23  25
ENDBRANCH   1  23
TORSDOF 9
ENDMDL
MODEL 7
REMARK VINA RESULT:      -6.2      2.738      4.090
REMARK SMILES CN(/C=C(\O)N(N)c1cccc2cc3ccccc3cc12)CCO
REMARK SMILES IDX 3 1 4 2 5 3 6 5 8 6 9 7 21 8 10 9 20 10 12 11 11 12 19 13
REMARK SMILES IDX 13 14 18 15 14 16 17 17 15 18 16 19 7 20 2 23 1 24 22 25
REMARK SMILES IDX 23 26 24 27
REMARK H PARENT 5 4 7 21 7 22 24 28
ROOT
ATOM      1  C   UNL     1      47.161 133.032  21.326  1.00  0.00     0.149 C 
ENDROOT
BRANCH   1   2
ATOM      2  C   UNL     1      46.055 132.367  21.710  1.00  0.00     0.222 C 
BRANCH   2   3
ATOM      3  O   UNL     1      45.476 132.621  22.954  1.00  0.00    -0.493 OA
ATOM      4  H   UNL     1      44.819 133.375  23.106  1.00  0.00     0.295 HD
ENDBRANCH   2   3
BRANCH   2   5
ATOM      5  N   UNL     1      45.478 131.365  20.844  1.00  0.00    -0.247 N 
BRANCH   5   6
ATOM      6  C   UNL     1      44.350 131.685  20.006  1.00  0.00     0.069 A 
ATOM      7  C   UNL     1      43.162 132.130  20.604  1.00  0.00     0.028 A 
ATOM      8  C   UNL     1      44.416 131.547  18.598  1.00  0.00     0.008 A 
ATOM      9  C   UNL     1      42.039 132.414  19.828  1.00  0.00     0.003 A 
ATOM     10  C   UNL     1      45.601 131.147  17.951  1.00  0.00     0.019 A 
ATOM     11  C   UNL     1      43.266 131.833  17.817  1.00  0.00    -0.016 A 
ATOM     12  C   UNL     1      42.086 132.263  18.442  1.00  0.00     0.009 A 
ATOM     13  C   UNL     1      45.642 131.008  16.556  1.00  0.00    -0.018 A 
ATOM     14  C   UNL     1      43.309 131.693  16.422  1.00  0.00     0.017 A 
ATOM     15  C   UNL     1      46.824 130.599  15.915  1.00  0.00     0.009 A 
ATOM     16  C   UNL     1      44.488 131.279  15.787  1.00  0.00    -0.018 A 
ATOM     17  C   UNL     1      46.857 130.462  14.525  1.00  0.00     0.001 A 
ATOM     18  C   UNL     1      44.534 131.137  14.391  1.00  0.00     0.009 A 
ATOM     19  C   UNL     1      45.716 130.729  13.765  1.00  0.00     0.001 A 
ENDBRANCH   5   6
BRANCH   5  20
ATOM     20  N   UNL     1      46.118 130.120  20.690  1.00  0.00    -0.240 NA
ATOM     21  H   UNL     1      46.342 129.757  21.644  1.00  0.00     0.144 HD
ATOM     22  H   UNL     1      47.021 130.276  20.187  1.00  0.00     0.144 HD
ENDBRANCH   5  20
ENDBRANCH   2   5
ENDBRANCH   1   2
BRANCH   1  23
ATOM     23  N   UNL     1      47.693 134.200  21.993  1.00  0.00    -0.374 N 
ATOM     24  C   UNL     1      48.006 135.443  21.280  1.00  0.00     0.143 C 
BRANCH  23  25
ATOM     25  C   UNL     1      48.117 134.064  23.393  1.00  0.00     0.144 C 
BRANCH  25  26
ATOM     26  C   UNL     1      49.618 133.776  23.494  1.00  0.00     0.177 C 
BRANCH  26  27
ATOM     27  O   UNL     1      50.316 134.918  23.908  1.00  0.00    -0.395 OA
ATOM     28  H   UNL     1      51.134 134.973  23.348  1.00  0.00     0.210 HD
ENDBRANCH  26  27
ENDBRANCH  25  26
ENDBRANCH  23  25
ENDBRANCH   1  23
TORSDOF 9
ENDMDL
MODEL 8
REMARK VINA RESULT:      -6.1      1.415      2.251
REMARK SMILES CN(/C=C(\O)N(N)c1cccc2cc3ccccc3cc12)CCO
REMARK SMILES IDX 3 1 4 2 5 3 6 5 8 6 9 7 21 8 10 9 20 10 12 11 11 12 19 13
REMARK SMILES IDX 13 14 18 15 14 16 17 17 15 18 16 19 7 20 2 23 1 24 22 25
REMARK SMILES IDX 23 26 24 27
REMARK H PARENT 5 4 7 21 7 22 24 28
ROOT
ATOM      1  C   UNL     1      44.660 128.971  21.734  1.00  0.00     0.149 C 
ENDROOT
BRANCH   1   2
ATOM      2  C   UNL     1      45.462 129.724  20.958  1.00  0.00     0.222 C 
BRANCH   2   3
ATOM      3  O   UNL     1      46.596 129.167  20.367  1.00  0.00    -0.493 OA
ATOM      4  H   UNL     1      46.587 128.262  19.915  1.00  0.00     0.295 HD
ENDBRANCH   2   3
BRANCH   2   5
ATOM      5  N   UNL     1      45.165 131.124  20.757  1.00  0.00    -0.247 N 
BRANCH   5   6
ATOM      6  C   UNL     1      44.138 131.527  19.831  1.00  0.00     0.069 A 
ATOM      7  C   UNL     1      42.937 132.052  20.331  1.00  0.00     0.028 A 
ATOM      8  C   UNL     1      44.313 131.390  18.432  1.00  0.00     0.008 A 
ATOM      9  C   UNL     1      41.908 132.419  19.466  1.00  0.00     0.003 A 
ATOM     10  C   UNL     1      45.518 130.911  17.884  1.00  0.00     0.019 A 
ATOM     11  C   UNL     1      43.256 131.761  17.560  1.00  0.00    -0.016 A 
ATOM     12  C   UNL     1      42.061 132.271  18.088  1.00  0.00     0.009 A 
ATOM     13  C   UNL     1      45.667 130.775  16.496  1.00  0.00    -0.018 A 
ATOM     14  C   UNL     1      43.408 131.624  16.172  1.00  0.00     0.017 A 
ATOM     15  C   UNL     1      46.867 130.286  15.953  1.00  0.00     0.009 A 
ATOM     16  C   UNL     1      44.604 131.130  15.634  1.00  0.00    -0.018 A 
ATOM     17  C   UNL     1      47.008 130.153  14.569  1.00  0.00     0.001 A 
ATOM     18  C   UNL     1      44.758 130.992  14.246  1.00  0.00     0.009 A 
ATOM     19  C   UNL     1      45.957 130.503  13.718  1.00  0.00     0.001 A 
ENDBRANCH   5   6
BRANCH   5  20
ATOM     20  N   UNL     1      45.761 132.092  21.588  1.00  0.00    -0.240 NA
ATOM     21  H   UNL     1      46.055 132.893  20.986  1.00  0.00     0.144 HD
ATOM     22  H   UNL     1      46.624 131.675  22.010  1.00  0.00     0.144 HD
ENDBRANCH   5  20
ENDBRANCH   2   5
ENDBRANCH   1   2
BRANCH   1  23
ATOM     23  N   UNL     1      43.983 129.444  22.922  1.00  0.00    -0.374 N 
ATOM     24  C   UNL     1      44.397 129.054  24.275  1.00  0.00     0.143 C 
BRANCH  23  25
ATOM     25  C   UNL     1      42.723 130.179  22.755  1.00  0.00     0.144 C 
BRANCH  25  26
ATOM     26  C   UNL     1      42.707 131.455  23.603  1.00  0.00     0.177 C 
BRANCH  26  27
ATOM     27  O   UNL     1      41.656 131.422  24.530  1.00  0.00    -0.395 OA
ATOM     28  H   UNL     1      41.353 130.478  24.585  1.00  0.00     0.210 HD
ENDBRANCH  26  27
ENDBRANCH  25  26
ENDBRANCH  23  25
ENDBRANCH   1  23
TORSDOF 9
ENDMDL
MODEL 9
REMARK VINA RESULT:      -6.0      2.662      6.687
REMARK SMILES CN(/C=C(\O)N(N)c1cccc2cc3ccccc3cc12)CCO
REMARK SMILES IDX 3 1 4 2 5 3 6 5 8 6 9 7 21 8 10 9 20 10 12 11 11 12 19 13
REMARK SMILES IDX 13 14 18 15 14 16 17 17 15 18 16 19 7 20 2 23 1 24 22 25
REMARK SMILES IDX 23 26 24 27
REMARK H PARENT 5 4 7 21 7 22 24 28
ROOT
ATOM      1  C   UNL     1      45.492 132.033  16.609  1.00  0.00     0.149 C 
ENDROOT
BRANCH   1   2
ATOM      2  C   UNL     1      44.541 131.714  17.507  1.00  0.00     0.222 C 
BRANCH   2   3
ATOM      3  O   UNL     1      43.192 131.891  17.197  1.00  0.00    -0.493 OA
ATOM      4  H   UNL     1      42.502 131.162  17.330  1.00  0.00     0.295 HD
ENDBRANCH   2   3
BRANCH   2   5
ATOM      5  N   UNL     1      44.916 131.213  18.809  1.00  0.00    -0.247 N 
BRANCH   5   6
ATOM      6  C   UNL     1      44.060 131.427  19.948  1.00  0.00     0.069 A 
ATOM      7  C   UNL     1      43.172 132.513  19.938  1.00  0.00     0.028 A 
ATOM      8  C   UNL     1      44.109 130.574  21.078  1.00  0.00     0.008 A 
ATOM      9  C   UNL     1      42.354 132.772  21.037  1.00  0.00     0.003 A 
ATOM     10  C   UNL     1      44.952 129.446  21.113  1.00  0.00     0.019 A 
ATOM     11  C   UNL     1      43.277 130.849  22.194  1.00  0.00    -0.016 A 
ATOM     12  C   UNL     1      42.408 131.950  22.163  1.00  0.00     0.009 A 
ATOM     13  C   UNL     1      44.992 128.619  22.245  1.00  0.00    -0.018 A 
ATOM     14  C   UNL     1      43.319 130.020  23.325  1.00  0.00     0.017 A 
ATOM     15  C   UNL     1      45.841 127.501  22.281  1.00  0.00     0.009 A 
ATOM     16  C   UNL     1      44.172 128.910  23.359  1.00  0.00    -0.018 A 
ATOM     17  C   UNL     1      45.876 126.681  23.412  1.00  0.00     0.001 A 
ATOM     18  C   UNL     1      44.216 128.079  24.490  1.00  0.00     0.009 A 
ATOM     19  C   UNL     1      45.067 126.969  24.514  1.00  0.00     0.001 A 
ENDBRANCH   5   6
BRANCH   5  20
ATOM     20  N   UNL     1      46.036 130.369  18.939  1.00  0.00    -0.240 NA
ATOM     21  H   UNL     1      46.590 130.698  19.762  1.00  0.00     0.144 HD
ATOM     22  H   UNL     1      46.631 130.483  18.086  1.00  0.00     0.144 HD
ENDBRANCH   5  20
ENDBRANCH   2   5
ENDBRANCH   1   2
BRANCH   1  23
ATOM     23  N   UNL     1      45.727 131.323  15.371  1.00  0.00    -0.374 N 
ATOM     24  C   UNL     1      46.821 131.670  14.456  1.00  0.00     0.143 C 
BRANCH  23  25
ATOM     25  C   UNL     1      44.717 130.354  14.926  1.00  0.00     0.144 C 
BRANCH  25  26
ATOM     26  C   UNL     1      45.126 128.922  15.283  1.00  0.00     0.177 C 
BRANCH  26  27
ATOM     27  O   UNL     1      46.063 128.918  16.325  1.00  0.00    -0.395 OA
ATOM     28  H   UNL     1      46.705 128.185  16.131  1.00  0.00     0.210 HD
ENDBRANCH  26  27
ENDBRANCH  25  26
ENDBRANCH  23  25
ENDBRANCH   1  23
TORSDOF 9
ENDMDL


