MODEL 1
REMARK VINA RESULT:      -7.6      0.000      0.000
REMARK SMILES C=Cc1cc([C@@H]2O[C@H]2c2ccccc2)c(N)c([O-])c1[NH2+]c1ccc(C)c(F)c1
REMARK SMILES IDX 3 1 4 2 5 3 15 4 17 5 18 6 19 7 2 8 1 9 20 10 21 13 22 14
REMARK SMILES IDX 28 15 23 16 26 17 24 18 27 19 25 20 6 21 7 22 8 23 9 24
REMARK SMILES IDX 10 25 14 26 11 27 13 28 12 29 16 30
REMARK H PARENT 20 11 20 12 16 31 16 32
ROOT
ATOM      1  C   UNL     1      45.477 131.925  20.470  1.00  0.00     0.035 A 
ATOM      2  C   UNL     1      45.775 131.784  19.106  1.00  0.00     0.023 A 
ATOM      3  C   UNL     1      44.763 131.715  18.142  1.00  0.00     0.007 A 
ATOM      4  C   UNL     1      43.416 131.851  18.536  1.00  0.00     0.035 A 
ATOM      5  C   UNL     1      43.103 131.993  19.899  1.00  0.00    -0.020 A 
ATOM      6  O   UNL     1      41.768 132.103  20.280  1.00  0.00    -0.867 OA
ATOM      7  C   UNL     1      44.121 132.027  20.881  1.00  0.00     0.136 A 
ENDROOT
BRANCH   1   8
ATOM      8  C   UNL     1      46.590 131.999  21.449  1.00  0.00     0.006 C 
ATOM      9  C   UNL     1      47.224 133.137  21.731  1.00  0.00     0.009 C 
ENDBRANCH   1   8
BRANCH   7  10
ATOM     10  N   UNL     1      43.766 132.104  22.287  1.00  0.00    -0.281 N 
ATOM     11  H   UNL     1      44.525 132.583  22.822  1.00  0.00     0.358 HD
ATOM     12  H   UNL     1      42.916 132.694  22.435  1.00  0.00     0.358 HD
BRANCH  10  13
ATOM     13  C   UNL     1      43.501 130.785  22.814  1.00  0.00     0.137 A 
ATOM     14  C   UNL     1      42.353 130.539  23.587  1.00  0.00     0.068 A 
ATOM     15  C   UNL     1      44.383 129.722  22.549  1.00  0.00     0.107 A 
ATOM     16  C   UNL     1      42.102 129.264  24.100  1.00  0.00     0.012 A 
ATOM     17  C   UNL     1      44.133 128.445  23.062  1.00  0.00     0.132 A 
ATOM     18  C   UNL     1      42.987 128.207  23.836  1.00  0.00    -0.015 A 
ATOM     19  F   UNL     1      45.010 127.442  22.803  1.00  0.00    -0.206 F 
ATOM     20  C   UNL     1      42.732 126.842  24.408  1.00  0.00     0.047 C 
ENDBRANCH  10  13
ENDBRANCH   7  10
BRANCH   3  21
ATOM     21  C   UNL     1      45.151 131.561  16.696  1.00  0.00     0.185 C 
ATOM     22  O   UNL     1      44.393 130.556  16.059  1.00  0.00    -0.359 OA
ATOM     23  C   UNL     1      45.744 130.252  16.311  1.00  0.00     0.183 C 
BRANCH  23  24
ATOM     24  C   UNL     1      46.558 130.255  15.053  1.00  0.00    -0.016 A 
ATOM     25  C   UNL     1      46.364 131.261  14.094  1.00  0.00     0.006 A 
ATOM     26  C   UNL     1      47.558 129.291  14.851  1.00  0.00     0.006 A 
ATOM     27  C   UNL     1      47.144 131.285  12.933  1.00  0.00     0.000 A 
ATOM     28  C   UNL     1      48.335 129.318  13.689  1.00  0.00     0.000 A 
ATOM     29  C   UNL     1      48.127 130.312  12.729  1.00  0.00     0.000 A 
ENDBRANCH  23  24
ENDBRANCH   3  21
BRANCH   4  30
ATOM     30  N   UNL     1      42.360 131.860  17.561  1.00  0.00    -0.399 N 
ATOM     31  H   UNL     1      41.903 132.751  17.265  1.00  0.00     0.156 HD
ATOM     32  H   UNL     1      42.038 130.988  17.086  1.00  0.00     0.156 HD
ENDBRANCH   4  30
TORSDOF 6
ENDMDL
MODEL 2
REMARK VINA RESULT:      -7.0      2.416      4.185
REMARK SMILES C=Cc1cc([C@@H]2O[C@H]2c2ccccc2)c(N)c([O-])c1[NH2+]c1ccc(C)c(F)c1
REMARK SMILES IDX 3 1 4 2 5 3 15 4 17 5 18 6 19 7 2 8 1 9 20 10 21 13 22 14
REMARK SMILES IDX 28 15 23 16 26 17 24 18 27 19 25 20 6 21 7 22 8 23 9 24
REMARK SMILES IDX 10 25 14 26 11 27 13 28 12 29 16 30
REMARK H PARENT 20 11 20 12 16 31 16 32
ROOT
ATOM      1  C   UNL     1      45.367 127.784  22.392  1.00  0.00     0.035 A 
ATOM      2  C   UNL     1      45.709 128.508  21.239  1.00  0.00     0.023 A 
ATOM      3  C   UNL     1      45.350 129.852  21.088  1.00  0.00     0.007 A 
ATOM      4  C   UNL     1      44.686 130.517  22.139  1.00  0.00     0.035 A 
ATOM      5  C   UNL     1      44.337 129.804  23.300  1.00  0.00    -0.020 A 
ATOM      6  O   UNL     1      43.659 130.464  24.322  1.00  0.00    -0.867 OA
ATOM      7  C   UNL     1      44.666 128.436  23.441  1.00  0.00     0.136 A 
ENDROOT
BRANCH   1   8
ATOM      8  C   UNL     1      45.778 126.363  22.502  1.00  0.00     0.006 C 
ATOM      9  C   UNL     1      45.146 125.381  21.861  1.00  0.00     0.009 C 
ENDBRANCH   1   8
BRANCH   7  10
ATOM     10  N   UNL     1      44.232 127.708  24.620  1.00  0.00    -0.281 N 
ATOM     11  H   UNL     1      44.985 127.055  24.935  1.00  0.00     0.358 HD
ATOM     12  H   UNL     1      44.073 128.349  25.430  1.00  0.00     0.358 HD
BRANCH  10  13
ATOM     13  C   UNL     1      43.001 127.001  24.354  1.00  0.00     0.137 A 
ATOM     14  C   UNL     1      42.890 125.625  24.624  1.00  0.00     0.068 A 
ATOM     15  C   UNL     1      41.886 127.683  23.833  1.00  0.00     0.107 A 
ATOM     16  C   UNL     1      41.700 124.943  24.359  1.00  0.00     0.012 A 
ATOM     17  C   UNL     1      40.694 127.001  23.568  1.00  0.00     0.132 A 
ATOM     18  C   UNL     1      40.592 125.627  23.836  1.00  0.00    -0.015 A 
ATOM     19  F   UNL     1      39.640 127.682  23.050  1.00  0.00    -0.206 F 
ATOM     20  C   UNL     1      39.320 124.891  23.529  1.00  0.00     0.047 C 
ENDBRANCH  10  13
ENDBRANCH   7  10
BRANCH   3  21
ATOM     21  C   UNL     1      45.746 130.569  19.825  1.00  0.00     0.185 C 
ATOM     22  O   UNL     1      44.794 131.545  19.463  1.00  0.00    -0.359 OA
ATOM     23  C   UNL     1      44.841 130.390  18.659  1.00  0.00     0.183 C 
BRANCH  23  24
ATOM     24  C   UNL     1      45.450 130.671  17.318  1.00  0.00    -0.016 A 
ATOM     25  C   UNL     1      45.274 131.928  16.718  1.00  0.00     0.006 A 
ATOM     26  C   UNL     1      46.247 129.706  16.683  1.00  0.00     0.006 A 
ATOM     27  C   UNL     1      45.867 132.205  15.482  1.00  0.00     0.000 A 
ATOM     28  C   UNL     1      46.838 129.987  15.447  1.00  0.00     0.000 A 
ATOM     29  C   UNL     1      46.646 131.234  14.845  1.00  0.00     0.000 A 
ENDBRANCH  23  24
ENDBRANCH   3  21
BRANCH   4  30
ATOM     30  N   UNL     1      44.371 131.916  22.044  1.00  0.00    -0.399 N 
ATOM     31  H   UNL     1      45.066 132.604  21.677  1.00  0.00     0.156 HD
ATOM     32  H   UNL     1      43.431 132.291  22.298  1.00  0.00     0.156 HD
ENDBRANCH   4  30
TORSDOF 6
ENDMDL
MODEL 3
REMARK VINA RESULT:      -6.6      2.694      4.145
REMARK SMILES C=Cc1cc([C@@H]2O[C@H]2c2ccccc2)c(N)c([O-])c1[NH2+]c1ccc(C)c(F)c1
REMARK SMILES IDX 3 1 4 2 5 3 15 4 17 5 18 6 19 7 2 8 1 9 20 10 21 13 22 14
REMARK SMILES IDX 28 15 23 16 26 17 24 18 27 19 25 20 6 21 7 22 8 23 9 24
REMARK SMILES IDX 10 25 14 26 11 27 13 28 12 29 16 30
REMARK H PARENT 20 11 20 12 16 31 16 32
ROOT
ATOM      1  C   UNL     1      43.596 130.545  22.927  1.00  0.00     0.035 A 
ATOM      2  C   UNL     1      44.157 131.050  21.743  1.00  0.00     0.023 A 
ATOM      3  C   UNL     1      45.085 130.309  21.003  1.00  0.00     0.007 A 
ATOM      4  C   UNL     1      45.422 129.003  21.416  1.00  0.00     0.035 A 
ATOM      5  C   UNL     1      44.867 128.486  22.600  1.00  0.00    -0.020 A 
ATOM      6  O   UNL     1      45.224 127.205  23.012  1.00  0.00    -0.867 OA
ATOM      7  C   UNL     1      43.956 129.245  23.371  1.00  0.00     0.136 A 
ENDROOT
BRANCH   1   8
ATOM      8  C   UNL     1      42.611 131.371  23.669  1.00  0.00     0.006 C 
ATOM      9  C   UNL     1      42.974 132.360  24.485  1.00  0.00     0.009 C 
ENDBRANCH   1   8
BRANCH   7  10
ATOM     10  N   UNL     1      43.453 128.713  24.625  1.00  0.00    -0.281 N 
ATOM     11  H   UNL     1      44.199 128.159  25.103  1.00  0.00     0.358 HD
ATOM     12  H   UNL     1      43.211 129.477  25.296  1.00  0.00     0.358 HD
BRANCH  10  13
ATOM     13  C   UNL     1      42.270 127.917  24.398  1.00  0.00     0.137 A 
ATOM     14  C   UNL     1      42.374 126.584  23.963  1.00  0.00     0.068 A 
ATOM     15  C   UNL     1      40.992 128.460  24.624  1.00  0.00     0.107 A 
ATOM     16  C   UNL     1      41.228 125.818  23.739  1.00  0.00     0.012 A 
ATOM     17  C   UNL     1      39.843 127.694  24.401  1.00  0.00     0.132 A 
ATOM     18  C   UNL     1      39.955 126.365  23.963  1.00  0.00    -0.015 A 
ATOM     19  F   UNL     1      38.623 128.250  24.612  1.00  0.00    -0.206 F 
ATOM     20  C   UNL     1      38.721 125.551  23.700  1.00  0.00     0.047 C 
ENDBRANCH  10  13
ENDBRANCH   7  10
BRANCH   3  21
ATOM     21  C   UNL     1      45.651 130.909  19.744  1.00  0.00     0.185 C 
ATOM     22  O   UNL     1      44.890 132.014  19.309  1.00  0.00    -0.359 OA
ATOM     23  C   UNL     1      44.783 130.841  18.538  1.00  0.00     0.183 C 
BRANCH  23  24
ATOM     24  C   UNL     1      45.490 130.974  17.223  1.00  0.00    -0.016 A 
ATOM     25  C   UNL     1      46.239 129.900  16.717  1.00  0.00     0.006 A 
ATOM     26  C   UNL     1      45.360 132.146  16.462  1.00  0.00     0.006 A 
ATOM     27  C   UNL     1      46.874 130.009  15.476  1.00  0.00     0.000 A 
ATOM     28  C   UNL     1      45.996 132.252  15.221  1.00  0.00     0.000 A 
ATOM     29  C   UNL     1      46.755 131.186  14.729  1.00  0.00     0.000 A 
ENDBRANCH  23  24
ENDBRANCH   3  21
BRANCH   4  30
ATOM     30  N   UNL     1      46.314 128.190  20.636  1.00  0.00    -0.399 N 
ATOM     31  H   UNL     1      46.782 128.565  19.782  1.00  0.00     0.156 HD
ATOM     32  H   UNL     1      46.559 127.214  20.913  1.00  0.00     0.156 HD
ENDBRANCH   4  30
TORSDOF 6
ENDMDL
MODEL 4
REMARK VINA RESULT:      -6.4      0.983      1.338
REMARK SMILES C=Cc1cc([C@@H]2O[C@H]2c2ccccc2)c(N)c([O-])c1[NH2+]c1ccc(C)c(F)c1
REMARK SMILES IDX 3 1 4 2 5 3 15 4 17 5 18 6 19 7 2 8 1 9 20 10 21 13 22 14
REMARK SMILES IDX 28 15 23 16 26 17 24 18 27 19 25 20 6 21 7 22 8 23 9 24
REMARK SMILES IDX 10 25 14 26 11 27 13 28 12 29 16 30
REMARK H PARENT 20 11 20 12 16 31 16 32
ROOT
ATOM      1  C   UNL     1      45.324 131.830  20.850  1.00  0.00     0.035 A 
ATOM      2  C   UNL     1      45.689 131.833  19.495  1.00  0.00     0.023 A 
ATOM      3  C   UNL     1      44.734 131.696  18.482  1.00  0.00     0.007 A 
ATOM      4  C   UNL     1      43.367 131.613  18.820  1.00  0.00     0.035 A 
ATOM      5  C   UNL     1      42.988 131.608  20.174  1.00  0.00    -0.020 A 
ATOM      6  O   UNL     1      41.638 131.501  20.498  1.00  0.00    -0.867 OA
ATOM      7  C   UNL     1      43.954 131.710  21.202  1.00  0.00     0.136 A 
ENDROOT
BRANCH   1   8
ATOM      8  C   UNL     1      46.378 131.985  21.883  1.00  0.00     0.006 C 
ATOM      9  C   UNL     1      47.234 133.007  21.887  1.00  0.00     0.009 C 
ENDBRANCH   1   8
BRANCH   7  10
ATOM     10  N   UNL     1      43.539 131.632  22.592  1.00  0.00    -0.281 N 
ATOM     11  H   UNL     1      44.217 132.148  23.197  1.00  0.00     0.358 HD
ATOM     12  H   UNL     1      42.622 132.109  22.746  1.00  0.00     0.358 HD
BRANCH  10  13
ATOM     13  C   UNL     1      43.409 130.253  23.003  1.00  0.00     0.137 A 
ATOM     14  C   UNL     1      44.457 129.340  22.794  1.00  0.00     0.068 A 
ATOM     15  C   UNL     1      42.234 129.807  23.636  1.00  0.00     0.107 A 
ATOM     16  C   UNL     1      44.326 128.006  23.188  1.00  0.00     0.012 A 
ATOM     17  C   UNL     1      42.102 128.473  24.032  1.00  0.00     0.132 A 
ATOM     18  C   UNL     1      43.151 127.565  23.815  1.00  0.00    -0.015 A 
ATOM     19  F   UNL     1      40.951 128.066  24.625  1.00  0.00    -0.206 F 
ATOM     20  C   UNL     1      42.998 126.126  24.218  1.00  0.00     0.047 C 
ENDBRANCH  10  13
ENDBRANCH   7  10
BRANCH   3  21
ATOM     21  C   UNL     1      45.193 131.706  17.048  1.00  0.00     0.185 C 
ATOM     22  O   UNL     1      44.247 131.097  16.196  1.00  0.00    -0.359 OA
ATOM     23  C   UNL     1      45.434 130.376  16.427  1.00  0.00     0.183 C 
BRANCH  23  24
ATOM     24  C   UNL     1      46.327 130.375  15.223  1.00  0.00    -0.016 A 
ATOM     25  C   UNL     1      46.427 131.525  14.424  1.00  0.00     0.006 A 
ATOM     26  C   UNL     1      47.112 129.252  14.921  1.00  0.00     0.006 A 
ATOM     27  C   UNL     1      47.284 131.539  13.319  1.00  0.00     0.000 A 
ATOM     28  C   UNL     1      47.966 129.270  13.815  1.00  0.00     0.000 A 
ATOM     29  C   UNL     1      48.051 130.411  13.012  1.00  0.00     0.000 A 
ENDBRANCH  23  24
ENDBRANCH   3  21
BRANCH   4  30
ATOM     30  N   UNL     1      42.357 131.547  17.799  1.00  0.00    -0.399 N 
ATOM     31  H   UNL     1      41.560 132.220  17.782  1.00  0.00     0.156 HD
ATOM     32  H   UNL     1      42.402 130.854  17.020  1.00  0.00     0.156 HD
ENDBRANCH   4  30
TORSDOF 6
ENDMDL
MODEL 5
REMARK VINA RESULT:      -6.1      0.938      1.585
REMARK SMILES C=Cc1cc([C@@H]2O[C@H]2c2ccccc2)c(N)c([O-])c1[NH2+]c1ccc(C)c(F)c1
REMARK SMILES IDX 3 1 4 2 5 3 15 4 17 5 18 6 19 7 2 8 1 9 20 10 21 13 22 14
REMARK SMILES IDX 28 15 23 16 26 17 24 18 27 19 25 20 6 21 7 22 8 23 9 24
REMARK SMILES IDX 10 25 14 26 11 27 13 28 12 29 16 30
REMARK H PARENT 20 11 20 12 16 31 16 32
ROOT
ATOM      1  C   UNL     1      45.258 131.522  20.197  1.00  0.00     0.035 A 
ATOM      2  C   UNL     1      45.644 131.442  18.850  1.00  0.00     0.023 A 
ATOM      3  C   UNL     1      44.706 131.530  17.816  1.00  0.00     0.007 A 
ATOM      4  C   UNL     1      43.351 131.767  18.124  1.00  0.00     0.035 A 
ATOM      5  C   UNL     1      42.950 131.848  19.469  1.00  0.00    -0.020 A 
ATOM      6  O   UNL     1      41.605 132.057  19.763  1.00  0.00    -0.867 OA
ATOM      7  C   UNL     1      43.890 131.723  20.519  1.00  0.00     0.136 A 
ENDROOT
BRANCH   1   8
ATOM      8  C   UNL     1      46.296 131.428  21.254  1.00  0.00     0.006 C 
ATOM      9  C   UNL     1      46.896 132.501  21.768  1.00  0.00     0.009 C 
ENDBRANCH   1   8
BRANCH   7  10
ATOM     10  N   UNL     1      43.437 131.741  21.898  1.00  0.00    -0.281 N 
ATOM     11  H   UNL     1      44.012 132.413  22.455  1.00  0.00     0.358 HD
ATOM     12  H   UNL     1      42.457 132.096  21.975  1.00  0.00     0.358 HD
BRANCH  10  13
ATOM     13  C   UNL     1      43.485 130.413  22.464  1.00  0.00     0.137 A 
ATOM     14  C   UNL     1      44.578 129.566  22.213  1.00  0.00     0.068 A 
ATOM     15  C   UNL     1      42.443 129.953  23.290  1.00  0.00     0.107 A 
ATOM     16  C   UNL     1      44.619 128.279  22.757  1.00  0.00     0.012 A 
ATOM     17  C   UNL     1      42.483 128.666  23.835  1.00  0.00     0.132 A 
ATOM     18  C   UNL     1      43.576 127.823  23.577  1.00  0.00    -0.015 A 
ATOM     19  F   UNL     1      41.456 128.242  24.614  1.00  0.00    -0.206 F 
ATOM     20  C   UNL     1      43.607 126.432  24.142  1.00  0.00     0.047 C 
ENDBRANCH  10  13
ENDBRANCH   7  10
BRANCH   3  21
ATOM     21  C   UNL     1      45.187 131.435  16.392  1.00  0.00     0.185 C 
ATOM     22  O   UNL     1      44.405 130.535  15.639  1.00  0.00    -0.359 OA
ATOM     23  C   UNL     1      45.708 130.110  15.963  1.00  0.00     0.183 C 
BRANCH  23  24
ATOM     24  C   UNL     1      46.611 130.125  14.767  1.00  0.00    -0.016 A 
ATOM     25  C   UNL     1      47.788 129.361  14.767  1.00  0.00     0.006 A 
ATOM     26  C   UNL     1      46.257 130.851  13.619  1.00  0.00     0.006 A 
ATOM     27  C   UNL     1      48.616 129.347  13.640  1.00  0.00     0.000 A 
ATOM     28  C   UNL     1      47.088 130.835  12.494  1.00  0.00     0.000 A 
ATOM     29  C   UNL     1      48.268 130.086  12.505  1.00  0.00     0.000 A 
ENDBRANCH  23  24
ENDBRANCH   3  21
BRANCH   4  30
ATOM     30  N   UNL     1      42.376 131.937  17.081  1.00  0.00    -0.399 N 
ATOM     31  H   UNL     1      41.405 132.256  17.294  1.00  0.00     0.156 HD
ATOM     32  H   UNL     1      42.610 131.789  16.075  1.00  0.00     0.156 HD
ENDBRANCH   4  30
TORSDOF 6
ENDMDL
MODEL 6
REMARK VINA RESULT:      -5.9      2.283      3.854
REMARK SMILES C=Cc1cc([C@@H]2O[C@H]2c2ccccc2)c(N)c([O-])c1[NH2+]c1ccc(C)c(F)c1
REMARK SMILES IDX 3 1 4 2 5 3 15 4 17 5 18 6 19 7 2 8 1 9 20 10 21 13 22 14
REMARK SMILES IDX 28 15 23 16 26 17 24 18 27 19 25 20 6 21 7 22 8 23 9 24
REMARK SMILES IDX 10 25 14 26 11 27 13 28 12 29 16 30
REMARK H PARENT 20 11 20 12 16 31 16 32
ROOT
ATOM      1  C   UNL     1      45.106 128.206  22.756  1.00  0.00     0.035 A 
ATOM      2  C   UNL     1      45.615 128.625  21.517  1.00  0.00     0.023 A 
ATOM      3  C   UNL     1      45.110 129.755  20.865  1.00  0.00     0.007 A 
ATOM      4  C   UNL     1      44.111 130.530  21.490  1.00  0.00     0.035 A 
ATOM      5  C   UNL     1      43.591 130.122  22.731  1.00  0.00    -0.020 A 
ATOM      6  O   UNL     1      42.587 130.880  23.328  1.00  0.00    -0.867 OA
ATOM      7  C   UNL     1      44.074 128.959  23.376  1.00  0.00     0.136 A 
ENDROOT
BRANCH   1   8
ATOM      8  C   UNL     1      45.684 127.003  23.406  1.00  0.00     0.006 C 
ATOM      9  C   UNL     1      46.572 126.217  22.800  1.00  0.00     0.009 C 
ENDBRANCH   1   8
BRANCH   7  10
ATOM     10  N   UNL     1      43.471 128.523  24.623  1.00  0.00    -0.281 N 
ATOM     11  H   UNL     1      44.185 128.046  25.218  1.00  0.00     0.358 HD
ATOM     12  H   UNL     1      43.141 129.334  25.194  1.00  0.00     0.358 HD
BRANCH  10  13
ATOM     13  C   UNL     1      42.341 127.661  24.364  1.00  0.00     0.137 A 
ATOM     14  C   UNL     1      41.027 128.146  24.483  1.00  0.00     0.068 A 
ATOM     15  C   UNL     1      42.540 126.325  23.972  1.00  0.00     0.107 A 
ATOM     16  C   UNL     1      39.936 127.309  24.238  1.00  0.00     0.012 A 
ATOM     17  C   UNL     1      41.449 125.486  23.725  1.00  0.00     0.132 A 
ATOM     18  C   UNL     1      40.139 125.975  23.851  1.00  0.00    -0.015 A 
ATOM     19  F   UNL     1      41.671 124.196  23.365  1.00  0.00    -0.206 F 
ATOM     20  C   UNL     1      38.968 125.067  23.610  1.00  0.00     0.047 C 
ENDBRANCH  10  13
ENDBRANCH   7  10
BRANCH   3  21
ATOM     21  C   UNL     1      45.699 130.149  19.537  1.00  0.00     0.185 C 
ATOM     22  O   UNL     1      45.694 131.548  19.361  1.00  0.00    -0.359 OA
ATOM     23  C   UNL     1      44.776 130.818  18.583  1.00  0.00     0.183 C 
BRANCH  23  24
ATOM     24  C   UNL     1      45.186 130.769  17.142  1.00  0.00    -0.016 A 
ATOM     25  C   UNL     1      45.037 129.580  16.411  1.00  0.00     0.006 A 
ATOM     26  C   UNL     1      45.663 131.921  16.499  1.00  0.00     0.006 A 
ATOM     27  C   UNL     1      45.389 129.538  15.058  1.00  0.00     0.000 A 
ATOM     28  C   UNL     1      46.014 131.876  15.146  1.00  0.00     0.000 A 
ATOM     29  C   UNL     1      45.881 130.686  14.426  1.00  0.00     0.000 A 
ENDBRANCH  23  24
ENDBRANCH   3  21
BRANCH   4  30
ATOM     30  N   UNL     1      43.625 131.738  20.880  1.00  0.00    -0.399 N 
ATOM     31  H   UNL     1      43.717 132.661  21.358  1.00  0.00     0.156 HD
ATOM     32  H   UNL     1      43.201 131.744  19.926  1.00  0.00     0.156 HD
ENDBRANCH   4  30
TORSDOF 6
ENDMDL
MODEL 7
REMARK VINA RESULT:      -4.9      2.034      2.843
REMARK SMILES C=Cc1cc([C@@H]2O[C@H]2c2ccccc2)c(N)c([O-])c1[NH2+]c1ccc(C)c(F)c1
REMARK SMILES IDX 3 1 4 2 5 3 15 4 17 5 18 6 19 7 2 8 1 9 20 10 21 13 22 14
REMARK SMILES IDX 28 15 23 16 26 17 24 18 27 19 25 20 6 21 7 22 8 23 9 24
REMARK SMILES IDX 10 25 14 26 11 27 13 28 12 29 16 30
REMARK H PARENT 20 11 20 12 16 31 16 32
ROOT
ATOM      1  C   UNL     1      43.025 132.083  20.932  1.00  0.00     0.035 A 
ATOM      2  C   UNL     1      43.679 132.187  19.694  1.00  0.00     0.023 A 
ATOM      3  C   UNL     1      44.799 131.405  19.393  1.00  0.00     0.007 A 
ATOM      4  C   UNL     1      45.249 130.445  20.323  1.00  0.00     0.035 A 
ATOM      5  C   UNL     1      44.604 130.330  21.567  1.00  0.00    -0.020 A 
ATOM      6  O   UNL     1      45.070 129.396  22.489  1.00  0.00    -0.867 OA
ATOM      7  C   UNL     1      43.493 131.144  21.890  1.00  0.00     0.136 A 
ENDROOT
BRANCH   1   8
ATOM      8  C   UNL     1      41.838 132.932  21.196  1.00  0.00     0.006 C 
ATOM      9  C   UNL     1      40.838 133.060  20.325  1.00  0.00     0.009 C 
ENDBRANCH   1   8
BRANCH   7  10
ATOM     10  N   UNL     1      42.890 131.053  23.208  1.00  0.00    -0.281 N 
ATOM     11  H   UNL     1      43.492 131.538  23.911  1.00  0.00     0.358 HD
ATOM     12  H   UNL     1      41.973 131.553  23.245  1.00  0.00     0.358 HD
BRANCH  10  13
ATOM     13  C   UNL     1      42.669 129.672  23.568  1.00  0.00     0.137 A 
ATOM     14  C   UNL     1      43.644 128.952  24.281  1.00  0.00     0.068 A 
ATOM     15  C   UNL     1      41.466 129.029  23.224  1.00  0.00     0.107 A 
ATOM     16  C   UNL     1      43.430 127.614  24.623  1.00  0.00     0.012 A 
ATOM     17  C   UNL     1      41.250 127.691  23.566  1.00  0.00     0.132 A 
ATOM     18  C   UNL     1      42.230 126.976  24.274  1.00  0.00    -0.015 A 
ATOM     19  F   UNL     1      40.087 127.092  23.206  1.00  0.00    -0.206 F 
ATOM     20  C   UNL     1      42.008 125.532  24.620  1.00  0.00     0.047 C 
ENDBRANCH  10  13
ENDBRANCH   7  10
BRANCH   3  21
ATOM     21  C   UNL     1      45.455 131.568  18.048  1.00  0.00     0.185 C 
ATOM     22  O   UNL     1      44.635 132.289  17.155  1.00  0.00    -0.359 OA
ATOM     23  C   UNL     1      44.772 130.911  16.901  1.00  0.00     0.183 C 
BRANCH  23  24
ATOM     24  C   UNL     1      45.629 130.650  15.700  1.00  0.00    -0.016 A 
ATOM     25  C   UNL     1      45.473 131.431  14.544  1.00  0.00     0.006 A 
ATOM     26  C   UNL     1      46.631 129.668  15.741  1.00  0.00     0.006 A 
ATOM     27  C   UNL     1      46.293 131.211  13.432  1.00  0.00     0.000 A 
ATOM     28  C   UNL     1      47.449 129.451  14.628  1.00  0.00     0.000 A 
ATOM     29  C   UNL     1      47.279 130.220  13.473  1.00  0.00     0.000 A 
ENDBRANCH  23  24
ENDBRANCH   3  21
BRANCH   4  30
ATOM     30  N   UNL     1      46.350 129.575  20.012  1.00  0.00    -0.399 N 
ATOM     31  H   UNL     1      46.260 128.823  19.294  1.00  0.00     0.156 HD
ATOM     32  H   UNL     1      47.286 129.686  20.459  1.00  0.00     0.156 HD
ENDBRANCH   4  30
TORSDOF 6
ENDMDL
MODEL 8
REMARK VINA RESULT:      -4.8      6.476      9.568
REMARK SMILES C=Cc1cc([C@@H]2O[C@H]2c2ccccc2)c(N)c([O-])c1[NH2+]c1ccc(C)c(F)c1
REMARK SMILES IDX 3 1 4 2 5 3 15 4 17 5 18 6 19 7 2 8 1 9 20 10 21 13 22 14
REMARK SMILES IDX 28 15 23 16 26 17 24 18 27 19 25 20 6 21 7 22 8 23 9 24
REMARK SMILES IDX 10 25 14 26 11 27 13 28 12 29 16 30
REMARK H PARENT 20 11 20 12 16 31 16 32
ROOT
ATOM      1  C   UNL     1      48.710 125.156  23.760  1.00  0.00     0.035 A 
ATOM      2  C   UNL     1      47.816 126.223  23.942  1.00  0.00     0.023 A 
ATOM      3  C   UNL     1      46.431 126.030  23.893  1.00  0.00     0.007 A 
ATOM      4  C   UNL     1      45.915 124.730  23.718  1.00  0.00     0.035 A 
ATOM      5  C   UNL     1      46.799 123.652  23.534  1.00  0.00    -0.020 A 
ATOM      6  O   UNL     1      46.279 122.375  23.338  1.00  0.00    -0.867 OA
ATOM      7  C   UNL     1      48.200 123.848  23.547  1.00  0.00     0.136 A 
ENDROOT
BRANCH   1   8
ATOM      8  C   UNL     1      50.170 125.415  23.829  1.00  0.00     0.006 C 
ATOM      9  C   UNL     1      50.713 126.568  23.438  1.00  0.00     0.009 C 
ENDBRANCH   1   8
BRANCH   7  10
ATOM     10  N   UNL     1      49.087 122.729  23.285  1.00  0.00    -0.281 N 
ATOM     11  H   UNL     1      49.856 122.708  23.993  1.00  0.00     0.358 HD
ATOM     12  H   UNL     1      48.593 121.814  23.395  1.00  0.00     0.358 HD
BRANCH  10  13
ATOM     13  C   UNL     1      49.611 122.803  21.941  1.00  0.00     0.137 A 
ATOM     14  C   UNL     1      48.772 123.131  20.861  1.00  0.00     0.068 A 
ATOM     15  C   UNL     1      50.975 122.562  21.694  1.00  0.00     0.107 A 
ATOM     16  C   UNL     1      49.280 123.197  19.562  1.00  0.00     0.012 A 
ATOM     17  C   UNL     1      51.485 122.628  20.394  1.00  0.00     0.132 A 
ATOM     18  C   UNL     1      50.641 122.953  19.319  1.00  0.00    -0.015 A 
ATOM     19  F   UNL     1      52.802 122.375  20.183  1.00  0.00    -0.206 F 
ATOM     20  C   UNL     1      51.184 122.999  17.920  1.00  0.00     0.047 C 
ENDBRANCH  10  13
ENDBRANCH   7  10
BRANCH   3  21
ATOM     21  C   UNL     1      45.528 127.218  24.095  1.00  0.00     0.185 C 
ATOM     22  O   UNL     1      44.168 126.846  24.069  1.00  0.00    -0.359 OA
ATOM     23  C   UNL     1      44.639 127.566  22.955  1.00  0.00     0.183 C 
BRANCH  23  24
ATOM     24  C   UNL     1      44.121 128.973  22.944  1.00  0.00    -0.016 A 
ATOM     25  C   UNL     1      43.060 129.336  23.788  1.00  0.00     0.006 A 
ATOM     26  C   UNL     1      44.729 129.948  22.139  1.00  0.00     0.006 A 
ATOM     27  C   UNL     1      42.594 130.654  23.804  1.00  0.00     0.000 A 
ATOM     28  C   UNL     1      44.261 131.266  22.157  1.00  0.00     0.000 A 
ATOM     29  C   UNL     1      43.193 131.619  22.987  1.00  0.00     0.000 A 
ENDBRANCH  23  24
ENDBRANCH   3  21
BRANCH   4  30
ATOM     30  N   UNL     1      44.498 124.490  23.738  1.00  0.00    -0.399 N 
ATOM     31  H   UNL     1      43.817 125.273  23.852  1.00  0.00     0.156 HD
ATOM     32  H   UNL     1      44.096 123.537  23.601  1.00  0.00     0.156 HD
ENDBRANCH   4  30
TORSDOF 6
ENDMDL


