MODEL 1
REMARK VINA RESULT:      -8.8      0.000      0.000
REMARK SMILES [N-]=[N+]=N/C(=C\Cc1c(F)cccc1F)c1ccccc1
REMARK SMILES IDX 5 1 4 2 3 3 2 4 1 5 15 6 16 7 20 8 17 9 19 10 18 11 6 12
REMARK SMILES IDX 7 13 8 14 13 15 10 16 12 17 11 18 9 19 14 20
REMARK H PARENT
ROOT
ATOM      1  C   UNL     1      45.370 130.944  17.674  1.00  0.00    -0.011 C 
ENDROOT
BRANCH   1   2
ATOM      2  C   UNL     1      45.076 131.077  16.371  1.00  0.00     0.041 C 
BRANCH   2   3
ATOM      3  N   UNL     1      43.781 131.568  15.987  1.00  0.00    -0.060 NA
BRANCH   3   4
ATOM      4  N   UNL     1      43.416 131.607  14.812  1.00  0.00     0.005 N 
ATOM      5  N   UNL     1      43.050 131.650  13.638  1.00  0.00    -0.003 NA
ENDBRANCH   3   4
ENDBRANCH   2   3
BRANCH   2   6
ATOM      6  C   UNL     1      46.092 130.725  15.346  1.00  0.00    -0.016 A 
ATOM      7  C   UNL     1      46.605 131.714  14.489  1.00  0.00     0.008 A 
ATOM      8  C   UNL     1      46.563 129.405  15.227  1.00  0.00     0.008 A 
ATOM      9  C   UNL     1      47.564 131.386  13.526  1.00  0.00     0.001 A 
ATOM     10  C   UNL     1      47.523 129.081  14.263  1.00  0.00     0.001 A 
ATOM     11  C   UNL     1      48.022 130.071  13.413  1.00  0.00     0.000 A 
ENDBRANCH   2   6
ENDBRANCH   1   2
BRANCH   1  12
ATOM     12  C   UNL     1      45.195 132.074  18.652  1.00  0.00     0.069 C 
BRANCH  12  13
ATOM     13  C   UNL     1      44.535 131.588  19.918  1.00  0.00     0.027 A 
ATOM     14  C   UNL     1      43.226 131.996  20.242  1.00  0.00     0.129 A 
ATOM     15  C   UNL     1      45.243 130.771  20.822  1.00  0.00     0.129 A 
ATOM     16  C   UNL     1      42.631 131.569  21.433  1.00  0.00     0.040 A 
ATOM     17  C   UNL     1      44.639 130.349  22.011  1.00  0.00     0.040 A 
ATOM     18  C   UNL     1      43.334 130.745  22.315  1.00  0.00     0.006 A 
ATOM     19  F   UNL     1      42.530 132.811  19.410  1.00  0.00    -0.207 F 
ATOM     20  F   UNL     1      46.518 130.389  20.556  1.00  0.00    -0.207 F 
ENDBRANCH  12  13
ENDBRANCH   1  12
TORSDOF 6
ENDMDL
MODEL 2
REMARK VINA RESULT:      -8.8      0.120      1.089
REMARK SMILES [N-]=[N+]=N/C(=C\Cc1c(F)cccc1F)c1ccccc1
REMARK SMILES IDX 5 1 4 2 3 3 2 4 1 5 15 6 16 7 20 8 17 9 19 10 18 11 6 12
REMARK SMILES IDX 7 13 8 14 13 15 10 16 12 17 11 18 9 19 14 20
REMARK H PARENT
ROOT
ATOM      1  C   UNL     1      45.435 131.063  17.648  1.00  0.00    -0.011 C 
ENDROOT
BRANCH   1   2
ATOM      2  C   UNL     1      45.136 131.153  16.343  1.00  0.00     0.041 C 
BRANCH   2   3
ATOM      3  N   UNL     1      43.840 131.631  15.947  1.00  0.00    -0.060 NA
BRANCH   3   4
ATOM      4  N   UNL     1      43.449 131.580  14.781  1.00  0.00     0.005 N 
ATOM      5  N   UNL     1      43.056 131.528  13.616  1.00  0.00    -0.003 NA
ENDBRANCH   3   4
ENDBRANCH   2   3
BRANCH   2   6
ATOM      6  C   UNL     1      46.149 130.769  15.327  1.00  0.00    -0.016 A 
ATOM      7  C   UNL     1      46.617 129.445  15.258  1.00  0.00     0.008 A 
ATOM      8  C   UNL     1      46.644 131.718  14.414  1.00  0.00     0.008 A 
ATOM      9  C   UNL     1      47.567 129.081  14.299  1.00  0.00     0.001 A 
ATOM     10  C   UNL     1      47.595 131.349  13.457  1.00  0.00     0.001 A 
ATOM     11  C   UNL     1      48.057 130.031  13.400  1.00  0.00     0.000 A 
ENDBRANCH   2   6
ENDBRANCH   1   2
BRANCH   1  12
ATOM     12  C   UNL     1      45.108 132.163  18.622  1.00  0.00     0.069 C 
BRANCH  12  13
ATOM     13  C   UNL     1      44.528 131.597  19.894  1.00  0.00     0.027 A 
ATOM     14  C   UNL     1      43.216 131.925  20.287  1.00  0.00     0.129 A 
ATOM     15  C   UNL     1      45.314 130.785  20.735  1.00  0.00     0.129 A 
ATOM     16  C   UNL     1      42.694 131.424  21.484  1.00  0.00     0.040 A 
ATOM     17  C   UNL     1      44.783 130.288  21.930  1.00  0.00     0.040 A 
ATOM     18  C   UNL     1      43.475 130.605  22.302  1.00  0.00     0.006 A 
ATOM     19  F   UNL     1      42.445 132.733  19.516  1.00  0.00    -0.207 F 
ATOM     20  F   UNL     1      46.594 130.479  20.402  1.00  0.00    -0.207 F 
ENDBRANCH  12  13
ENDBRANCH   1  12
TORSDOF 6
ENDMDL
MODEL 3
REMARK VINA RESULT:      -8.7      0.078      2.159
REMARK SMILES [N-]=[N+]=N/C(=C\Cc1c(F)cccc1F)c1ccccc1
REMARK SMILES IDX 5 1 4 2 3 3 2 4 1 5 15 6 16 7 20 8 17 9 19 10 18 11 6 12
REMARK SMILES IDX 7 13 8 14 13 15 10 16 12 17 11 18 9 19 14 20
REMARK H PARENT
ROOT
ATOM      1  C   UNL     1      45.296 130.938  17.662  1.00  0.00    -0.011 C 
ENDROOT
BRANCH   1   2
ATOM      2  C   UNL     1      45.064 131.146  16.356  1.00  0.00     0.041 C 
BRANCH   2   3
ATOM      3  N   UNL     1      43.825 131.746  15.946  1.00  0.00    -0.060 NA
BRANCH   3   4
ATOM      4  N   UNL     1      43.407 131.668  14.790  1.00  0.00     0.005 N 
ATOM      5  N   UNL     1      42.992 131.588  13.635  1.00  0.00    -0.003 NA
ENDBRANCH   3   4
ENDBRANCH   2   3
BRANCH   2   6
ATOM      6  C   UNL     1      46.094 130.764  15.355  1.00  0.00    -0.016 A 
ATOM      7  C   UNL     1      46.586 129.449  15.311  1.00  0.00     0.008 A 
ATOM      8  C   UNL     1      46.580 131.709  14.432  1.00  0.00     0.008 A 
ATOM      9  C   UNL     1      47.552 129.087  14.368  1.00  0.00     0.001 A 
ATOM     10  C   UNL     1      47.546 131.342  13.489  1.00  0.00     0.001 A 
ATOM     11  C   UNL     1      48.032 130.032  13.458  1.00  0.00     0.000 A 
ENDBRANCH   2   6
ENDBRANCH   1   2
BRANCH   1  12
ATOM     12  C   UNL     1      45.257 132.055  18.669  1.00  0.00     0.069 C 
BRANCH  12  13
ATOM     13  C   UNL     1      44.598 131.601  19.947  1.00  0.00     0.027 A 
ATOM     14  C   UNL     1      45.276 130.741  20.833  1.00  0.00     0.129 A 
ATOM     15  C   UNL     1      43.272 131.980  20.237  1.00  0.00     0.129 A 
ATOM     16  C   UNL     1      44.647 130.297  22.001  1.00  0.00     0.040 A 
ATOM     17  C   UNL     1      42.652 131.530  21.408  1.00  0.00     0.040 A 
ATOM     18  C   UNL     1      43.339 130.692  22.289  1.00  0.00     0.006 A 
ATOM     19  F   UNL     1      46.540 130.329  20.564  1.00  0.00    -0.207 F 
ATOM     20  F   UNL     1      42.579 132.779  19.387  1.00  0.00    -0.207 F 
ENDBRANCH  12  13
ENDBRANCH   1  12
TORSDOF 6
ENDMDL
MODEL 4
REMARK VINA RESULT:      -8.7      0.132      1.869
REMARK SMILES [N-]=[N+]=N/C(=C\Cc1c(F)cccc1F)c1ccccc1
REMARK SMILES IDX 5 1 4 2 3 3 2 4 1 5 15 6 16 7 20 8 17 9 19 10 18 11 6 12
REMARK SMILES IDX 7 13 8 14 13 15 10 16 12 17 11 18 9 19 14 20
REMARK H PARENT
ROOT
ATOM      1  C   UNL     1      45.315 130.814  17.612  1.00  0.00    -0.011 C 
ENDROOT
BRANCH   1   2
ATOM      2  C   UNL     1      45.078 131.054  16.313  1.00  0.00     0.041 C 
BRANCH   2   3
ATOM      3  N   UNL     1      43.832 131.654  15.922  1.00  0.00    -0.060 NA
BRANCH   3   4
ATOM      4  N   UNL     1      43.424 131.624  14.761  1.00  0.00     0.005 N 
ATOM      5  N   UNL     1      43.018 131.596  13.600  1.00  0.00    -0.003 NA
ENDBRANCH   3   4
ENDBRANCH   2   3
BRANCH   2   6
ATOM      6  C   UNL     1      46.107 130.706  15.300  1.00  0.00    -0.016 A 
ATOM      7  C   UNL     1      46.571 131.680  14.398  1.00  0.00     0.008 A 
ATOM      8  C   UNL     1      46.639 129.405  15.236  1.00  0.00     0.008 A 
ATOM      9  C   UNL     1      47.542 131.356  13.446  1.00  0.00     0.001 A 
ATOM     10  C   UNL     1      47.611 129.086  14.282  1.00  0.00     0.001 A 
ATOM     11  C   UNL     1      48.061 130.060  13.388  1.00  0.00     0.000 A 
ENDBRANCH   2   6
ENDBRANCH   1   2
BRANCH   1  12
ATOM     12  C   UNL     1      45.373 131.919  18.632  1.00  0.00     0.069 C 
BRANCH  12  13
ATOM     13  C   UNL     1      44.654 131.519  19.896  1.00  0.00     0.027 A 
ATOM     14  C   UNL     1      45.273 130.664  20.828  1.00  0.00     0.129 A 
ATOM     15  C   UNL     1      43.331 131.945  20.127  1.00  0.00     0.129 A 
ATOM     16  C   UNL     1      44.589 130.270  21.984  1.00  0.00     0.040 A 
ATOM     17  C   UNL     1      42.656 131.546  21.285  1.00  0.00     0.040 A 
ATOM     18  C   UNL     1      43.285 130.712  22.213  1.00  0.00     0.006 A 
ATOM     19  F   UNL     1      46.534 130.208  20.618  1.00  0.00    -0.207 F 
ATOM     20  F   UNL     1      42.694 132.741  19.231  1.00  0.00    -0.207 F 
ENDBRANCH  12  13
ENDBRANCH   1  12
TORSDOF 6
ENDMDL
MODEL 5
REMARK VINA RESULT:      -7.9      1.355      2.533
REMARK SMILES [N-]=[N+]=N/C(=C\Cc1c(F)cccc1F)c1ccccc1
REMARK SMILES IDX 5 1 4 2 3 3 2 4 1 5 15 6 16 7 20 8 17 9 19 10 18 11 6 12
REMARK SMILES IDX 7 13 8 14 13 15 10 16 12 17 11 18 9 19 14 20
REMARK H PARENT
ROOT
ATOM      1  C   UNL     1      45.162 131.001  18.608  1.00  0.00    -0.011 C 
ENDROOT
BRANCH   1   2
ATOM      2  C   UNL     1      44.755 131.307  17.367  1.00  0.00     0.041 C 
BRANCH   2   3
ATOM      3  N   UNL     1      43.513 132.004  17.183  1.00  0.00    -0.060 NA
BRANCH   3   4
ATOM      4  N   UNL     1      42.545 131.831  17.924  1.00  0.00     0.005 N 
ATOM      5  N   UNL     1      41.579 131.659  18.667  1.00  0.00    -0.003 NA
ENDBRANCH   3   4
ENDBRANCH   2   3
BRANCH   2   6
ATOM      6  C   UNL     1      45.598 130.933  16.201  1.00  0.00    -0.016 A 
ATOM      7  C   UNL     1      46.115 131.927  15.352  1.00  0.00     0.008 A 
ATOM      8  C   UNL     1      45.899 129.584  15.939  1.00  0.00     0.008 A 
ATOM      9  C   UNL     1      46.911 131.577  14.258  1.00  0.00     0.001 A 
ATOM     10  C   UNL     1      46.696 129.238  14.843  1.00  0.00     0.001 A 
ATOM     11  C   UNL     1      47.201 130.234  14.002  1.00  0.00     0.000 A 
ENDBRANCH   2   6
ENDBRANCH   1   2
BRANCH   1  12
ATOM     12  C   UNL     1      44.931 131.921  19.776  1.00  0.00     0.069 C 
BRANCH  12  13
ATOM     13  C   UNL     1      44.481 131.145  20.988  1.00  0.00     0.027 A 
ATOM     14  C   UNL     1      45.159 129.973  21.377  1.00  0.00     0.129 A 
ATOM     15  C   UNL     1      43.338 131.547  21.707  1.00  0.00     0.129 A 
ATOM     16  C   UNL     1      44.718 129.239  22.482  1.00  0.00     0.040 A 
ATOM     17  C   UNL     1      42.905 130.806  22.812  1.00  0.00     0.040 A 
ATOM     18  C   UNL     1      43.595 129.656  23.200  1.00  0.00     0.006 A 
ATOM     19  F   UNL     1      46.242 129.538  20.683  1.00  0.00    -0.207 F 
ATOM     20  F   UNL     1      42.642 132.652  21.338  1.00  0.00    -0.207 F 
ENDBRANCH  12  13
ENDBRANCH   1  12
TORSDOF 6
ENDMDL
MODEL 6
REMARK VINA RESULT:      -7.6      1.610      2.865
REMARK SMILES [N-]=[N+]=N/C(=C\Cc1c(F)cccc1F)c1ccccc1
REMARK SMILES IDX 5 1 4 2 3 3 2 4 1 5 15 6 16 7 20 8 17 9 19 10 18 11 6 12
REMARK SMILES IDX 7 13 8 14 13 15 10 16 12 17 11 18 9 19 14 20
REMARK H PARENT
ROOT
ATOM      1  C   UNL     1      45.205 131.624  18.690  1.00  0.00    -0.011 C 
ENDROOT
BRANCH   1   2
ATOM      2  C   UNL     1      44.631 131.405  17.497  1.00  0.00     0.041 C 
BRANCH   2   3
ATOM      3  N   UNL     1      43.214 131.590  17.349  1.00  0.00    -0.060 NA
BRANCH   3   4
ATOM      4  N   UNL     1      42.505 131.998  18.270  1.00  0.00     0.005 N 
ATOM      5  N   UNL     1      41.798 132.407  19.190  1.00  0.00    -0.003 NA
ENDBRANCH   3   4
ENDBRANCH   2   3
BRANCH   2   6
ATOM      6  C   UNL     1      45.468 130.984  16.343  1.00  0.00    -0.016 A 
ATOM      7  C   UNL     1      45.677 129.619  16.080  1.00  0.00     0.008 A 
ATOM      8  C   UNL     1      46.050 131.942  15.493  1.00  0.00     0.008 A 
ATOM      9  C   UNL     1      46.460 129.221  14.993  1.00  0.00     0.001 A 
ATOM     10  C   UNL     1      46.833 131.540  14.407  1.00  0.00     0.001 A 
ATOM     11  C   UNL     1      47.039 130.180  14.157  1.00  0.00     0.000 A 
ENDBRANCH   2   6
ENDBRANCH   1   2
BRANCH   1  12
ATOM     12  C   UNL     1      45.795 130.510  19.510  1.00  0.00     0.069 C 
BRANCH  12  13
ATOM     13  C   UNL     1      45.154 130.452  20.874  1.00  0.00     0.027 A 
ATOM     14  C   UNL     1      45.146 129.250  21.608  1.00  0.00     0.129 A 
ATOM     15  C   UNL     1      44.500 131.583  21.402  1.00  0.00     0.129 A 
ATOM     16  C   UNL     1      44.521 129.193  22.859  1.00  0.00     0.040 A 
ATOM     17  C   UNL     1      43.878 131.516  22.653  1.00  0.00     0.040 A 
ATOM     18  C   UNL     1      43.891 130.324  23.381  1.00  0.00     0.006 A 
ATOM     19  F   UNL     1      45.736 128.133  21.112  1.00  0.00    -0.207 F 
ATOM     20  F   UNL     1      44.459 132.747  20.704  1.00  0.00    -0.207 F 
ENDBRANCH  12  13
ENDBRANCH   1  12
TORSDOF 6
ENDMDL
MODEL 7
REMARK VINA RESULT:      -7.4      1.463      2.127
REMARK SMILES [N-]=[N+]=N/C(=C\Cc1c(F)cccc1F)c1ccccc1
REMARK SMILES IDX 5 1 4 2 3 3 2 4 1 5 15 6 16 7 20 8 17 9 19 10 18 11 6 12
REMARK SMILES IDX 7 13 8 14 13 15 10 16 12 17 11 18 9 19 14 20
REMARK H PARENT
ROOT
ATOM      1  C   UNL     1      45.281 131.159  18.650  1.00  0.00    -0.011 C 
ENDROOT
BRANCH   1   2
ATOM      2  C   UNL     1      44.736 131.397  17.447  1.00  0.00     0.041 C 
BRANCH   2   3
ATOM      3  N   UNL     1      43.466 132.063  17.368  1.00  0.00    -0.060 NA
BRANCH   3   4
ATOM      4  N   UNL     1      42.498 131.718  18.046  1.00  0.00     0.005 N 
ATOM      5  N   UNL     1      41.530 131.372  18.722  1.00  0.00    -0.003 NA
ENDBRANCH   3   4
ENDBRANCH   2   3
BRANCH   2   6
ATOM      6  C   UNL     1      45.455 130.979  16.216  1.00  0.00    -0.016 A 
ATOM      7  C   UNL     1      46.444 129.981  16.277  1.00  0.00     0.008 A 
ATOM      8  C   UNL     1      45.149 131.564  14.974  1.00  0.00     0.008 A 
ATOM      9  C   UNL     1      47.119 129.584  15.119  1.00  0.00     0.001 A 
ATOM     10  C   UNL     1      45.827 131.164  13.818  1.00  0.00     0.001 A 
ATOM     11  C   UNL     1      46.811 130.175  13.891  1.00  0.00     0.000 A 
ENDBRANCH   2   6
ENDBRANCH   1   2
BRANCH   1  12
ATOM     12  C   UNL     1      44.949 131.992  19.858  1.00  0.00     0.069 C 
BRANCH  12  13
ATOM     13  C   UNL     1      44.442 131.126  20.983  1.00  0.00     0.027 A 
ATOM     14  C   UNL     1      43.288 131.493  21.702  1.00  0.00     0.129 A 
ATOM     15  C   UNL     1      45.154 129.972  21.369  1.00  0.00     0.129 A 
ATOM     16  C   UNL     1      42.841 130.703  22.766  1.00  0.00     0.040 A 
ATOM     17  C   UNL     1      44.698 129.188  22.435  1.00  0.00     0.040 A 
ATOM     18  C   UNL     1      43.542 129.552  23.130  1.00  0.00     0.006 A 
ATOM     19  F   UNL     1      42.601 132.617  21.378  1.00  0.00    -0.207 F 
ATOM     20  F   UNL     1      46.288 129.610  20.719  1.00  0.00    -0.207 F 
ENDBRANCH  12  13
ENDBRANCH   1  12
TORSDOF 6
ENDMDL
MODEL 8
REMARK VINA RESULT:      -7.4      1.877      2.727
REMARK SMILES [N-]=[N+]=N/C(=C\Cc1c(F)cccc1F)c1ccccc1
REMARK SMILES IDX 5 1 4 2 3 3 2 4 1 5 15 6 16 7 20 8 17 9 19 10 18 11 6 12
REMARK SMILES IDX 7 13 8 14 13 15 10 16 12 17 11 18 9 19 14 20
REMARK H PARENT
ROOT
ATOM      1  C   UNL     1      45.183 131.585  19.183  1.00  0.00    -0.011 C 
ENDROOT
BRANCH   1   2
ATOM      2  C   UNL     1      44.532 131.374  18.029  1.00  0.00     0.041 C 
BRANCH   2   3
ATOM      3  N   UNL     1      43.098 131.450  18.003  1.00  0.00    -0.060 NA
BRANCH   3   4
ATOM      4  N   UNL     1      42.461 132.132  18.806  1.00  0.00     0.005 N 
ATOM      5  N   UNL     1      41.825 132.813  19.610  1.00  0.00    -0.003 NA
ENDBRANCH   3   4
ENDBRANCH   2   3
BRANCH   2   6
ATOM      6  C   UNL     1      45.301 131.076  16.793  1.00  0.00    -0.016 A 
ATOM      7  C   UNL     1      45.588 129.746  16.440  1.00  0.00     0.008 A 
ATOM      8  C   UNL     1      45.741 132.117  15.954  1.00  0.00     0.008 A 
ATOM      9  C   UNL     1      46.308 129.463  15.275  1.00  0.00     0.001 A 
ATOM     10  C   UNL     1      46.461 131.829  14.790  1.00  0.00     0.001 A 
ATOM     11  C   UNL     1      46.745 130.504  14.452  1.00  0.00     0.000 A 
ENDBRANCH   2   6
ENDBRANCH   1   2
BRANCH   1  12
ATOM     12  C   UNL     1      45.763 130.457  19.992  1.00  0.00     0.069 C 
BRANCH  12  13
ATOM     13  C   UNL     1      45.023 130.299  21.297  1.00  0.00     0.027 A 
ATOM     14  C   UNL     1      44.398 131.408  21.901  1.00  0.00     0.129 A 
ATOM     15  C   UNL     1      45.004 129.055  21.958  1.00  0.00     0.129 A 
ATOM     16  C   UNL     1      43.741 131.262  23.127  1.00  0.00     0.040 A 
ATOM     17  C   UNL     1      44.344 128.920  23.185  1.00  0.00     0.040 A 
ATOM     18  C   UNL     1      43.711 130.021  23.767  1.00  0.00     0.006 A 
ATOM     19  F   UNL     1      44.428 132.627  21.307  1.00  0.00    -0.207 F 
ATOM     20  F   UNL     1      45.627 127.976  21.420  1.00  0.00    -0.207 F 
ENDBRANCH  12  13
ENDBRANCH   1  12
TORSDOF 6
ENDMDL
MODEL 9
REMARK VINA RESULT:      -7.4      2.179      2.689
REMARK SMILES [N-]=[N+]=N/C(=C\Cc1c(F)cccc1F)c1ccccc1
REMARK SMILES IDX 5 1 4 2 3 3 2 4 1 5 15 6 16 7 20 8 17 9 19 10 18 11 6 12
REMARK SMILES IDX 7 13 8 14 13 15 10 16 12 17 11 18 9 19 14 20
REMARK H PARENT
ROOT
ATOM      1  C   UNL     1      45.530 130.409  19.440  1.00  0.00    -0.011 C 
ENDROOT
BRANCH   1   2
ATOM      2  C   UNL     1      44.973 131.172  18.486  1.00  0.00     0.041 C 
BRANCH   2   3
ATOM      3  N   UNL     1      44.044 132.202  18.858  1.00  0.00    -0.060 NA
BRANCH   3   4
ATOM      4  N   UNL     1      42.827 132.013  18.881  1.00  0.00     0.005 N 
ATOM      5  N   UNL     1      41.612 131.822  18.903  1.00  0.00    -0.003 NA
ENDBRANCH   3   4
ENDBRANCH   2   3
BRANCH   2   6
ATOM      6  C   UNL     1      45.333 130.949  17.062  1.00  0.00    -0.016 A 
ATOM      7  C   UNL     1      44.723 131.711  16.050  1.00  0.00     0.008 A 
ATOM      8  C   UNL     1      46.294 129.984  16.708  1.00  0.00     0.008 A 
ATOM      9  C   UNL     1      45.063 131.505  14.709  1.00  0.00     0.001 A 
ATOM     10  C   UNL     1      46.631 129.782  15.366  1.00  0.00     0.001 A 
ATOM     11  C   UNL     1      46.015 130.541  14.367  1.00  0.00     0.000 A 
ENDBRANCH   2   6
ENDBRANCH   1   2
BRANCH   1  12
ATOM     12  C   UNL     1      45.694 130.892  20.856  1.00  0.00     0.069 C 
BRANCH  12  13
ATOM     13  C   UNL     1      44.731 130.187  21.777  1.00  0.00     0.027 A 
ATOM     14  C   UNL     1      43.633 130.878  22.326  1.00  0.00     0.129 A 
ATOM     15  C   UNL     1      44.955 128.846  22.149  1.00  0.00     0.129 A 
ATOM     16  C   UNL     1      42.761 130.227  23.206  1.00  0.00     0.040 A 
ATOM     17  C   UNL     1      44.077 128.205  23.030  1.00  0.00     0.040 A 
ATOM     18  C   UNL     1      42.981 128.893  23.555  1.00  0.00     0.006 A 
ATOM     19  F   UNL     1      43.410 132.179  22.015  1.00  0.00    -0.207 F 
ATOM     20  F   UNL     1      46.023 128.163  21.666  1.00  0.00    -0.207 F 
ENDBRANCH  12  13
ENDBRANCH   1  12
TORSDOF 6
ENDMDL


