REMARK SMILES NNc1cc(F)c(F)cc1Nc1ccc(F)cc1
REMARK SMILES IDX 3 1 4 2 5 3 6 4 7 5 8 6 9 7 10 8 2 9 1 11 11 14 12 16 13 17
REMARK SMILES IDX 18 18 14 19 17 20 15 21 16 22
REMARK H PARENT 2 10 1 12 1 13 11 15
ROOT
ATOM      1  C   UNL     1      -0.988   1.142  -0.226  1.00  0.00     0.075 A 
ATOM      2  C   UNL     1      -1.874   1.539  -1.245  1.00  0.00     0.071 A 
ATOM      3  C   UNL     1      -1.388   1.963  -2.484  1.00  0.00     0.161 A 
ATOM      4  F   UNL     1      -2.255   2.349  -3.453  1.00  0.00    -0.204 F 
ATOM      5  C   UNL     1      -0.013   2.003  -2.720  1.00  0.00     0.161 A 
ATOM      6  F   UNL     1       0.459   2.425  -3.920  1.00  0.00    -0.204 F 
ATOM      7  C   UNL     1       0.879   1.605  -1.723  1.00  0.00     0.070 A 
ATOM      8  C   UNL     1       0.405   1.151  -0.484  1.00  0.00     0.066 A 
ENDROOT
BRANCH   1   9
ATOM      9  N   UNL     1      -1.494   0.777   1.070  1.00  0.00    -0.322 N 
ATOM     10  H   UNL     1      -0.847   0.710   1.888  1.00  0.00     0.181 HD
BRANCH   9  11
ATOM     11  N   UNL     1      -2.861   0.545   1.279  1.00  0.00    -0.250 NA
ATOM     12  H   UNL     1      -3.184   1.234   1.995  1.00  0.00     0.143 HD
ATOM     13  H   UNL     1      -2.950  -0.406   1.704  1.00  0.00     0.143 HD
ENDBRANCH   9  11
ENDBRANCH   1   9
BRANCH   8  14
ATOM     14  N   UNL     1       1.356   0.719   0.502  1.00  0.00    -0.354 N 
ATOM     15  H   UNL     1       2.155   1.359   0.711  1.00  0.00     0.167 HD
BRANCH  14  16
ATOM     16  C   UNL     1       1.369  -0.600   1.079  1.00  0.00     0.039 A 
ATOM     17  C   UNL     1       2.176  -0.851   2.201  1.00  0.00     0.029 A 
ATOM     18  C   UNL     1       0.612  -1.654   0.532  1.00  0.00     0.029 A 
ATOM     19  C   UNL     1       2.210  -2.123   2.779  1.00  0.00     0.041 A 
ATOM     20  C   UNL     1       0.649  -2.925   1.114  1.00  0.00     0.041 A 
ATOM     21  C   UNL     1       1.446  -3.160   2.237  1.00  0.00     0.123 A 
ATOM     22  F   UNL     1       1.481  -4.393   2.799  1.00  0.00    -0.207 F 
ENDBRANCH  14  16
ENDBRANCH   8  14
TORSDOF 4


