MODEL 1
REMARK VINA RESULT:      -9.2      0.000      0.000
REMARK SMILES C=C1C(=O)OC[C@H]1C(=O)N(N)c1cccc2cc3ccccc3cc12
REMARK SMILES IDX 8 1 9 2 7 3 2 4 3 5 5 6 6 7 1 8 4 9 10 10 11 11 12 14 13 15
REMARK SMILES IDX 25 16 14 17 24 18 16 19 15 20 23 21 17 22 22 23 18 24 21 25
REMARK SMILES IDX 19 26 20 27
REMARK H PARENT 11 12 11 13
ROOT
ATOM      1  C   UNL     1      45.133 129.769  21.478  1.00  0.00     0.252 C 
ATOM      2  O   UNL     1      45.457 128.791  20.751  1.00  0.00    -0.272 OA
ENDROOT
BRANCH   1   3
ATOM      3  C   UNL     1      44.724 129.482  22.911  1.00  0.00     0.155 C 
ATOM      4  C   UNL     1      43.317 129.893  23.215  1.00  0.00     0.046 C 
ATOM      5  C   UNL     1      42.598 128.714  23.627  1.00  0.00     0.334 C 
ATOM      6  O   UNL     1      43.427 127.613  23.631  1.00  0.00    -0.461 OA
ATOM      7  C   UNL     1      44.758 127.969  23.261  1.00  0.00     0.251 C 
ATOM      8  C   UNL     1      42.843 131.137  23.201  1.00  0.00     0.021 C 
ATOM      9  O   UNL     1      41.378 128.669  23.937  1.00  0.00    -0.247 OA
ENDBRANCH   1   3
BRANCH   1  10
ATOM     10  N   UNL     1      45.122 131.091  20.898  1.00  0.00    -0.247 N 
BRANCH  10  11
ATOM     11  N   UNL     1      46.028 132.046  21.392  1.00  0.00    -0.241 NA
ATOM     12  H   UNL     1      46.235 132.721  20.620  1.00  0.00     0.144 HD
ATOM     13  H   UNL     1      45.546 132.576  22.154  1.00  0.00     0.144 HD
ENDBRANCH  10  11
BRANCH  10  14
ATOM     14  C   UNL     1      44.128 131.505  19.944  1.00  0.00     0.068 A 
ATOM     15  C   UNL     1      42.914 132.029  20.410  1.00  0.00     0.028 A 
ATOM     16  C   UNL     1      44.333 131.346  18.553  1.00  0.00     0.008 A 
ATOM     17  C   UNL     1      41.938 132.463  19.512  1.00  0.00     0.003 A 
ATOM     18  C   UNL     1      45.502 130.746  18.046  1.00  0.00     0.019 A 
ATOM     19  C   UNL     1      43.339 131.799  17.648  1.00  0.00    -0.016 A 
ATOM     20  C   UNL     1      42.152 132.361  18.138  1.00  0.00     0.009 A 
ATOM     21  C   UNL     1      45.704 130.634  16.664  1.00  0.00    -0.018 A 
ATOM     22  C   UNL     1      43.543 131.682  16.264  1.00  0.00     0.017 A 
ATOM     23  C   UNL     1      46.882 130.058  16.161  1.00  0.00     0.009 A 
ATOM     24  C   UNL     1      44.720 131.108  15.766  1.00  0.00    -0.018 A 
ATOM     25  C   UNL     1      47.080 129.954  14.781  1.00  0.00     0.001 A 
ATOM     26  C   UNL     1      44.930 130.996  14.382  1.00  0.00     0.009 A 
ATOM     27  C   UNL     1      46.106 130.422  13.895  1.00  0.00     0.001 A 
ENDBRANCH  10  14
ENDBRANCH   1  10
TORSDOF 4
ENDMDL
MODEL 2
REMARK VINA RESULT:      -9.0      0.936      1.166
REMARK SMILES C=C1C(=O)OC[C@H]1C(=O)N(N)c1cccc2cc3ccccc3cc12
REMARK SMILES IDX 8 1 9 2 7 3 2 4 3 5 5 6 6 7 1 8 4 9 10 10 11 11 12 14 13 15
REMARK SMILES IDX 25 16 14 17 24 18 16 19 15 20 23 21 17 22 22 23 18 24 21 25
REMARK SMILES IDX 19 26 20 27
REMARK H PARENT 11 12 11 13
ROOT
ATOM      1  C   UNL     1      45.155 130.026  21.706  1.00  0.00     0.252 C 
ATOM      2  O   UNL     1      45.664 129.005  21.171  1.00  0.00    -0.272 OA
ENDROOT
BRANCH   1   3
ATOM      3  C   UNL     1      44.514 129.866  23.073  1.00  0.00     0.155 C 
ATOM      4  C   UNL     1      44.004 131.153  23.639  1.00  0.00     0.046 C 
ATOM      5  C   UNL     1      42.586 131.006  23.853  1.00  0.00     0.334 C 
ATOM      6  O   UNL     1      42.169 129.742  23.495  1.00  0.00    -0.461 OA
ATOM      7  C   UNL     1      43.265 128.942  23.052  1.00  0.00     0.251 C 
ATOM      8  C   UNL     1      44.743 132.209  23.976  1.00  0.00     0.021 C 
ATOM      9  O   UNL     1      41.814 131.897  24.295  1.00  0.00    -0.247 OA
ENDBRANCH   1   3
BRANCH   1  10
ATOM     10  N   UNL     1      45.164 131.271  20.975  1.00  0.00    -0.247 N 
BRANCH  10  11
ATOM     11  N   UNL     1      46.141 132.229  21.296  1.00  0.00    -0.241 NA
ATOM     12  H   UNL     1      46.213 132.277  22.337  1.00  0.00     0.144 HD
ATOM     13  H   UNL     1      47.057 131.882  20.931  1.00  0.00     0.144 HD
ENDBRANCH  10  11
BRANCH  10  14
ATOM     14  C   UNL     1      44.129 131.622  20.038  1.00  0.00     0.068 A 
ATOM     15  C   UNL     1      42.908 132.108  20.524  1.00  0.00     0.028 A 
ATOM     16  C   UNL     1      44.304 131.436  18.646  1.00  0.00     0.008 A 
ATOM     17  C   UNL     1      41.892 132.482  19.644  1.00  0.00     0.003 A 
ATOM     18  C   UNL     1      45.481 130.870  18.122  1.00  0.00     0.019 A 
ATOM     19  C   UNL     1      43.269 131.827  17.758  1.00  0.00    -0.016 A 
ATOM     20  C   UNL     1      42.073 132.354  18.267  1.00  0.00     0.009 A 
ATOM     21  C   UNL     1      45.652 130.732  16.738  1.00  0.00    -0.018 A 
ATOM     22  C   UNL     1      43.440 131.684  16.372  1.00  0.00     0.017 A 
ATOM     23  C   UNL     1      46.838 130.190  16.216  1.00  0.00     0.009 A 
ATOM     24  C   UNL     1      44.625 131.144  15.856  1.00  0.00    -0.018 A 
ATOM     25  C   UNL     1      47.003 130.059  14.835  1.00  0.00     0.001 A 
ATOM     26  C   UNL     1      44.803 131.006  14.470  1.00  0.00     0.009 A 
ATOM     27  C   UNL     1      45.988 130.467  13.965  1.00  0.00     0.001 A 
ENDBRANCH  10  14
ENDBRANCH   1  10
TORSDOF 4
ENDMDL
MODEL 3
REMARK VINA RESULT:      -8.4      1.036      1.628
REMARK SMILES C=C1C(=O)OC[C@H]1C(=O)N(N)c1cccc2cc3ccccc3cc12
REMARK SMILES IDX 8 1 9 2 7 3 2 4 3 5 5 6 6 7 1 8 4 9 10 10 11 11 12 14 13 15
REMARK SMILES IDX 25 16 14 17 24 18 16 19 15 20 23 21 17 22 22 23 18 24 21 25
REMARK SMILES IDX 19 26 20 27
REMARK H PARENT 11 12 11 13
ROOT
ATOM      1  C   UNL     1      44.456 130.654  22.275  1.00  0.00     0.252 C 
ATOM      2  O   UNL     1      44.862 131.072  23.393  1.00  0.00    -0.272 OA
ENDROOT
BRANCH   1   3
ATOM      3  C   UNL     1      43.675 129.353  22.246  1.00  0.00     0.155 C 
ATOM      4  C   UNL     1      44.450 128.190  22.780  1.00  0.00     0.046 C 
ATOM      5  C   UNL     1      43.722 127.660  23.907  1.00  0.00     0.334 C 
ATOM      6  O   UNL     1      42.558 128.369  24.111  1.00  0.00    -0.461 OA
ATOM      7  C   UNL     1      42.398 129.392  23.130  1.00  0.00     0.251 C 
ATOM      8  C   UNL     1      45.559 127.676  22.250  1.00  0.00     0.021 C 
ATOM      9  O   UNL     1      44.086 126.691  24.625  1.00  0.00    -0.247 OA
ENDBRANCH   1   3
BRANCH   1  10
ATOM     10  N   UNL     1      44.795 131.403  21.089  1.00  0.00    -0.247 N 
BRANCH  10  11
ATOM     11  N   UNL     1      46.089 131.944  20.986  1.00  0.00    -0.241 NA
ATOM     12  H   UNL     1      46.091 132.867  21.478  1.00  0.00     0.144 HD
ATOM     13  H   UNL     1      46.740 131.310  21.503  1.00  0.00     0.144 HD
ENDBRANCH  10  11
BRANCH  10  14
ATOM     14  C   UNL     1      43.822 131.736  20.083  1.00  0.00     0.068 A 
ATOM     15  C   UNL     1      42.600 132.297  20.478  1.00  0.00     0.028 A 
ATOM     16  C   UNL     1      44.055 131.460  18.715  1.00  0.00     0.008 A 
ATOM     17  C   UNL     1      41.644 132.655  19.528  1.00  0.00     0.003 A 
ATOM     18  C   UNL     1      45.233 130.820  18.284  1.00  0.00     0.019 A 
ATOM     19  C   UNL     1      43.081 131.836  17.754  1.00  0.00    -0.016 A 
ATOM     20  C   UNL     1      41.885 132.438  18.172  1.00  0.00     0.009 A 
ATOM     21  C   UNL     1      45.463 130.592  16.921  1.00  0.00    -0.018 A 
ATOM     22  C   UNL     1      43.312 131.603  16.390  1.00  0.00     0.017 A 
ATOM     23  C   UNL     1      46.650 129.975  16.491  1.00  0.00     0.009 A 
ATOM     24  C   UNL     1      44.498 130.989  15.966  1.00  0.00    -0.018 A 
ATOM     25  C   UNL     1      46.875 129.756  15.130  1.00  0.00     0.001 A 
ATOM     26  C   UNL     1      44.736 130.762  14.601  1.00  0.00     0.009 A 
ATOM     27  C   UNL     1      45.920 130.148  14.188  1.00  0.00     0.001 A 
ENDBRANCH  10  14
ENDBRANCH   1  10
TORSDOF 4
ENDMDL
MODEL 4
REMARK VINA RESULT:      -7.9      1.027      1.086
REMARK SMILES C=C1C(=O)OC[C@H]1C(=O)N(N)c1cccc2cc3ccccc3cc12
REMARK SMILES IDX 8 1 9 2 7 3 2 4 3 5 5 6 6 7 1 8 4 9 10 10 11 11 12 14 13 15
REMARK SMILES IDX 25 16 14 17 24 18 16 19 15 20 23 21 17 22 22 23 18 24 21 25
REMARK SMILES IDX 19 26 20 27
REMARK H PARENT 11 12 11 13
ROOT
ATOM      1  C   UNL     1      44.939 131.238  22.087  1.00  0.00     0.252 C 
ATOM      2  O   UNL     1      45.193 132.435  22.391  1.00  0.00    -0.272 OA
ENDROOT
BRANCH   1   3
ATOM      3  C   UNL     1      44.637 130.269  23.215  1.00  0.00     0.155 C 
ATOM      4  C   UNL     1      43.250 130.412  23.758  1.00  0.00     0.046 C 
ATOM      5  C   UNL     1      42.579 129.149  23.578  1.00  0.00     0.334 C 
ATOM      6  O   UNL     1      43.422 128.227  22.995  1.00  0.00    -0.461 OA
ATOM      7  C   UNL     1      44.718 128.781  22.774  1.00  0.00     0.251 C 
ATOM      8  C   UNL     1      42.758 131.480  24.382  1.00  0.00     0.021 C 
ATOM      9  O   UNL     1      41.384 128.901  23.893  1.00  0.00    -0.247 OA
ENDBRANCH   1   3
BRANCH   1  10
ATOM     10  N   UNL     1      45.000 130.847  20.698  1.00  0.00    -0.247 N 
BRANCH  10  11
ATOM     11  N   UNL     1      46.104 130.094  20.262  1.00  0.00    -0.241 NA
ATOM     12  H   UNL     1      45.978 129.114  20.601  1.00  0.00     0.144 HD
ATOM     13  H   UNL     1      46.080 130.073  19.217  1.00  0.00     0.144 HD
ENDBRANCH  10  11
BRANCH  10  14
ATOM     14  C   UNL     1      44.052 131.320  19.723  1.00  0.00     0.068 A 
ATOM     15  C   UNL     1      42.821 131.825  20.161  1.00  0.00     0.028 A 
ATOM     16  C   UNL     1      44.321 131.235  18.337  1.00  0.00     0.008 A 
ATOM     17  C   UNL     1      41.889 132.315  19.245  1.00  0.00     0.003 A 
ATOM     18  C   UNL     1      45.510 130.657  17.852  1.00  0.00     0.019 A 
ATOM     19  C   UNL     1      43.373 131.745  17.413  1.00  0.00    -0.016 A 
ATOM     20  C   UNL     1      42.166 132.287  17.878  1.00  0.00     0.009 A 
ATOM     21  C   UNL     1      45.776 130.620  16.476  1.00  0.00    -0.018 A 
ATOM     22  C   UNL     1      43.640 131.703  16.036  1.00  0.00     0.017 A 
ATOM     23  C   UNL     1      46.973 130.064  15.996  1.00  0.00     0.009 A 
ATOM     24  C   UNL     1      44.836 131.149  15.562  1.00  0.00    -0.018 A 
ATOM     25  C   UNL     1      47.234 130.035  14.624  1.00  0.00     0.001 A 
ATOM     26  C   UNL     1      45.109 131.112  14.185  1.00  0.00     0.009 A 
ATOM     27  C   UNL     1      46.304 130.558  13.721  1.00  0.00     0.001 A 
ENDBRANCH  10  14
ENDBRANCH   1  10
TORSDOF 4
ENDMDL
MODEL 5
REMARK VINA RESULT:      -7.1      2.896      6.600
REMARK SMILES C=C1C(=O)OC[C@H]1C(=O)N(N)c1cccc2cc3ccccc3cc12
REMARK SMILES IDX 8 1 9 2 7 3 2 4 3 5 5 6 6 7 1 8 4 9 10 10 11 11 12 14 13 15
REMARK SMILES IDX 25 16 14 17 24 18 16 19 15 20 23 21 17 22 22 23 18 24 21 25
REMARK SMILES IDX 19 26 20 27
REMARK H PARENT 11 12 11 13
ROOT
ATOM      1  C   UNL     1      44.636 130.341  21.921  1.00  0.00     0.252 C 
ATOM      2  O   UNL     1      45.412 129.681  21.178  1.00  0.00    -0.272 OA
ENDROOT
BRANCH   1   3
ATOM      3  C   UNL     1      44.171 131.700  21.430  1.00  0.00     0.155 C 
ATOM      4  C   UNL     1      43.952 131.749  19.951  1.00  0.00     0.046 C 
ATOM      5  C   UNL     1      42.571 132.096  19.725  1.00  0.00     0.334 C 
ATOM      6  O   UNL     1      41.916 132.290  20.922  1.00  0.00    -0.461 OA
ATOM      7  C   UNL     1      42.802 132.125  22.028  1.00  0.00     0.251 C 
ATOM      8  C   UNL     1      44.886 131.596  19.014  1.00  0.00     0.021 C 
ATOM      9  O   UNL     1      42.016 132.204  18.600  1.00  0.00    -0.247 OA
ENDBRANCH   1   3
BRANCH   1  10
ATOM     10  N   UNL     1      44.275 129.795  23.208  1.00  0.00    -0.247 N 
BRANCH  10  11
ATOM     11  N   UNL     1      44.893 130.321  24.355  1.00  0.00    -0.241 NA
ATOM     12  H   UNL     1      44.597 129.743  25.173  1.00  0.00     0.144 HD
ATOM     13  H   UNL     1      45.926 130.204  24.241  1.00  0.00     0.144 HD
ENDBRANCH  10  11
BRANCH  10  14
ATOM     14  C   UNL     1      43.422 128.644  23.345  1.00  0.00     0.068 A 
ATOM     15  C   UNL     1      42.096 128.826  23.757  1.00  0.00     0.028 A 
ATOM     16  C   UNL     1      43.912 127.336  23.121  1.00  0.00     0.008 A 
ATOM     17  C   UNL     1      41.233 127.735  23.875  1.00  0.00     0.003 A 
ATOM     18  C   UNL     1      45.260 127.102  22.789  1.00  0.00     0.019 A 
ATOM     19  C   UNL     1      43.027 126.233  23.235  1.00  0.00    -0.016 A 
ATOM     20  C   UNL     1      41.691 126.446  23.605  1.00  0.00     0.009 A 
ATOM     21  C   UNL     1      45.717 125.802  22.532  1.00  0.00    -0.018 A 
ATOM     22  C   UNL     1      43.488 124.932  22.981  1.00  0.00     0.017 A 
ATOM     23  C   UNL     1      47.057 125.575  22.176  1.00  0.00     0.009 A 
ATOM     24  C   UNL     1      44.824 124.710  22.625  1.00  0.00    -0.018 A 
ATOM     25  C   UNL     1      47.504 124.277  21.916  1.00  0.00     0.001 A 
ATOM     26  C   UNL     1      45.286 123.410  22.363  1.00  0.00     0.009 A 
ATOM     27  C   UNL     1      46.621 123.198  22.010  1.00  0.00     0.001 A 
ENDBRANCH  10  14
ENDBRANCH   1  10
TORSDOF 4
ENDMDL
MODEL 6
REMARK VINA RESULT:      -7.0      2.339      6.698
REMARK SMILES C=C1C(=O)OC[C@H]1C(=O)N(N)c1cccc2cc3ccccc3cc12
REMARK SMILES IDX 8 1 9 2 7 3 2 4 3 5 5 6 6 7 1 8 4 9 10 10 11 11 12 14 13 15
REMARK SMILES IDX 25 16 14 17 24 18 16 19 15 20 23 21 17 22 22 23 18 24 21 25
REMARK SMILES IDX 19 26 20 27
REMARK H PARENT 11 12 11 13
ROOT
ATOM      1  C   UNL     1      45.388 130.880  18.915  1.00  0.00     0.252 C 
ATOM      2  O   UNL     1      45.722 129.791  18.374  1.00  0.00    -0.272 OA
ENDROOT
BRANCH   1   3
ATOM      3  C   UNL     1      44.755 131.943  18.037  1.00  0.00     0.155 C 
ATOM      4  C   UNL     1      45.038 131.749  16.581  1.00  0.00     0.046 C 
ATOM      5  C   UNL     1      43.773 131.591  15.907  1.00  0.00     0.334 C 
ATOM      6  O   UNL     1      42.729 131.691  16.802  1.00  0.00    -0.461 OA
ATOM      7  C   UNL     1      43.203 131.955  18.121  1.00  0.00     0.251 C 
ATOM      8  C   UNL     1      46.234 131.810  15.999  1.00  0.00     0.021 C 
ATOM      9  O   UNL     1      43.619 131.381  14.675  1.00  0.00    -0.247 OA
ENDBRANCH   1   3
BRANCH   1  10
ATOM     10  N   UNL     1      45.669 131.072  20.318  1.00  0.00    -0.247 N 
BRANCH  10  11
ATOM     11  N   UNL     1      46.992 131.346  20.704  1.00  0.00    -0.241 NA
ATOM     12  H   UNL     1      47.014 132.306  21.119  1.00  0.00     0.144 HD
ATOM     13  H   UNL     1      47.249 130.670  21.459  1.00  0.00     0.144 HD
ENDBRANCH  10  11
BRANCH  10  14
ATOM     14  C   UNL     1      44.679 130.851  21.339  1.00  0.00     0.068 A 
ATOM     15  C   UNL     1      43.831 131.905  21.703  1.00  0.00     0.028 A 
ATOM     16  C   UNL     1      44.584 129.611  22.014  1.00  0.00     0.008 A 
ATOM     17  C   UNL     1      42.843 131.719  22.671  1.00  0.00     0.003 A 
ATOM     18  C   UNL     1      45.472 128.554  21.739  1.00  0.00     0.019 A 
ATOM     19  C   UNL     1      43.571 129.428  22.990  1.00  0.00    -0.016 A 
ATOM     20  C   UNL     1      42.704 130.485  23.304  1.00  0.00     0.009 A 
ATOM     21  C   UNL     1      45.335 127.320  22.389  1.00  0.00    -0.018 A 
ATOM     22  C   UNL     1      43.438 128.192  23.643  1.00  0.00     0.017 A 
ATOM     23  C   UNL     1      46.207 126.259  22.095  1.00  0.00     0.009 A 
ATOM     24  C   UNL     1      44.309 127.137  23.346  1.00  0.00    -0.018 A 
ATOM     25  C   UNL     1      46.062 125.030  22.744  1.00  0.00     0.001 A 
ATOM     26  C   UNL     1      44.175 125.897  23.991  1.00  0.00     0.009 A 
ATOM     27  C   UNL     1      45.048 124.850  23.689  1.00  0.00     0.001 A 
ENDBRANCH  10  14
ENDBRANCH   1  10
TORSDOF 4
ENDMDL
MODEL 7
REMARK VINA RESULT:      -6.3      2.218      6.632
REMARK SMILES C=C1C(=O)OC[C@H]1C(=O)N(N)c1cccc2cc3ccccc3cc12
REMARK SMILES IDX 8 1 9 2 7 3 2 4 3 5 5 6 6 7 1 8 4 9 10 10 11 11 12 14 13 15
REMARK SMILES IDX 25 16 14 17 24 18 16 19 15 20 23 21 17 22 22 23 18 24 21 25
REMARK SMILES IDX 19 26 20 27
REMARK H PARENT 11 12 11 13
ROOT
ATOM      1  C   UNL     1      43.850 131.573  19.522  1.00  0.00     0.252 C 
ATOM      2  O   UNL     1      42.615 131.327  19.446  1.00  0.00    -0.272 OA
ENDROOT
BRANCH   1   3
ATOM      3  C   UNL     1      44.615 131.767  18.226  1.00  0.00     0.155 C 
ATOM      4  C   UNL     1      45.374 130.549  17.802  1.00  0.00     0.046 C 
ATOM      5  C   UNL     1      44.879 130.155  16.507  1.00  0.00     0.334 C 
ATOM      6  O   UNL     1      43.901 131.024  16.074  1.00  0.00    -0.461 OA
ATOM      7  C   UNL     1      43.691 132.075  17.016  1.00  0.00     0.251 C 
ATOM      8  C   UNL     1      46.389 129.989  18.459  1.00  0.00     0.021 C 
ATOM      9  O   UNL     1      45.266 129.154  15.847  1.00  0.00    -0.247 OA
ENDBRANCH   1   3
BRANCH   1  10
ATOM     10  N   UNL     1      44.472 131.606  20.824  1.00  0.00    -0.247 N 
BRANCH  10  11
ATOM     11  N   UNL     1      45.832 131.948  20.908  1.00  0.00    -0.241 NA
ATOM     12  H   UNL     1      45.915 132.788  21.524  1.00  0.00     0.144 HD
ATOM     13  H   UNL     1      46.329 131.159  21.381  1.00  0.00     0.144 HD
ENDBRANCH  10  11
BRANCH  10  14
ATOM     14  C   UNL     1      43.792 131.165  22.014  1.00  0.00     0.068 A 
ATOM     15  C   UNL     1      42.930 132.051  22.673  1.00  0.00     0.028 A 
ATOM     16  C   UNL     1      44.018 129.877  22.554  1.00  0.00     0.008 A 
ATOM     17  C   UNL     1      42.235 131.649  23.814  1.00  0.00     0.003 A 
ATOM     18  C   UNL     1      44.940 128.986  21.971  1.00  0.00     0.019 A 
ATOM     19  C   UNL     1      43.301 129.472  23.709  1.00  0.00    -0.016 A 
ATOM     20  C   UNL     1      42.409 130.363  24.325  1.00  0.00     0.009 A 
ATOM     21  C   UNL     1      45.120 127.700  22.498  1.00  0.00    -0.018 A 
ATOM     22  C   UNL     1      43.485 128.185  24.237  1.00  0.00     0.017 A 
ATOM     23  C   UNL     1      46.022 126.805  21.900  1.00  0.00     0.009 A 
ATOM     24  C   UNL     1      44.386 127.295  23.637  1.00  0.00    -0.018 A 
ATOM     25  C   UNL     1      46.193 125.522  22.427  1.00  0.00     0.001 A 
ATOM     26  C   UNL     1      44.567 126.004  24.157  1.00  0.00     0.009 A 
ATOM     27  C   UNL     1      45.467 125.123  23.553  1.00  0.00     0.001 A 
ENDBRANCH  10  14
ENDBRANCH   1  10
TORSDOF 4
ENDMDL


