MODEL 1
REMARK VINA RESULT:      -5.1      0.000      0.000
REMARK SMILES N#C[C@H]1C[C@@H]1C(=O)N(c1ccc2cc[nH]c2c1)c1c2o[n-]cc-2cc(-n2nc3ccccc3n2)c1=O
REMARK SMILES IDX 6 1 7 2 5 3 3 4 4 5 2 6 1 7 8 8 9 9 10 10 17 11 11 12 16 13
REMARK SMILES IDX 12 14 15 15 13 16 14 17 18 19 19 20 35 21 20 22 23 23 25 24
REMARK SMILES IDX 21 25 22 26 24 27 36 28 26 29 27 30 34 31 28 32 33 33 29 34
REMARK SMILES IDX 32 35 30 36 31 37
REMARK H PARENT 15 18
ROOT
ATOM      1  C   UNL     1      44.038 130.340  22.902  1.00  0.00     0.236 C 
ATOM      2  O   UNL     1      43.052 130.570  23.654  1.00  0.00    -0.274 OA
ENDROOT
BRANCH   1   3
ATOM      3  C   UNL     1      44.614 128.953  22.861  1.00  0.00     0.098 C 
ATOM      4  C   UNL     1      43.760 127.903  23.562  1.00  0.00     0.106 C 
ATOM      5  C   UNL     1      45.043 128.395  24.214  1.00  0.00     0.034 C 
BRANCH   4   6
ATOM      6  C   UNL     1      43.857 126.570  22.957  1.00  0.00     0.066 C 
ATOM      7  N   UNL     1      43.929 125.519  22.477  1.00  0.00    -0.198 NA
ENDBRANCH   4   6
ENDBRANCH   1   3
BRANCH   1   8
ATOM      8  N   UNL     1      44.623 131.411  22.131  1.00  0.00    -0.273 N 
BRANCH   8   9
ATOM      9  C   UNL     1      45.620 132.274  22.713  1.00  0.00     0.051 A 
ATOM     10  C   UNL     1      45.487 132.730  24.053  1.00  0.00     0.027 A 
ATOM     11  C   UNL     1      46.727 132.699  21.940  1.00  0.00     0.053 A 
ATOM     12  C   UNL     1      46.445 133.588  24.620  1.00  0.00     0.012 A 
ATOM     13  C   UNL     1      47.658 133.548  22.535  1.00  0.00     0.047 A 
ATOM     14  C   UNL     1      47.521 133.975  23.827  1.00  0.00    -0.000 A 
ATOM     15  N   UNL     1      48.767 134.060  21.978  1.00  0.00    -0.361 N 
ATOM     16  C   UNL     1      48.591 134.798  24.106  1.00  0.00     0.028 A 
ATOM     17  C   UNL     1      49.342 134.825  22.935  1.00  0.00     0.083 A 
ATOM     18  H   UNL     1      49.117 133.906  21.007  1.00  0.00     0.166 HD
ENDBRANCH   8   9
BRANCH   8  19
ATOM     19  C   UNL     1      44.164 131.670  20.790  1.00  0.00     0.141 A 
ATOM     20  C   UNL     1      42.916 132.237  20.565  1.00  0.00     0.141 A 
ATOM     21  C   UNL     1      44.944 131.336  19.653  1.00  0.00     0.233 A 
ATOM     22  O   UNL     1      42.002 132.625  21.418  1.00  0.00    -0.555 OA
ATOM     23  C   UNL     1      42.428 132.462  19.252  1.00  0.00     0.000 A 
ATOM     24  C   UNL     1      44.451 131.559  18.322  1.00  0.00     0.136 A 
ATOM     25  N   UNL     1      40.955 133.087  20.782  1.00  0.00    -0.513 NA
ATOM     26  C   UNL     1      41.179 133.001  19.446  1.00  0.00    -0.098 A 
ATOM     27  C   UNL     1      43.166 132.129  18.131  1.00  0.00     0.044 A 
ATOM     28  O   UNL     1      46.088 130.838  19.829  1.00  0.00    -0.285 OA
BRANCH  24  29
ATOM     29  N   UNL     1      45.239 131.209  17.163  1.00  0.00    -0.146 N 
ATOM     30  N   UNL     1      45.573 132.064  16.196  1.00  0.00    -0.148 NA
ATOM     31  N   UNL     1      45.706 129.979  16.940  1.00  0.00    -0.148 NA
ATOM     32  C   UNL     1      46.288 131.341  15.322  1.00  0.00     0.113 A 
ATOM     33  C   UNL     1      46.369 130.065  15.778  1.00  0.00     0.113 A 
ATOM     34  C   UNL     1      46.880 131.744  14.130  1.00  0.00     0.032 A 
ATOM     35  C   UNL     1      47.054 129.070  15.085  1.00  0.00     0.032 A 
ATOM     36  C   UNL     1      47.582 130.767  13.396  1.00  0.00     0.002 A 
ATOM     37  C   UNL     1      47.668 129.435  13.871  1.00  0.00     0.002 A 
ENDBRANCH  24  29
ENDBRANCH   8  19
ENDBRANCH   1   8
TORSDOF 6
ENDMDL
MODEL 2
REMARK VINA RESULT:      -4.4      0.388      1.099
REMARK SMILES N#C[C@H]1C[C@@H]1C(=O)N(c1ccc2cc[nH]c2c1)c1c2o[n-]cc-2cc(-n2nc3ccccc3n2)c1=O
REMARK SMILES IDX 6 1 7 2 5 3 3 4 4 5 2 6 1 7 8 8 9 9 10 10 17 11 11 12 16 13
REMARK SMILES IDX 12 14 15 15 13 16 14 17 18 19 19 20 35 21 20 22 23 23 25 24
REMARK SMILES IDX 21 25 22 26 24 27 36 28 26 29 27 30 34 31 28 32 33 33 29 34
REMARK SMILES IDX 32 35 30 36 31 37
REMARK H PARENT 15 18
ROOT
ATOM      1  C   UNL     1      44.000 130.467  22.976  1.00  0.00     0.236 C 
ATOM      2  O   UNL     1      43.470 130.776  24.077  1.00  0.00    -0.274 OA
ENDROOT
BRANCH   1   3
ATOM      3  C   UNL     1      44.016 129.025  22.555  1.00  0.00     0.098 C 
ATOM      4  C   UNL     1      44.929 128.141  23.396  1.00  0.00     0.106 C 
ATOM      5  C   UNL     1      45.345 128.535  21.988  1.00  0.00     0.034 C 
BRANCH   4   6
ATOM      6  C   UNL     1      44.450 126.760  23.526  1.00  0.00     0.066 C 
ATOM      7  N   UNL     1      44.070 125.671  23.624  1.00  0.00    -0.198 NA
ENDBRANCH   4   6
ENDBRANCH   1   3
BRANCH   1   8
ATOM      8  N   UNL     1      44.618 131.485  22.160  1.00  0.00    -0.273 N 
BRANCH   8   9
ATOM      9  C   UNL     1      45.650 132.334  22.703  1.00  0.00     0.051 A 
ATOM     10  C   UNL     1      45.602 132.749  24.061  1.00  0.00     0.027 A 
ATOM     11  C   UNL     1      46.704 132.785  21.873  1.00  0.00     0.053 A 
ATOM     12  C   UNL     1      46.594 133.594  24.591  1.00  0.00     0.012 A 
ATOM     13  C   UNL     1      47.670 133.619  22.432  1.00  0.00     0.047 A 
ATOM     14  C   UNL     1      47.616 134.007  23.743  1.00  0.00    -0.000 A 
ATOM     15  N   UNL     1      48.741 134.151  21.820  1.00  0.00    -0.361 N 
ATOM     16  C   UNL     1      48.701 134.824  23.977  1.00  0.00     0.028 A 
ATOM     17  C   UNL     1      49.375 134.889  22.761  1.00  0.00     0.083 A 
ATOM     18  H   UNL     1      49.027 134.027  20.825  1.00  0.00     0.166 HD
ENDBRANCH   8   9
BRANCH   8  19
ATOM     19  C   UNL     1      44.160 131.708  20.813  1.00  0.00     0.141 A 
ATOM     20  C   UNL     1      42.910 132.264  20.572  1.00  0.00     0.141 A 
ATOM     21  C   UNL     1      44.942 131.349  19.685  1.00  0.00     0.233 A 
ATOM     22  O   UNL     1      41.993 132.670  21.413  1.00  0.00    -0.555 OA
ATOM     23  C   UNL     1      42.422 132.454  19.253  1.00  0.00     0.000 A 
ATOM     24  C   UNL     1      44.450 131.537  18.348  1.00  0.00     0.136 A 
ATOM     25  N   UNL     1      40.944 133.112  20.766  1.00  0.00    -0.513 NA
ATOM     26  C   UNL     1      41.171 132.993  19.432  1.00  0.00    -0.098 A 
ATOM     27  C   UNL     1      43.163 132.096  18.141  1.00  0.00     0.044 A 
ATOM     28  O   UNL     1      46.088 130.861  19.875  1.00  0.00    -0.285 OA
BRANCH  24  29
ATOM     29  N   UNL     1      45.241 131.160  17.199  1.00  0.00    -0.146 N 
ATOM     30  N   UNL     1      45.720 129.934  16.987  1.00  0.00    -0.148 NA
ATOM     31  N   UNL     1      45.583 132.016  16.234  1.00  0.00    -0.148 NA
ATOM     32  C   UNL     1      46.392 130.017  15.830  1.00  0.00     0.113 A 
ATOM     33  C   UNL     1      46.307 131.292  15.369  1.00  0.00     0.113 A 
ATOM     34  C   UNL     1      47.087 129.024  15.147  1.00  0.00     0.032 A 
ATOM     35  C   UNL     1      46.907 131.693  14.179  1.00  0.00     0.032 A 
ATOM     36  C   UNL     1      47.711 129.389  13.938  1.00  0.00     0.002 A 
ATOM     37  C   UNL     1      47.623 130.718  13.456  1.00  0.00     0.002 A 
ENDBRANCH  24  29
ENDBRANCH   8  19
ENDBRANCH   1   8
TORSDOF 6
ENDMDL
MODEL 3
REMARK VINA RESULT:      -3.2      1.050      1.712
REMARK SMILES N#C[C@H]1C[C@@H]1C(=O)N(c1ccc2cc[nH]c2c1)c1c2o[n-]cc-2cc(-n2nc3ccccc3n2)c1=O
REMARK SMILES IDX 6 1 7 2 5 3 3 4 4 5 2 6 1 7 8 8 9 9 10 10 17 11 11 12 16 13
REMARK SMILES IDX 12 14 15 15 13 16 14 17 18 19 19 20 35 21 20 22 23 23 25 24
REMARK SMILES IDX 21 25 22 26 24 27 36 28 26 29 27 30 34 31 28 32 33 33 29 34
REMARK SMILES IDX 32 35 30 36 31 37
REMARK H PARENT 15 18
ROOT
ATOM      1  C   UNL     1      44.497 131.332  22.680  1.00  0.00     0.236 C 
ATOM      2  O   UNL     1      44.419 131.835  23.833  1.00  0.00    -0.274 OA
ENDROOT
BRANCH   1   3
ATOM      3  C   UNL     1      43.994 129.933  22.460  1.00  0.00     0.098 C 
ATOM      4  C   UNL     1      44.527 128.916  23.462  1.00  0.00     0.106 C 
ATOM      5  C   UNL     1      45.060 128.927  22.037  1.00  0.00     0.034 C 
BRANCH   4   6
ATOM      6  C   UNL     1      43.584 127.829  23.752  1.00  0.00     0.066 C 
ATOM      7  N   UNL     1      42.837 126.975  23.977  1.00  0.00    -0.198 NA
ENDBRANCH   4   6
ENDBRANCH   1   3
BRANCH   1   8
ATOM      8  N   UNL     1      45.102 132.081  21.605  1.00  0.00    -0.273 N 
BRANCH   8   9
ATOM      9  C   UNL     1      46.217 132.959  21.858  1.00  0.00     0.051 A 
ATOM     10  C   UNL     1      46.491 134.047  20.986  1.00  0.00     0.027 A 
ATOM     11  C   UNL     1      47.067 132.721  22.964  1.00  0.00     0.053 A 
ATOM     12  C   UNL     1      47.590 134.895  21.216  1.00  0.00     0.012 A 
ATOM     13  C   UNL     1      48.146 133.581  23.163  1.00  0.00     0.047 A 
ATOM     14  C   UNL     1      48.395 134.629  22.320  1.00  0.00    -0.000 A 
ATOM     15  N   UNL     1      49.061 133.529  24.143  1.00  0.00    -0.361 N 
ATOM     16  C   UNL     1      49.522 135.273  22.783  1.00  0.00     0.028 A 
ATOM     17  C   UNL     1      49.906 134.562  23.916  1.00  0.00     0.083 A 
ATOM     18  H   UNL     1      49.117 132.835  24.920  1.00  0.00     0.166 HD
ENDBRANCH   8   9
BRANCH   8  19
ATOM     19  C   UNL     1      44.549 132.011  20.275  1.00  0.00     0.141 A 
ATOM     20  C   UNL     1      43.208 132.291  20.050  1.00  0.00     0.141 A 
ATOM     21  C   UNL     1      45.334 131.630  19.156  1.00  0.00     0.233 A 
ATOM     22  O   UNL     1      42.269 132.650  20.889  1.00  0.00    -0.555 OA
ATOM     23  C   UNL     1      42.634 132.188  18.756  1.00  0.00     0.000 A 
ATOM     24  C   UNL     1      44.756 131.521  17.845  1.00  0.00     0.136 A 
ATOM     25  N   UNL     1      41.129 132.792  20.263  1.00  0.00    -0.513 NA
ATOM     26  C   UNL     1      41.314 132.515  18.947  1.00  0.00    -0.098 A 
ATOM     27  C   UNL     1      43.378 131.804  17.655  1.00  0.00     0.044 A 
ATOM     28  O   UNL     1      46.559 131.390  19.330  1.00  0.00    -0.285 OA
BRANCH  24  29
ATOM     29  N   UNL     1      45.551 131.123  16.707  1.00  0.00    -0.146 N 
ATOM     30  N   UNL     1      46.069 129.904  16.544  1.00  0.00    -0.148 NA
ATOM     31  N   UNL     1      45.857 131.946  15.703  1.00  0.00    -0.148 NA
ATOM     32  C   UNL     1      46.730 129.960  15.379  1.00  0.00     0.113 A 
ATOM     33  C   UNL     1      46.600 131.211  14.864  1.00  0.00     0.113 A 
ATOM     34  C   UNL     1      47.452 128.962  14.733  1.00  0.00     0.032 A 
ATOM     35  C   UNL     1      47.178 131.580  13.654  1.00  0.00     0.032 A 
ATOM     36  C   UNL     1      48.056 129.296  13.504  1.00  0.00     0.002 A 
ATOM     37  C   UNL     1      47.921 130.599  12.967  1.00  0.00     0.002 A 
ENDBRANCH  24  29
ENDBRANCH   8  19
ENDBRANCH   1   8
TORSDOF 6
ENDMDL
MODEL 4
REMARK VINA RESULT:      -3.1      1.395      1.644
REMARK SMILES N#C[C@H]1C[C@@H]1C(=O)N(c1ccc2cc[nH]c2c1)c1c2o[n-]cc-2cc(-n2nc3ccccc3n2)c1=O
REMARK SMILES IDX 6 1 7 2 5 3 3 4 4 5 2 6 1 7 8 8 9 9 10 10 17 11 11 12 16 13
REMARK SMILES IDX 12 14 15 15 13 16 14 17 18 19 19 20 35 21 20 22 23 23 25 24
REMARK SMILES IDX 21 25 22 26 24 27 36 28 26 29 27 30 34 31 28 32 33 33 29 34
REMARK SMILES IDX 32 35 30 36 31 37
REMARK H PARENT 15 18
ROOT
ATOM      1  C   UNL     1      44.677 131.583  22.697  1.00  0.00     0.236 C 
ATOM      2  O   UNL     1      44.714 132.131  23.832  1.00  0.00    -0.274 OA
ENDROOT
BRANCH   1   3
ATOM      3  C   UNL     1      44.033 130.233  22.560  1.00  0.00     0.098 C 
ATOM      4  C   UNL     1      43.428 129.699  23.853  1.00  0.00     0.106 C 
ATOM      5  C   UNL     1      44.727 129.109  23.324  1.00  0.00     0.034 C 
BRANCH   4   6
ATOM      6  C   UNL     1      42.246 128.855  23.643  1.00  0.00     0.066 C 
ATOM      7  N   UNL     1      41.315 128.189  23.471  1.00  0.00    -0.198 NA
ENDBRANCH   4   6
ENDBRANCH   1   3
BRANCH   1   8
ATOM      8  N   UNL     1      45.289 132.232  21.562  1.00  0.00    -0.273 N 
BRANCH   8   9
ATOM      9  C   UNL     1      46.446 133.075  21.733  1.00  0.00     0.051 A 
ATOM     10  C   UNL     1      47.531 132.653  22.548  1.00  0.00     0.027 A 
ATOM     11  C   UNL     1      46.494 134.345  21.111  1.00  0.00     0.053 A 
ATOM     12  C   UNL     1      48.654 133.478  22.736  1.00  0.00     0.012 A 
ATOM     13  C   UNL     1      47.623 135.136  21.317  1.00  0.00     0.047 A 
ATOM     14  C   UNL     1      48.663 134.716  22.100  1.00  0.00    -0.000 A 
ATOM     15  N   UNL     1      47.862 136.361  20.822  1.00  0.00    -0.361 N 
ATOM     16  C   UNL     1      49.608 135.720  22.105  1.00  0.00     0.028 A 
ATOM     17  C   UNL     1      49.075 136.723  21.300  1.00  0.00     0.083 A 
ATOM     18  H   UNL     1      47.243 136.923  20.199  1.00  0.00     0.166 HD
ENDBRANCH   8   9
BRANCH   8  19
ATOM     19  C   UNL     1      44.703 132.098  20.251  1.00  0.00     0.141 A 
ATOM     20  C   UNL     1      43.346 132.316  20.056  1.00  0.00     0.141 A 
ATOM     21  C   UNL     1      45.473 131.714  19.122  1.00  0.00     0.233 A 
ATOM     22  O   UNL     1      42.417 132.662  20.911  1.00  0.00    -0.555 OA
ATOM     23  C   UNL     1      42.742 132.149  18.783  1.00  0.00     0.000 A 
ATOM     24  C   UNL     1      44.864 131.541  17.832  1.00  0.00     0.136 A 
ATOM     25  N   UNL     1      41.255 132.739  20.313  1.00  0.00    -0.513 NA
ATOM     26  C   UNL     1      41.415 132.428  19.002  1.00  0.00    -0.098 A 
ATOM     27  C   UNL     1      43.471 131.761  17.673  1.00  0.00     0.044 A 
ATOM     28  O   UNL     1      46.710 131.529  19.268  1.00  0.00    -0.285 OA
BRANCH  24  29
ATOM     29  N   UNL     1      45.643 131.140  16.684  1.00  0.00    -0.146 N 
ATOM     30  N   UNL     1      45.943 131.942  15.663  1.00  0.00    -0.148 NA
ATOM     31  N   UNL     1      46.135 129.909  16.528  1.00  0.00    -0.148 NA
ATOM     32  C   UNL     1      46.662 131.184  14.823  1.00  0.00     0.113 A 
ATOM     33  C   UNL     1      46.780 129.940  15.353  1.00  0.00     0.113 A 
ATOM     34  C   UNL     1      47.228 131.528  13.599  1.00  0.00     0.032 A 
ATOM     35  C   UNL     1      47.477 128.921  14.710  1.00  0.00     0.032 A 
ATOM     36  C   UNL     1      47.942 130.524  12.914  1.00  0.00     0.002 A 
ATOM     37  C   UNL     1      48.065 129.226  13.467  1.00  0.00     0.002 A 
ENDBRANCH  24  29
ENDBRANCH   8  19
ENDBRANCH   1   8
TORSDOF 6
ENDMDL
MODEL 5
REMARK VINA RESULT:      -2.3      1.306      4.530
REMARK SMILES N#C[C@H]1C[C@@H]1C(=O)N(c1ccc2cc[nH]c2c1)c1c2o[n-]cc-2cc(-n2nc3ccccc3n2)c1=O
REMARK SMILES IDX 6 1 7 2 5 3 3 4 4 5 2 6 1 7 8 8 9 9 10 10 17 11 11 12 16 13
REMARK SMILES IDX 12 14 15 15 13 16 14 17 18 19 19 20 35 21 20 22 23 23 25 24
REMARK SMILES IDX 21 25 22 26 24 27 36 28 26 29 27 30 34 31 28 32 33 33 29 34
REMARK SMILES IDX 32 35 30 36 31 37
REMARK H PARENT 15 18
ROOT
ATOM      1  C   UNL     1      45.565 132.433  22.035  1.00  0.00     0.236 C 
ATOM      2  O   UNL     1      44.882 133.452  22.330  1.00  0.00    -0.274 OA
ENDROOT
BRANCH   1   3
ATOM      3  C   UNL     1      47.031 132.420  22.362  1.00  0.00     0.098 C 
ATOM      4  C   UNL     1      47.740 133.743  22.099  1.00  0.00     0.106 C 
ATOM      5  C   UNL     1      47.959 132.566  21.161  1.00  0.00     0.034 C 
BRANCH   4   6
ATOM      6  C   UNL     1      48.853 134.004  23.019  1.00  0.00     0.066 C 
ATOM      7  N   UNL     1      49.731 134.205  23.745  1.00  0.00    -0.198 NA
ENDBRANCH   4   6
ENDBRANCH   1   3
BRANCH   1   8
ATOM      8  N   UNL     1      44.946 131.323  21.352  1.00  0.00    -0.273 N 
BRANCH   8   9
ATOM      9  C   UNL     1      44.832 130.037  21.995  1.00  0.00     0.051 A 
ATOM     10  C   UNL     1      44.019 129.878  23.150  1.00  0.00     0.027 A 
ATOM     11  C   UNL     1      45.555 128.929  21.494  1.00  0.00     0.053 A 
ATOM     12  C   UNL     1      43.919 128.632  23.794  1.00  0.00     0.012 A 
ATOM     13  C   UNL     1      45.432 127.708  22.156  1.00  0.00     0.047 A 
ATOM     14  C   UNL     1      44.642 127.567  23.264  1.00  0.00    -0.000 A 
ATOM     15  N   UNL     1      46.029 126.548  21.844  1.00  0.00    -0.361 N 
ATOM     16  C   UNL     1      44.741 126.256  23.677  1.00  0.00     0.028 A 
ATOM     17  C   UNL     1      45.610 125.655  22.771  1.00  0.00     0.083 A 
ATOM     18  H   UNL     1      46.684 126.366  21.052  1.00  0.00     0.166 HD
ENDBRANCH   8   9
BRANCH   8  19
ATOM     19  C   UNL     1      44.497 131.471  19.990  1.00  0.00     0.141 A 
ATOM     20  C   UNL     1      43.200 131.882  19.713  1.00  0.00     0.141 A 
ATOM     21  C   UNL     1      45.340 131.180  18.887  1.00  0.00     0.233 A 
ATOM     22  O   UNL     1      42.224 132.200  20.526  1.00  0.00    -0.555 OA
ATOM     23  C   UNL     1      42.725 131.994  18.380  1.00  0.00     0.000 A 
ATOM     24  C   UNL     1      44.862 131.290  17.537  1.00  0.00     0.136 A 
ATOM     25  N   UNL     1      41.150 132.512  19.848  1.00  0.00    -0.513 NA
ATOM     26  C   UNL     1      41.419 132.396  18.522  1.00  0.00    -0.098 A 
ATOM     27  C   UNL     1      43.526 131.701  17.291  1.00  0.00     0.044 A 
ATOM     28  O   UNL     1      46.528 130.824  19.110  1.00  0.00    -0.285 OA
BRANCH  24  29
ATOM     29  N   UNL     1      45.716 130.983  16.412  1.00  0.00    -0.146 N 
ATOM     30  N   UNL     1      46.013 131.844  15.439  1.00  0.00    -0.148 NA
ATOM     31  N   UNL     1      46.286 129.790  16.231  1.00  0.00    -0.148 NA
ATOM     32  C   UNL     1      46.814 131.165  14.605  1.00  0.00     0.113 A 
ATOM     33  C   UNL     1      46.981 129.908  15.090  1.00  0.00     0.113 A 
ATOM     34  C   UNL     1      47.414 131.592  13.425  1.00  0.00     0.032 A 
ATOM     35  C   UNL     1      47.766 128.959  14.442  1.00  0.00     0.032 A 
ATOM     36  C   UNL     1      48.217 130.661  12.736  1.00  0.00     0.002 A 
ATOM     37  C   UNL     1      48.391 129.350  13.241  1.00  0.00     0.002 A 
ENDBRANCH  24  29
ENDBRANCH   8  19
ENDBRANCH   1   8
TORSDOF 6
ENDMDL


