MODEL 1
REMARK VINA RESULT:      -9.4      0.000      0.000
REMARK SMILES Cn1n[nH+]c2cc([N-]C(=O)c3cc(F)c[nH]3)ccc21
REMARK SMILES IDX 8 1 7 2 2 3 3 4 19 5 4 6 18 7 5 8 17 9 6 10 1 11 9 13 10 14
REMARK SMILES IDX 11 15 12 16 16 17 13 18 15 19 14 21
REMARK H PARENT 4 12 16 20
ROOT
ATOM      1  N   UNL     1      46.236 130.719  17.351  1.00  0.00    -0.621 NA
ENDROOT
BRANCH   1   2
ATOM      2  C   UNL     1      45.339 131.029  18.427  1.00  0.00    -0.129 A 
ATOM      3  N   UNL     1      42.599 132.141  21.260  1.00  0.00    -0.133 N 
ATOM      4  N   UNL     1      41.737 132.775  20.470  1.00  0.00     0.088 NA
ATOM      5  C   UNL     1      43.600 131.692  20.484  1.00  0.00     0.197 A 
ATOM      6  N   UNL     1      42.158 132.736  19.209  1.00  0.00    -0.143 N 
ATOM      7  C   UNL     1      44.755 130.991  20.820  1.00  0.00     0.057 A 
ATOM      8  C   UNL     1      43.322 132.062  19.205  1.00  0.00     0.194 A 
ATOM      9  C   UNL     1      45.637 130.664  19.772  1.00  0.00    -0.011 A 
ATOM     10  C   UNL     1      44.166 131.761  18.142  1.00  0.00     0.042 A 
ATOM     11  C   UNL     1      42.465 132.016  22.706  1.00  0.00     0.327 C 
ATOM     12  H   UNL     1      41.664 133.161  18.394  1.00  0.00     0.342 HD
ENDBRANCH   1   2
BRANCH   1  13
ATOM     13  C   UNL     1      45.898 130.018  16.148  1.00  0.00     0.102 C 
ATOM     14  O   UNL     1      44.877 129.282  16.142  1.00  0.00    -0.313 OA
BRANCH  13  15
ATOM     15  C   UNL     1      46.745 130.088  14.940  1.00  0.00     0.066 A 
ATOM     16  C   UNL     1      46.679 131.082  13.979  1.00  0.00     0.069 A 
ATOM     17  N   UNL     1      47.663 129.161  14.592  1.00  0.00    -0.357 N 
ATOM     18  C   UNL     1      47.612 130.738  13.026  1.00  0.00     0.141 A 
ATOM     19  C   UNL     1      48.200 129.557  13.424  1.00  0.00     0.122 A 
ATOM     20  H   UNL     1      47.902 128.285  15.107  1.00  0.00     0.166 HD
ATOM     21  F   UNL     1      47.892 131.428  11.894  1.00  0.00    -0.205 F 
ENDBRANCH  13  15
ENDBRANCH   1  13
TORSDOF 3
ENDMDL
MODEL 2
REMARK VINA RESULT:      -9.2      1.300      1.932
REMARK SMILES Cn1n[nH+]c2cc([N-]C(=O)c3cc(F)c[nH]3)ccc21
REMARK SMILES IDX 8 1 7 2 2 3 3 4 19 5 4 6 18 7 5 8 17 9 6 10 1 11 9 13 10 14
REMARK SMILES IDX 11 15 12 16 16 17 13 18 15 19 14 21
REMARK H PARENT 4 12 16 20
ROOT
ATOM      1  N   UNL     1      44.530 131.074  15.964  1.00  0.00    -0.621 NA
ENDROOT
BRANCH   1   2
ATOM      2  C   UNL     1      44.272 131.270  17.361  1.00  0.00    -0.129 A 
ATOM      3  N   UNL     1      43.866 131.661  21.418  1.00  0.00    -0.133 N 
ATOM      4  N   UNL     1      45.098 131.309  21.779  1.00  0.00     0.088 NA
ATOM      5  C   UNL     1      43.806 131.591  20.077  1.00  0.00     0.197 A 
ATOM      6  N   UNL     1      45.826 131.023  20.703  1.00  0.00    -0.143 N 
ATOM      7  C   UNL     1      42.745 131.834  19.210  1.00  0.00     0.057 A 
ATOM      8  C   UNL     1      45.029 131.195  19.634  1.00  0.00     0.194 A 
ATOM      9  C   UNL     1      42.986 131.663  17.833  1.00  0.00    -0.011 A 
ATOM     10  C   UNL     1      45.309 131.012  18.284  1.00  0.00     0.042 A 
ATOM     11  C   UNL     1      42.797 132.012  22.343  1.00  0.00     0.327 C 
ATOM     12  H   UNL     1      46.824 130.719  20.713  1.00  0.00     0.342 HD
ENDBRANCH   1   2
BRANCH   1  13
ATOM     13  C   UNL     1      45.192 129.946  15.379  1.00  0.00     0.102 C 
ATOM     14  O   UNL     1      44.768 128.790  15.643  1.00  0.00    -0.313 OA
BRANCH  13  15
ATOM     15  C   UNL     1      46.387 130.098  14.526  1.00  0.00     0.066 A 
ATOM     16  C   UNL     1      46.642 131.178  13.698  1.00  0.00     0.069 A 
ATOM     17  N   UNL     1      47.368 129.177  14.408  1.00  0.00    -0.357 N 
ATOM     18  C   UNL     1      47.836 130.892  13.073  1.00  0.00     0.141 A 
ATOM     19  C   UNL     1      48.258 129.660  13.524  1.00  0.00     0.122 A 
ATOM     20  H   UNL     1      47.423 128.250  14.884  1.00  0.00     0.166 HD
ATOM     21  F   UNL     1      48.472 131.674  12.167  1.00  0.00    -0.205 F 
ENDBRANCH  13  15
ENDBRANCH   1  13
TORSDOF 3
ENDMDL
MODEL 3
REMARK VINA RESULT:      -9.1      1.820      2.265
REMARK SMILES Cn1n[nH+]c2cc([N-]C(=O)c3cc(F)c[nH]3)ccc21
REMARK SMILES IDX 8 1 7 2 2 3 3 4 19 5 4 6 18 7 5 8 17 9 6 10 1 11 9 13 10 14
REMARK SMILES IDX 11 15 12 16 16 17 13 18 15 19 14 21
REMARK H PARENT 4 12 16 20
ROOT
ATOM      1  N   UNL     1      45.139 132.148  17.829  1.00  0.00    -0.621 NA
ENDROOT
BRANCH   1   2
ATOM      2  C   UNL     1      44.860 131.609  19.129  1.00  0.00    -0.129 A 
ATOM      3  N   UNL     1      43.810 130.344  22.880  1.00  0.00    -0.133 N 
ATOM      4  N   UNL     1      42.721 131.090  23.047  1.00  0.00     0.088 NA
ATOM      5  C   UNL     1      44.310 130.631  21.666  1.00  0.00     0.197 A 
ATOM      6  N   UNL     1      42.510 131.841  21.969  1.00  0.00    -0.143 N 
ATOM      7  C   UNL     1      45.443 130.144  21.021  1.00  0.00     0.057 A 
ATOM      8  C   UNL     1      43.497 131.563  21.099  1.00  0.00     0.194 A 
ATOM      9  C   UNL     1      45.721 130.650  19.737  1.00  0.00    -0.011 A 
ATOM     10  C   UNL     1      43.736 132.089  19.834  1.00  0.00     0.042 A 
ATOM     11  C   UNL     1      44.349 129.425  23.874  1.00  0.00     0.327 C 
ATOM     12  H   UNL     1      41.724 132.515  21.848  1.00  0.00     0.342 HD
ENDBRANCH   1   2
BRANCH   1  13
ATOM     13  C   UNL     1      44.741 131.577  16.577  1.00  0.00     0.102 C 
ATOM     14  O   UNL     1      43.516 131.387  16.358  1.00  0.00    -0.313 OA
BRANCH  13  15
ATOM     15  C   UNL     1      45.729 131.151  15.564  1.00  0.00     0.066 A 
ATOM     16  C   UNL     1      46.209 129.862  15.414  1.00  0.00     0.069 A 
ATOM     17  N   UNL     1      46.327 131.980  14.682  1.00  0.00    -0.357 N 
ATOM     18  C   UNL     1      47.123 129.925  14.384  1.00  0.00     0.141 A 
ATOM     19  C   UNL     1      47.177 131.233  13.955  1.00  0.00     0.122 A 
ATOM     20  H   UNL     1      46.188 133.010  14.588  1.00  0.00     0.166 HD
ATOM     21  F   UNL     1      47.848 128.891  13.893  1.00  0.00    -0.205 F 
ENDBRANCH  13  15
ENDBRANCH   1  13
TORSDOF 3
ENDMDL
MODEL 4
REMARK VINA RESULT:      -9.1      1.574      2.194
REMARK SMILES Cn1n[nH+]c2cc([N-]C(=O)c3cc(F)c[nH]3)ccc21
REMARK SMILES IDX 8 1 7 2 2 3 3 4 19 5 4 6 18 7 5 8 17 9 6 10 1 11 9 13 10 14
REMARK SMILES IDX 11 15 12 16 16 17 13 18 15 19 14 21
REMARK H PARENT 4 12 16 20
ROOT
ATOM      1  N   UNL     1      44.522 131.330  15.995  1.00  0.00    -0.621 NA
ENDROOT
BRANCH   1   2
ATOM      2  C   UNL     1      44.235 131.460  17.394  1.00  0.00    -0.129 A 
ATOM      3  N   UNL     1      43.749 131.668  21.456  1.00  0.00    -0.133 N 
ATOM      4  N   UNL     1      44.985 131.340  21.824  1.00  0.00     0.088 NA
ATOM      5  C   UNL     1      43.714 131.652  20.112  1.00  0.00     0.197 A 
ATOM      6  N   UNL     1      45.740 131.121  20.750  1.00  0.00    -0.143 N 
ATOM      7  C   UNL     1      42.660 131.899  19.236  1.00  0.00     0.057 A 
ATOM      8  C   UNL     1      44.956 131.313  19.675  1.00  0.00     0.194 A 
ATOM      9  C   UNL     1      42.929 131.792  17.858  1.00  0.00    -0.011 A 
ATOM     10  C   UNL     1      45.264 131.196  18.324  1.00  0.00     0.042 A 
ATOM     11  C   UNL     1      42.654 131.947  22.375  1.00  0.00     0.327 C 
ATOM     12  H   UNL     1      46.746 130.848  20.766  1.00  0.00     0.342 HD
ENDBRANCH   1   2
BRANCH   1  13
ATOM     13  C   UNL     1      45.100 130.185  15.355  1.00  0.00     0.102 C 
ATOM     14  O   UNL     1      44.614 129.049  15.593  1.00  0.00    -0.313 OA
BRANCH  13  15
ATOM     15  C   UNL     1      46.281 130.296  14.476  1.00  0.00     0.066 A 
ATOM     16  C   UNL     1      47.290 129.353  14.377  1.00  0.00     0.069 A 
ATOM     17  N   UNL     1      46.553 131.357  13.687  1.00  0.00    -0.357 N 
ATOM     18  C   UNL     1      48.194 129.873  13.476  1.00  0.00     0.141 A 
ATOM     19  C   UNL     1      47.719 131.101  13.070  1.00  0.00     0.122 A 
ATOM     20  H   UNL     1      45.988 132.230  13.586  1.00  0.00     0.166 HD
ATOM     21  F   UNL     1      49.348 129.288  13.073  1.00  0.00    -0.205 F 
ENDBRANCH  13  15
ENDBRANCH   1  13
TORSDOF 3
ENDMDL
MODEL 5
REMARK VINA RESULT:      -9.1      1.458      1.806
REMARK SMILES Cn1n[nH+]c2cc([N-]C(=O)c3cc(F)c[nH]3)ccc21
REMARK SMILES IDX 8 1 7 2 2 3 3 4 19 5 4 6 18 7 5 8 17 9 6 10 1 11 9 13 10 14
REMARK SMILES IDX 11 15 12 16 16 17 13 18 15 19 14 21
REMARK H PARENT 4 12 16 20
ROOT
ATOM      1  N   UNL     1      45.186 131.968  17.663  1.00  0.00    -0.621 NA
ENDROOT
BRANCH   1   2
ATOM      2  C   UNL     1      44.884 131.520  18.992  1.00  0.00    -0.129 A 
ATOM      3  N   UNL     1      43.770 130.519  22.804  1.00  0.00    -0.133 N 
ATOM      4  N   UNL     1      42.686 131.283  22.906  1.00  0.00     0.088 NA
ATOM      5  C   UNL     1      44.289 130.719  21.581  1.00  0.00     0.197 A 
ATOM      6  N   UNL     1      42.497 131.961  21.776  1.00  0.00    -0.143 N 
ATOM      7  C   UNL     1      45.428 130.181  20.987  1.00  0.00     0.057 A 
ATOM      8  C   UNL     1      43.493 131.617  20.941  1.00  0.00     0.194 A 
ATOM      9  C   UNL     1      45.728 130.597  19.676  1.00  0.00    -0.011 A 
ATOM     10  C   UNL     1      43.754 132.055  19.648  1.00  0.00     0.042 A 
ATOM     11  C   UNL     1      44.287 129.665  23.866  1.00  0.00     0.327 C 
ATOM     12  H   UNL     1      41.718 132.632  21.598  1.00  0.00     0.342 HD
ENDBRANCH   1   2
BRANCH   1  13
ATOM     13  C   UNL     1      44.812 131.309  16.447  1.00  0.00     0.102 C 
ATOM     14  O   UNL     1      43.594 131.079  16.232  1.00  0.00    -0.313 OA
BRANCH  13  15
ATOM     15  C   UNL     1      45.818 130.843  15.471  1.00  0.00     0.066 A 
ATOM     16  C   UNL     1      46.122 131.476  14.279  1.00  0.00     0.069 A 
ATOM     17  N   UNL     1      46.539 129.708  15.597  1.00  0.00    -0.357 N 
ATOM     18  C   UNL     1      47.079 130.689  13.676  1.00  0.00     0.141 A 
ATOM     19  C   UNL     1      47.315 129.613  14.503  1.00  0.00     0.122 A 
ATOM     20  H   UNL     1      46.493 129.014  16.374  1.00  0.00     0.166 HD
ATOM     21  F   UNL     1      47.671 130.924  12.480  1.00  0.00    -0.205 F 
ENDBRANCH  13  15
ENDBRANCH   1  13
TORSDOF 3
ENDMDL
MODEL 6
REMARK VINA RESULT:      -8.9      1.267      1.504
REMARK SMILES Cn1n[nH+]c2cc([N-]C(=O)c3cc(F)c[nH]3)ccc21
REMARK SMILES IDX 8 1 7 2 2 3 3 4 19 5 4 6 18 7 5 8 17 9 6 10 1 11 9 13 10 14
REMARK SMILES IDX 11 15 12 16 16 17 13 18 15 19 14 21
REMARK H PARENT 4 12 16 20
ROOT
ATOM      1  N   UNL     1      44.613 131.231  16.156  1.00  0.00    -0.621 NA
ENDROOT
BRANCH   1   2
ATOM      2  C   UNL     1      44.441 131.294  17.578  1.00  0.00    -0.129 A 
ATOM      3  N   UNL     1      43.645 131.684  21.577  1.00  0.00    -0.133 N 
ATOM      4  N   UNL     1      42.427 132.212  21.490  1.00  0.00     0.088 NA
ATOM      5  C   UNL     1      44.085 131.480  20.323  1.00  0.00     0.197 A 
ATOM      6  N   UNL     1      42.076 132.343  20.214  1.00  0.00    -0.143 N 
ATOM      7  C   UNL     1      45.298 130.972  19.866  1.00  0.00     0.057 A 
ATOM      8  C   UNL     1      43.103 131.890  19.475  1.00  0.00     0.194 A 
ATOM      9  C   UNL     1      45.475 130.887  18.471  1.00  0.00    -0.011 A 
ATOM     10  C   UNL     1      43.239 131.824  18.093  1.00  0.00     0.042 A 
ATOM     11  C   UNL     1      44.354 131.428  22.825  1.00  0.00     0.327 C 
ATOM     12  H   UNL     1      41.169 132.734  19.875  1.00  0.00     0.342 HD
ENDBRANCH   1   2
BRANCH   1  13
ATOM     13  C   UNL     1      45.132 130.118  15.418  1.00  0.00     0.102 C 
ATOM     14  O   UNL     1      44.606 128.986  15.579  1.00  0.00    -0.313 OA
BRANCH  13  15
ATOM     15  C   UNL     1      46.299 130.251  14.522  1.00  0.00     0.066 A 
ATOM     16  C   UNL     1      47.320 129.324  14.403  1.00  0.00     0.069 A 
ATOM     17  N   UNL     1      46.543 131.321  13.735  1.00  0.00    -0.357 N 
ATOM     18  C   UNL     1      48.203 129.862  13.493  1.00  0.00     0.141 A 
ATOM     19  C   UNL     1      47.705 131.085  13.100  1.00  0.00     0.122 A 
ATOM     20  H   UNL     1      45.965 132.185  13.648  1.00  0.00     0.166 HD
ATOM     21  F   UNL     1      49.359 129.296  13.070  1.00  0.00    -0.205 F 
ENDBRANCH  13  15
ENDBRANCH   1  13
TORSDOF 3
ENDMDL
MODEL 7
REMARK VINA RESULT:      -8.8      0.891      1.649
REMARK SMILES Cn1n[nH+]c2cc([N-]C(=O)c3cc(F)c[nH]3)ccc21
REMARK SMILES IDX 8 1 7 2 2 3 3 4 19 5 4 6 18 7 5 8 17 9 6 10 1 11 9 13 10 14
REMARK SMILES IDX 11 15 12 16 16 17 13 18 15 19 14 21
REMARK H PARENT 4 12 16 20
ROOT
ATOM      1  N   UNL     1      46.223 130.173  17.157  1.00  0.00    -0.621 NA
ENDROOT
BRANCH   1   2
ATOM      2  C   UNL     1      45.260 130.783  18.028  1.00  0.00    -0.129 A 
ATOM      3  N   UNL     1      42.676 132.340  20.798  1.00  0.00    -0.133 N 
ATOM      4  N   UNL     1      43.312 131.961  21.903  1.00  0.00     0.088 NA
ATOM      5  C   UNL     1      43.397 131.904  19.751  1.00  0.00     0.197 A 
ATOM      6  N   UNL     1      44.423 131.300  21.588  1.00  0.00    -0.143 N 
ATOM      7  C   UNL     1      43.159 132.019  18.383  1.00  0.00     0.057 A 
ATOM      8  C   UNL     1      44.487 131.258  20.246  1.00  0.00     0.194 A 
ATOM      9  C   UNL     1      44.105 131.441  17.515  1.00  0.00    -0.011 A 
ATOM     10  C   UNL     1      45.443 130.673  19.423  1.00  0.00     0.042 A 
ATOM     11  C   UNL     1      41.410 133.060  20.773  1.00  0.00     0.327 C 
ATOM     12  H   UNL     1      45.099 130.895  22.272  1.00  0.00     0.342 HD
ENDBRANCH   1   2
BRANCH   1  13
ATOM     13  C   UNL     1      45.963 129.643  15.852  1.00  0.00     0.102 C 
ATOM     14  O   UNL     1      44.955 128.908  15.686  1.00  0.00    -0.313 OA
BRANCH  13  15
ATOM     15  C   UNL     1      46.874 129.886  14.714  1.00  0.00     0.066 A 
ATOM     16  C   UNL     1      46.803 130.970  13.857  1.00  0.00     0.069 A 
ATOM     17  N   UNL     1      47.867 129.053  14.336  1.00  0.00    -0.357 N 
ATOM     18  C   UNL     1      47.811 130.780  12.936  1.00  0.00     0.141 A 
ATOM     19  C   UNL     1      48.446 129.598  13.252  1.00  0.00     0.122 A 
ATOM     20  H   UNL     1      48.129 128.143  14.775  1.00  0.00     0.166 HD
ATOM     21  F   UNL     1      48.114 131.599  11.900  1.00  0.00    -0.205 F 
ENDBRANCH  13  15
ENDBRANCH   1  13
TORSDOF 3
ENDMDL
MODEL 8
REMARK VINA RESULT:      -8.7      1.291      1.418
REMARK SMILES Cn1n[nH+]c2cc([N-]C(=O)c3cc(F)c[nH]3)ccc21
REMARK SMILES IDX 8 1 7 2 2 3 3 4 19 5 4 6 18 7 5 8 17 9 6 10 1 11 9 13 10 14
REMARK SMILES IDX 11 15 12 16 16 17 13 18 15 19 14 21
REMARK H PARENT 4 12 16 20
ROOT
ATOM      1  N   UNL     1      45.991 130.498  17.366  1.00  0.00    -0.621 NA
ENDROOT
BRANCH   1   2
ATOM      2  C   UNL     1      45.312 130.795  18.594  1.00  0.00    -0.129 A 
ATOM      3  N   UNL     1      43.150 131.875  21.901  1.00  0.00    -0.133 N 
ATOM      4  N   UNL     1      42.158 132.519  21.293  1.00  0.00     0.088 NA
ATOM      5  C   UNL     1      43.988 131.434  20.946  1.00  0.00     0.197 A 
ATOM      6  N   UNL     1      42.337 132.495  19.975  1.00  0.00    -0.143 N 
ATOM      7  C   UNL     1      45.183 130.728  21.053  1.00  0.00     0.057 A 
ATOM      8  C   UNL     1      43.478 131.820  19.746  1.00  0.00     0.194 A 
ATOM      9  C   UNL     1      45.854 130.413  19.856  1.00  0.00    -0.011 A 
ATOM     10  C   UNL     1      44.108 131.531  18.541  1.00  0.00     0.042 A 
ATOM     11  C   UNL     1      43.287 131.731  23.345  1.00  0.00     0.327 C 
ATOM     12  H   UNL     1      41.701 132.930  19.271  1.00  0.00     0.342 HD
ENDBRANCH   1   2
BRANCH   1  13
ATOM     13  C   UNL     1      45.853 131.213  16.132  1.00  0.00     0.102 C 
ATOM     14  O   UNL     1      44.978 132.113  16.048  1.00  0.00    -0.313 OA
BRANCH  13  15
ATOM     15  C   UNL     1      46.666 130.882  14.943  1.00  0.00     0.066 A 
ATOM     16  C   UNL     1      47.381 129.711  14.769  1.00  0.00     0.069 A 
ATOM     17  N   UNL     1      46.852 131.706  13.890  1.00  0.00    -0.357 N 
ATOM     18  C   UNL     1      48.009 129.838  13.550  1.00  0.00     0.141 A 
ATOM     19  C   UNL     1      47.670 131.069  13.033  1.00  0.00     0.122 A 
ATOM     20  H   UNL     1      46.466 132.667  13.764  1.00  0.00     0.166 HD
ATOM     21  F   UNL     1      48.824 128.924  12.970  1.00  0.00    -0.205 F 
ENDBRANCH  13  15
ENDBRANCH   1  13
TORSDOF 3
ENDMDL
MODEL 9
REMARK VINA RESULT:      -8.4      1.313      1.405
REMARK SMILES Cn1n[nH+]c2cc([N-]C(=O)c3cc(F)c[nH]3)ccc21
REMARK SMILES IDX 8 1 7 2 2 3 3 4 19 5 4 6 18 7 5 8 17 9 6 10 1 11 9 13 10 14
REMARK SMILES IDX 11 15 12 16 16 17 13 18 15 19 14 21
REMARK H PARENT 4 12 16 20
ROOT
ATOM      1  N   UNL     1      44.779 130.910  16.807  1.00  0.00    -0.621 NA
ENDROOT
BRANCH   1   2
ATOM      2  C   UNL     1      44.555 131.062  18.216  1.00  0.00    -0.129 A 
ATOM      3  N   UNL     1      43.622 131.716  22.150  1.00  0.00    -0.133 N 
ATOM      4  N   UNL     1      42.436 132.296  21.983  1.00  0.00     0.088 NA
ATOM      5  C   UNL     1      44.100 131.421  20.929  1.00  0.00     0.197 A 
ATOM      6  N   UNL     1      42.142 132.371  20.688  1.00  0.00    -0.143 N 
ATOM      7  C   UNL     1      45.303 130.831  20.552  1.00  0.00     0.057 A 
ATOM      8  C   UNL     1      43.174 131.828  20.019  1.00  0.00     0.194 A 
ATOM      9  C   UNL     1      45.531 130.659  19.173  1.00  0.00    -0.011 A 
ATOM     10  C   UNL     1      43.360 131.677  18.650  1.00  0.00     0.042 A 
ATOM     11  C   UNL     1      44.267 131.499  23.439  1.00  0.00     0.327 C 
ATOM     12  H   UNL     1      41.270 132.784  20.290  1.00  0.00     0.342 HD
ENDBRANCH   1   2
BRANCH   1  13
ATOM     13  C   UNL     1      45.766 131.600  16.032  1.00  0.00     0.102 C 
ATOM     14  O   UNL     1      45.869 132.848  16.153  1.00  0.00    -0.313 OA
BRANCH  13  15
ATOM     15  C   UNL     1      46.622 130.897  15.055  1.00  0.00     0.066 A 
ATOM     16  C   UNL     1      46.902 131.345  13.775  1.00  0.00     0.069 A 
ATOM     17  N   UNL     1      47.207 129.699  15.270  1.00  0.00    -0.357 N 
ATOM     18  C   UNL     1      47.702 130.375  13.211  1.00  0.00     0.141 A 
ATOM     19  C   UNL     1      47.872 129.378  14.147  1.00  0.00     0.122 A 
ATOM     20  H   UNL     1      47.141 129.110  16.129  1.00  0.00     0.166 HD
ATOM     21  F   UNL     1      48.217 130.392  11.958  1.00  0.00    -0.205 F 
ENDBRANCH  13  15
ENDBRANCH   1  13
TORSDOF 3
ENDMDL


