REMARK SMILES COC[N-]C(=O)[N-]c1c(N)cc(C)cc1-n1nc2ccccc2[nH+]1
REMARK SMILES IDX 5 1 6 2 4 3 3 4 2 5 1 6 7 7 8 8 9 9 15 10 11 11 14 12 12 13
REMARK SMILES IDX 13 14 10 15 16 18 17 19 24 20 18 21 23 22 19 23 22 24 20 25
REMARK SMILES IDX 21 26
REMARK H PARENT 10 16 10 17 24 27
ROOT
ATOM      1  C   UNL     1      -0.499  -1.165  -1.217  1.00  0.00    -0.035 C 
ATOM      2  O   UNL     1      -1.747  -1.035  -1.338  1.00  0.00    -0.341 OA
ENDROOT
BRANCH   1   3
ATOM      3  N   UNL     1       0.114  -2.398  -1.592  1.00  0.00    -0.648 NA
BRANCH   3   4
ATOM      4  C   UNL     1       1.541  -2.643  -1.442  1.00  0.00     0.048 C 
BRANCH   4   5
ATOM      5  O   UNL     1       1.827  -3.950  -1.887  1.00  0.00    -0.403 OA
ATOM      6  C   UNL     1       3.206  -4.202  -1.737  1.00  0.00     0.192 C 
ENDBRANCH   4   5
ENDBRANCH   3   4
ENDBRANCH   1   3
BRANCH   1   7
ATOM      7  N   UNL     1       0.298  -0.081  -0.724  1.00  0.00    -0.640 NA
BRANCH   7   8
ATOM      8  C   UNL     1      -0.239   1.105  -0.118  1.00  0.00    -0.080 A 
ATOM      9  C   UNL     1       0.179   2.365  -0.590  1.00  0.00     0.019 A 
ATOM     10  C   UNL     1      -1.178   1.027   0.938  1.00  0.00     0.115 A 
ATOM     11  C   UNL     1      -0.387   3.531  -0.057  1.00  0.00     0.027 A 
ATOM     12  C   UNL     1      -1.742   2.207   1.447  1.00  0.00     0.036 A 
ATOM     13  C   UNL     1      -1.367   3.457   0.940  1.00  0.00    -0.047 A 
ATOM     14  C   UNL     1      -1.940   4.713   1.529  1.00  0.00     0.044 C 
BRANCH   9  15
ATOM     15  N   UNL     1       1.161   2.474  -1.629  1.00  0.00    -0.400 N 
ATOM     16  H   UNL     1       1.607   1.631  -2.053  1.00  0.00     0.156 HD
ATOM     17  H   UNL     1       1.459   3.410  -1.983  1.00  0.00     0.156 HD
ENDBRANCH   9  15
BRANCH  10  18
ATOM     18  N   UNL     1      -1.510  -0.230   1.551  1.00  0.00    -0.014 N 
ATOM     19  N   UNL     1      -0.619  -1.191   1.796  1.00  0.00     0.053 NA
ATOM     20  N   UNL     1      -2.731  -0.559   1.969  1.00  0.00    -0.161 N 
ATOM     21  C   UNL     1      -1.321  -2.175   2.384  1.00  0.00     0.249 A 
ATOM     22  C   UNL     1      -2.623  -1.787   2.491  1.00  0.00     0.198 A 
ATOM     23  C   UNL     1      -0.881  -3.416   2.833  1.00  0.00     0.064 A 
ATOM     24  C   UNL     1      -3.600  -2.601   3.054  1.00  0.00     0.058 A 
ATOM     25  C   UNL     1      -1.839  -4.272   3.412  1.00  0.00     0.005 A 
ATOM     26  C   UNL     1      -3.193  -3.866   3.522  1.00  0.00     0.005 A 
ATOM     27  H   UNL     1      -3.593   0.024   1.880  1.00  0.00     0.340 HD
ENDBRANCH  10  18
ENDBRANCH   7   8
ENDBRANCH   1   7
TORSDOF 7


