REMARK SMILES F[C@@]12CC=N[C@@H]1CC[C@@H](c1cnc3ocnc3c1)[C@H]2Cl
REMARK SMILES IDX 1 1 2 2 3 3 4 4 5 5 6 6 7 7 8 8 9 9 19 10 20 11 10 12 11 13
REMARK SMILES IDX 18 14 12 15 17 16 13 17 16 18 14 19 15 20
REMARK H PARENT
ROOT
ATOM      1  F   UNL     1       2.764  -3.131   0.129  1.00  0.00    -0.239 F 
ATOM      2  C   UNL     1       2.537  -1.779  -0.090  1.00  0.00     0.154 C 
ATOM      3  C   UNL     1       3.616  -0.968   0.661  1.00  0.00     0.092 C 
ATOM      4  C   UNL     1       4.182  -0.094  -0.397  1.00  0.00     0.081 C 
ATOM      5  N   UNL     1       3.734  -0.342  -1.565  1.00  0.00    -0.291 NA
ATOM      6  C   UNL     1       2.801  -1.436  -1.584  1.00  0.00     0.144 C 
ATOM      7  C   UNL     1       1.547  -1.066  -2.393  1.00  0.00     0.031 C 
ATOM      8  C   UNL     1       0.684   0.027  -1.735  1.00  0.00     0.012 C 
ATOM      9  C   UNL     1       0.667  -0.033  -0.183  1.00  0.00     0.042 C 
ATOM     10  C   UNL     1       1.101  -1.409   0.385  1.00  0.00     0.128 C 
ATOM     11  Cl  UNL     1      -0.059  -2.715  -0.032  1.00  0.00    -0.119 Cl
ENDROOT
BRANCH   9  12
ATOM     12  C   UNL     1      -0.639   0.455   0.428  1.00  0.00    -0.022 A 
ATOM     13  C   UNL     1      -0.605   1.400   1.495  1.00  0.00     0.119 A 
ATOM     14  C   UNL     1      -1.898  -0.044   0.006  1.00  0.00     0.040 A 
ATOM     15  N   UNL     1      -1.759   1.836   2.087  1.00  0.00    -0.219 NA
ATOM     16  C   UNL     1      -3.031   0.439   0.646  1.00  0.00     0.129 A 
ATOM     17  C   UNL     1      -2.940   1.345   1.645  1.00  0.00     0.246 A 
ATOM     18  N   UNL     1      -4.319   0.128   0.426  1.00  0.00    -0.215 NA
ATOM     19  O   UNL     1      -4.134   1.634   2.081  1.00  0.00    -0.425 OA
ATOM     20  C   UNL     1      -4.958   0.902   1.346  1.00  0.00     0.311 A 
ENDBRANCH   9  12
TORSDOF 1


