REMARK SMILES [O-]/C(=C/C[C@@H]1CCC[C@H]2C=c3ccccc3=C[C@@]12F)c1ccccc1
REMARK SMILES IDX 4 1 5 2 10 3 11 4 9 5 12 6 16 7 18 8 8 9 13 10 15 11 17 12
REMARK SMILES IDX 7 13 14 14 6 15 19 16 3 17 2 18 1 19 20 20 21 21 25 22 22 23
REMARK SMILES IDX 24 24 23 25
REMARK H PARENT
ROOT
ATOM      1  C   UNL     1       1.460   1.615   0.798  1.00  0.00     0.034 C 
ENDROOT
BRANCH   1   2
ATOM      2  C   UNL     1       0.334   0.777   1.468  1.00  0.00     0.035 C 
ATOM      3  C   UNL     1      -1.327  -1.890   1.772  1.00  0.00    -0.011 C 
ATOM      4  C   UNL     1      -0.913  -2.362   0.580  1.00  0.00    -0.022 A 
ATOM      5  C   UNL     1      -0.325  -1.342   2.766  1.00  0.00     0.054 C 
ATOM      6  C   UNL     1      -1.819  -3.027  -0.265  1.00  0.00     0.008 A 
ATOM      7  C   UNL     1       0.445  -2.230   0.179  1.00  0.00    -0.020 A 
ATOM      8  C   UNL     1       0.822  -0.601   2.027  1.00  0.00     0.139 C 
ATOM      9  C   UNL     1      -0.996  -0.459   3.834  1.00  0.00     0.011 C 
ATOM     10  C   UNL     1      -1.378  -3.606  -1.458  1.00  0.00     0.001 A 
ATOM     11  C   UNL     1       0.877  -2.851  -1.006  1.00  0.00     0.008 A 
ATOM     12  C   UNL     1       1.309  -1.494   0.905  1.00  0.00     0.023 C 
ATOM     13  C   UNL     1      -1.470   0.874   3.252  1.00  0.00     0.001 C 
ATOM     14  C   UNL     1      -0.032  -3.531  -1.819  1.00  0.00     0.001 A 
ATOM     15  C   UNL     1      -0.309   1.619   2.591  1.00  0.00     0.007 C 
ATOM     16  F   UNL     1       1.868  -0.399   2.915  1.00  0.00    -0.238 F 
ENDBRANCH   1   2
BRANCH   1  17
ATOM     17  C   UNL     1       1.950   1.067  -0.522  1.00  0.00    -0.034 C 
BRANCH  17  18
ATOM     18  C   UNL     1       1.211   0.925  -1.636  1.00  0.00    -0.106 C 
ATOM     19  O   UNL     1       1.793   0.315  -2.741  1.00  0.00    -0.872 OA
BRANCH  18  20
ATOM     20  C   UNL     1      -0.201   1.343  -1.741  1.00  0.00    -0.034 A 
ATOM     21  C   UNL     1      -0.585   2.678  -1.531  1.00  0.00     0.007 A 
ATOM     22  C   UNL     1      -1.175   0.393  -2.085  1.00  0.00     0.007 A 
ATOM     23  C   UNL     1      -1.932   3.044  -1.617  1.00  0.00     0.001 A 
ATOM     24  C   UNL     1      -2.521   0.761  -2.167  1.00  0.00     0.001 A 
ATOM     25  C   UNL     1      -2.900   2.085  -1.928  1.00  0.00     0.000 A 
ENDBRANCH  18  20
ENDBRANCH  17  18
ENDBRANCH   1  17
TORSDOF 4


