REMARK SMILES CCCOC(=O)N1C[C@H](c2ccc3cc[nH]c3c2)[C@H](C)C[C@H]1F
REMARK SMILES IDX 4 1 3 2 2 3 1 4 5 5 6 6 7 7 8 8 22 9 9 10 21 11 19 12 23 13
REMARK SMILES IDX 20 14 10 15 11 16 18 17 12 18 17 19 13 20 16 21 14 22 15 23
REMARK H PARENT 16 24
ROOT
ATOM      1  O   UNL     1       0.124  -2.397  -0.352  1.00  0.00    -0.449 OA
ENDROOT
BRANCH   1   2
ATOM      2  C   UNL     1      -1.012  -2.694  -1.162  1.00  0.00     0.234 C 
BRANCH   2   3
ATOM      3  C   UNL     1      -1.888  -1.450  -1.345  1.00  0.00     0.038 C 
ATOM      4  C   UNL     1      -2.496  -0.988  -0.022  1.00  0.00     0.007 C 
ENDBRANCH   2   3
ENDBRANCH   1   2
BRANCH   1   5
ATOM      5  C   UNL     1       1.239  -1.691  -0.820  1.00  0.00     0.412 C 
ATOM      6  O   UNL     1       1.377  -1.485  -2.058  1.00  0.00    -0.224 OA
BRANCH   5   7
ATOM      7  N   UNL     1       2.214  -1.181   0.114  1.00  0.00    -0.277 N 
ATOM      8  C   UNL     1       2.020  -1.349   1.561  1.00  0.00     0.134 C 
ATOM      9  C   UNL     1       3.471  -0.577  -0.350  1.00  0.00     0.268 C 
ATOM     10  C   UNL     1       2.249  -0.021   2.312  1.00  0.00     0.042 C 
ATOM     11  C   UNL     1       3.699   0.774   0.339  1.00  0.00     0.065 C 
ATOM     12  C   UNL     1       3.578   0.653   1.870  1.00  0.00    -0.000 C 
ATOM     13  F   UNL     1       4.524  -1.432  -0.070  1.00  0.00    -0.223 F 
ATOM     14  C   UNL     1       3.796   2.015   2.544  1.00  0.00     0.008 C 
BRANCH  10  15
ATOM     15  C   UNL     1       1.030   0.899   2.256  1.00  0.00    -0.041 A 
ATOM     16  C   UNL     1       0.512   1.434   3.469  1.00  0.00     0.005 A 
ATOM     17  C   UNL     1       0.404   1.247   1.032  1.00  0.00     0.030 A 
ATOM     18  C   UNL     1      -0.613   2.277   3.469  1.00  0.00     0.010 A 
ATOM     19  C   UNL     1      -0.710   2.082   1.070  1.00  0.00     0.046 A 
ATOM     20  C   UNL     1      -1.201   2.576   2.245  1.00  0.00    -0.001 A 
ATOM     21  N   UNL     1      -1.448   2.502   0.030  1.00  0.00    -0.361 N 
ATOM     22  C   UNL     1      -2.301   3.348   1.942  1.00  0.00     0.028 A 
ATOM     23  C   UNL     1      -2.423   3.277   0.558  1.00  0.00     0.083 A 
ATOM     24  H   UNL     1      -1.306   2.274  -0.979  1.00  0.00     0.166 HD
ENDBRANCH  10  15
ENDBRANCH   5   7
ENDBRANCH   1   5
TORSDOF 5


