REMARK SMILES C=C(C)C(=O)Oc1c(NN)cc(C)cc1-n1[nH+]c2ccccc2[nH+]1
REMARK SMILES IDX 7 1 8 2 11 3 12 4 13 5 14 6 15 7 6 8 4 9 5 10 2 11 1 12 3 13
REMARK SMILES IDX 9 14 10 16 16 19 17 20 24 21 18 22 23 23 19 24 22 25 20 26
REMARK SMILES IDX 21 27
REMARK H PARENT 9 15 10 17 10 18 17 28 24 29
ROOT
ATOM      1  C   UNL     1       1.916   0.674  -1.270  1.00  0.00     0.191 A 
ATOM      2  C   UNL     1       2.918   1.665  -1.295  1.00  0.00     0.095 A 
ATOM      3  C   UNL     1       3.714   1.870  -0.154  1.00  0.00     0.034 A 
ATOM      4  C   UNL     1       3.535   1.089   0.994  1.00  0.00    -0.046 A 
ATOM      5  C   UNL     1       4.360   1.348   2.220  1.00  0.00     0.044 C 
ATOM      6  C   UNL     1       2.548   0.096   1.008  1.00  0.00     0.046 A 
ATOM      7  C   UNL     1       1.757  -0.140  -0.124  1.00  0.00     0.213 A 
ENDROOT
BRANCH   1   8
ATOM      8  O   UNL     1       1.090   0.516  -2.391  1.00  0.00    -0.418 OA
BRANCH   8   9
ATOM      9  C   UNL     1      -0.310   0.515  -2.329  1.00  0.00     0.338 C 
ATOM     10  O   UNL     1      -0.898   0.931  -1.292  1.00  0.00    -0.246 OA
BRANCH   9  11
ATOM     11  C   UNL     1      -1.089   0.029  -3.489  1.00  0.00     0.027 C 
ATOM     12  C   UNL     1      -2.422  -0.068  -3.430  1.00  0.00     0.020 C 
ATOM     13  C   UNL     1      -0.359  -0.456  -4.711  1.00  0.00     0.051 C 
ENDBRANCH   9  11
ENDBRANCH   8   9
ENDBRANCH   1   8
BRANCH   2  14
ATOM     14  N   UNL     1       3.103   2.473  -2.472  1.00  0.00    -0.321 N 
ATOM     15  H   UNL     1       2.559   2.258  -3.339  1.00  0.00     0.181 HD
BRANCH  14  16
ATOM     16  N   UNL     1       4.035   3.525  -2.504  1.00  0.00    -0.250 NA
ATOM     17  H   UNL     1       4.061   3.899  -3.480  1.00  0.00     0.143 HD
ATOM     18  H   UNL     1       3.654   4.291  -1.903  1.00  0.00     0.143 HD
ENDBRANCH  14  16
ENDBRANCH   2  14
BRANCH   7  19
ATOM     19  N   UNL     1       0.825  -1.234  -0.115  1.00  0.00     0.083 N 
ATOM     20  N   UNL     1       0.012  -1.514   0.902  1.00  0.00    -0.062 N 
ATOM     21  N   UNL     1       0.670  -2.099  -1.116  1.00  0.00    -0.062 N 
ATOM     22  C   UNL     1      -0.699  -2.589   0.524  1.00  0.00     0.306 A 
ATOM     23  C   UNL     1      -0.291  -2.951  -0.726  1.00  0.00     0.306 A 
ATOM     24  C   UNL     1      -1.700  -3.274   1.206  1.00  0.00     0.089 A 
ATOM     25  C   UNL     1      -0.846  -4.030  -1.406  1.00  0.00     0.089 A 
ATOM     26  C   UNL     1      -2.287  -4.376   0.551  1.00  0.00     0.007 A 
ATOM     27  C   UNL     1      -1.863  -4.752  -0.747  1.00  0.00     0.007 A 
ATOM     28  H   UNL     1      -0.065  -0.979   1.796  1.00  0.00     0.495 HD
ATOM     29  H   UNL     1       1.202  -2.106  -2.014  1.00  0.00     0.495 HD
ENDBRANCH   7  19
TORSDOF 6


