REMARK SMILES CC(=O)c1ccc(Oc2c([NH2+]c3ccc(C)cc3)ccc3cc[nH]c23)nn1
REMARK SMILES IDX 9 1 10 2 19 3 20 4 21 5 22 6 23 7 24 8 25 9 8 11 7 12 4 13
REMARK SMILES IDX 5 14 27 15 6 16 26 17 2 18 1 19 3 20 11 21 12 24 13 25 18 26
REMARK SMILES IDX 14 27 17 28 15 29 16 30
REMARK H PARENT 24 10 11 22 11 23
ROOT
ATOM      1  C   UNL     1      -0.366  -0.361  -0.752  1.00  0.00     0.214 A 
ATOM      2  C   UNL     1      -1.343   0.492  -0.174  1.00  0.00     0.180 A 
ATOM      3  C   UNL     1      -2.716   0.292  -0.479  1.00  0.00     0.073 A 
ATOM      4  C   UNL     1      -3.122  -0.741  -1.339  1.00  0.00     0.017 A 
ATOM      5  C   UNL     1      -2.141  -1.568  -1.872  1.00  0.00     0.004 A 
ATOM      6  C   UNL     1      -2.256  -2.674  -2.684  1.00  0.00     0.028 A 
ATOM      7  C   UNL     1      -0.957  -3.140  -2.847  1.00  0.00     0.083 A 
ATOM      8  N   UNL     1      -0.080  -2.363  -2.173  1.00  0.00    -0.358 N 
ATOM      9  C   UNL     1      -0.812  -1.395  -1.590  1.00  0.00     0.095 A 
ATOM     10  H   UNL     1       0.950  -2.515  -2.105  1.00  0.00     0.166 HD
ENDROOT
BRANCH   1  11
ATOM     11  O   UNL     1       0.990  -0.178  -0.457  1.00  0.00    -0.429 OA
BRANCH  11  12
ATOM     12  C   UNL     1       1.993  -0.074  -1.425  1.00  0.00     0.239 A 
ATOM     13  C   UNL     1       3.960   0.161  -3.351  1.00  0.00     0.129 A 
ATOM     14  C   UNL     1       4.325   0.006  -2.007  1.00  0.00     0.040 A 
ATOM     15  N   UNL     1       2.637   0.198  -3.671  1.00  0.00    -0.144 NA
ATOM     16  C   UNL     1       3.331  -0.109  -1.038  1.00  0.00     0.073 A 
ATOM     17  N   UNL     1       1.687   0.086  -2.742  1.00  0.00    -0.111 NA
BRANCH  13  18
ATOM     18  C   UNL     1       4.979   0.287  -4.415  1.00  0.00     0.180 C 
ATOM     19  C   UNL     1       4.571   0.453  -5.846  1.00  0.00     0.095 C 
ATOM     20  O   UNL     1       6.206   0.254  -4.126  1.00  0.00    -0.293 OA
ENDBRANCH  13  18
ENDBRANCH  11  12
ENDBRANCH   1  11
BRANCH   2  21
ATOM     21  N   UNL     1      -0.954   1.545   0.733  1.00  0.00    -0.278 N 
ATOM     22  H   UNL     1      -0.056   1.979   0.416  1.00  0.00     0.358 HD
ATOM     23  H   UNL     1      -1.669   2.310   0.730  1.00  0.00     0.358 HD
BRANCH  21  24
ATOM     24  C   UNL     1      -0.824   1.017   2.068  1.00  0.00     0.134 A 
ATOM     25  C   UNL     1       0.441   0.683   2.586  1.00  0.00     0.068 A 
ATOM     26  C   UNL     1      -1.964   0.809   2.865  1.00  0.00     0.068 A 
ATOM     27  C   UNL     1       0.561   0.149   3.872  1.00  0.00     0.009 A 
ATOM     28  C   UNL     1      -1.842   0.274   4.151  1.00  0.00     0.009 A 
ATOM     29  C   UNL     1      -0.581  -0.074   4.656  1.00  0.00    -0.051 A 
ATOM     30  C   UNL     1      -0.447  -0.612   6.050  1.00  0.00     0.044 C 
ENDBRANCH  21  24
ENDBRANCH   2  21
TORSDOF 5


