REMARK SMILES Cc1cc(N)c(O/C(O)=C\[C@H]2CC[C@@H](C)N2)c(-n2nc3ccccc3n2)c1
REMARK SMILES IDX 8 1 9 2 7 4 6 5 4 6 17 7 3 8 27 9 2 10 1 11 5 12 18 15 19 16
REMARK SMILES IDX 26 17 20 18 25 19 21 20 24 21 22 22 23 23 10 24 11 25 16 26
REMARK SMILES IDX 12 27 14 28 13 29 15 31
REMARK H PARENT 9 3 5 13 5 14 16 30
ROOT
ATOM      1  C   UNL     1       1.461  -0.204  -1.331  1.00  0.00     0.279 C 
ENDROOT
BRANCH   1   2
ATOM      2  O   UNL     1       0.978   0.442  -2.471  1.00  0.00    -0.481 OA
ATOM      3  H   UNL     1       1.424   1.270  -2.850  1.00  0.00     0.296 HD
ENDBRANCH   1   2
BRANCH   1   4
ATOM      4  O   UNL     1       0.804  -1.339  -0.842  1.00  0.00    -0.422 OA
BRANCH   4   5
ATOM      5  C   UNL     1      -0.444  -1.758  -1.316  1.00  0.00     0.181 A 
ATOM      6  C   UNL     1      -0.565  -3.043  -1.876  1.00  0.00     0.078 A 
ATOM      7  C   UNL     1      -1.576  -0.910  -1.249  1.00  0.00     0.131 A 
ATOM      8  C   UNL     1      -1.790  -3.456  -2.416  1.00  0.00     0.033 A 
ATOM      9  C   UNL     1      -2.788  -1.336  -1.814  1.00  0.00     0.037 A 
ATOM     10  C   UNL     1      -2.904  -2.609  -2.385  1.00  0.00    -0.047 A 
ATOM     11  C   UNL     1      -4.199  -3.042  -3.007  1.00  0.00     0.044 C 
BRANCH   6  12
ATOM     12  N   UNL     1       0.563  -3.925  -1.928  1.00  0.00    -0.396 N 
ATOM     13  H   UNL     1       1.490  -3.647  -1.537  1.00  0.00     0.156 HD
ATOM     14  H   UNL     1       0.478  -4.873  -2.357  1.00  0.00     0.156 HD
ENDBRANCH   6  12
BRANCH   7  15
ATOM     15  N   UNL     1      -1.518   0.360  -0.576  1.00  0.00    -0.146 N 
ATOM     16  N   UNL     1      -0.744   0.602   0.482  1.00  0.00    -0.148 NA
ATOM     17  N   UNL     1      -2.264   1.409  -0.922  1.00  0.00    -0.148 NA
ATOM     18  C   UNL     1      -1.000   1.875   0.811  1.00  0.00     0.113 A 
ATOM     19  C   UNL     1      -1.931   2.369  -0.048  1.00  0.00     0.113 A 
ATOM     20  C   UNL     1      -0.452   2.641   1.835  1.00  0.00     0.032 A 
ATOM     21  C   UNL     1      -2.404   3.675   0.041  1.00  0.00     0.032 A 
ATOM     22  C   UNL     1      -0.903   3.970   1.958  1.00  0.00     0.002 A 
ATOM     23  C   UNL     1      -1.875   4.485   1.066  1.00  0.00     0.002 A 
ENDBRANCH   7  15
ENDBRANCH   4   5
ENDBRANCH   1   4
BRANCH   1  24
ATOM     24  C   UNL     1       2.550   0.261  -0.707  1.00  0.00     0.080 C 
BRANCH  24  25
ATOM     25  C   UNL     1       3.090  -0.377   0.548  1.00  0.00     0.084 C 
ATOM     26  N   UNL     1       4.082   0.521   1.154  1.00  0.00    -0.308 NA
ATOM     27  C   UNL     1       3.782  -1.709   0.247  1.00  0.00     0.025 C 
ATOM     28  C   UNL     1       5.337  -0.226   1.269  1.00  0.00     0.051 C 
ATOM     29  C   UNL     1       5.256  -1.396   0.302  1.00  0.00     0.020 C 
ATOM     30  H   UNL     1       3.762   0.798   2.112  1.00  0.00     0.123 HD
ATOM     31  C   UNL     1       6.523   0.688   0.965  1.00  0.00     0.024 C 
ENDBRANCH  24  25
ENDBRANCH   1  24
TORSDOF 7


