REMARK SMILES CC(=O)c1ccc(Oc2c(Nc3ccc(C)cc3)ccc3cc[nH]c23)n[nH+]1
REMARK SMILES IDX 9 1 10 2 19 3 20 4 21 5 22 6 23 7 24 8 25 9 8 11 7 12 4 13
REMARK SMILES IDX 5 14 27 15 6 16 26 17 2 19 1 20 3 21 11 22 12 24 13 25 18 26
REMARK SMILES IDX 14 27 17 28 15 29 16 30
REMARK H PARENT 24 10 27 18 11 23
ROOT
ATOM      1  C   UNL     1      -1.011   1.114  -0.226  1.00  0.00     0.177 A 
ATOM      2  C   UNL     1      -1.410   0.543  -1.472  1.00  0.00     0.084 A 
ATOM      3  C   UNL     1      -2.567   1.034  -2.127  1.00  0.00     0.031 A 
ATOM      4  C   UNL     1      -3.292   2.116  -1.600  1.00  0.00     0.013 A 
ATOM      5  C   UNL     1      -2.841   2.682  -0.413  1.00  0.00     0.003 A 
ATOM      6  C   UNL     1      -3.344   3.732   0.324  1.00  0.00     0.028 A 
ATOM      7  C   UNL     1      -2.502   3.839   1.425  1.00  0.00     0.083 A 
ATOM      8  N   UNL     1      -1.527   2.903   1.376  1.00  0.00    -0.358 N 
ATOM      9  C   UNL     1      -1.742   2.204   0.248  1.00  0.00     0.091 A 
ATOM     10  H   UNL     1      -0.768   2.755   2.078  1.00  0.00     0.166 HD
ENDROOT
BRANCH   1  11
ATOM     11  O   UNL     1       0.079   0.647   0.524  1.00  0.00    -0.430 OA
BRANCH  11  12
ATOM     12  C   UNL     1       0.346  -0.699   0.808  1.00  0.00     0.284 A 
ATOM     13  C   UNL     1       1.020  -3.333   1.333  1.00  0.00     0.272 A 
ATOM     14  C   UNL     1      -0.314  -3.001   1.055  1.00  0.00     0.091 A 
ATOM     15  N   UNL     1       1.952  -2.332   1.359  1.00  0.00    -0.092 N 
ATOM     16  C   UNL     1      -0.654  -1.676   0.799  1.00  0.00     0.082 A 
ATOM     17  N   UNL     1       1.619  -1.065   1.107  1.00  0.00     0.038 NA
ATOM     18  H   UNL     1       2.951  -2.537   1.574  1.00  0.00     0.491 HD
BRANCH  13  19
ATOM     19  C   UNL     1       1.401  -4.746   1.594  1.00  0.00     0.225 C 
ATOM     20  C   UNL     1       2.823  -5.145   1.845  1.00  0.00     0.100 C 
ATOM     21  O   UNL     1       0.514  -5.642   1.608  1.00  0.00    -0.288 OA
ENDBRANCH  13  19
ENDBRANCH  11  12
ENDBRANCH   1  11
BRANCH   2  22
ATOM     22  N   UNL     1      -0.680  -0.530  -2.089  1.00  0.00    -0.352 N 
ATOM     23  H   UNL     1      -1.231  -1.311  -2.511  1.00  0.00     0.167 HD
BRANCH  22  24
ATOM     24  C   UNL     1       0.751  -0.560  -2.231  1.00  0.00     0.038 A 
ATOM     25  C   UNL     1       1.401  -1.795  -2.373  1.00  0.00     0.026 A 
ATOM     26  C   UNL     1       1.513   0.621  -2.238  1.00  0.00     0.026 A 
ATOM     27  C   UNL     1       2.793  -1.854  -2.478  1.00  0.00     0.005 A 
ATOM     28  C   UNL     1       2.905   0.562  -2.346  1.00  0.00     0.005 A 
ATOM     29  C   UNL     1       3.556  -0.677  -2.446  1.00  0.00    -0.051 A 
ATOM     30  C   UNL     1       5.047  -0.739  -2.593  1.00  0.00     0.044 C 
ENDBRANCH  22  24
ENDBRANCH   2  22
TORSDOF 5


