REMARK SMILES Nc1cc(F)c[n-]/c1=N\c1cnc2[nH]ccc2c1
REMARK SMILES IDX 8 1 7 2 6 3 4 4 5 5 3 6 2 7 9 8 10 9 11 10 12 11 13 12 18 13
REMARK SMILES IDX 17 14 14 15 16 16 15 17 1 19
REMARK H PARENT 14 18 1 20 1 21
ROOT
ATOM      1  C   UNL     1      -0.566   0.201   0.269  1.00  0.00    -0.035 A 
ATOM      2  N   UNL     1      -1.411  -0.609  -0.432  1.00  0.00    -0.438 NA
ATOM      3  C   UNL     1      -2.443  -1.265   0.159  1.00  0.00     0.018 A 
ATOM      4  C   UNL     1      -2.662  -1.130   1.529  1.00  0.00     0.121 A 
ATOM      5  F   UNL     1      -3.689  -1.783   2.126  1.00  0.00    -0.207 F 
ATOM      6  C   UNL     1      -1.810  -0.319   2.280  1.00  0.00     0.064 A 
ATOM      7  C   UNL     1      -0.749   0.353   1.659  1.00  0.00     0.033 A 
ENDROOT
BRANCH   1   8
ATOM      8  N   UNL     1       0.430   0.799  -0.323  1.00  0.00    -0.433 NA
BRANCH   8   9
ATOM      9  C   UNL     1       0.733   0.794  -1.728  1.00  0.00    -0.022 A 
ATOM     10  C   UNL     1       2.091   0.820  -2.131  1.00  0.00     0.117 A 
ATOM     11  N   UNL     1       2.429   0.854  -3.455  1.00  0.00    -0.238 NA
ATOM     12  C   UNL     1       1.444   0.877  -4.386  1.00  0.00     0.137 A 
ATOM     13  C   UNL     1      -0.279   0.851  -2.716  1.00  0.00     0.017 A 
ATOM     14  C   UNL     1       0.123   0.881  -4.046  1.00  0.00     0.019 A 
ATOM     15  N   UNL     1       1.610   0.926  -5.715  1.00  0.00    -0.346 N 
ATOM     16  C   UNL     1      -0.598   0.938  -5.218  1.00  0.00     0.029 A 
ATOM     17  C   UNL     1       0.359   0.962  -6.232  1.00  0.00     0.085 A 
ATOM     18  H   UNL     1       2.511   0.941  -6.242  1.00  0.00     0.167 HD
ENDBRANCH   8   9
ENDBRANCH   1   8
BRANCH   7  19
ATOM     19  N   UNL     1       0.122   1.180   2.442  1.00  0.00    -0.399 N 
ATOM     20  H   UNL     1       0.920   1.698   2.010  1.00  0.00     0.156 HD
ATOM     21  H   UNL     1      -0.026   1.283   3.470  1.00  0.00     0.156 HD
ENDBRANCH   7  19
TORSDOF 3


