REMARK SMILES C=C[C@H]1C[C@@](N)(c2ccc3[nH]ccc3c2)[C@H]([NH2+]c2ccc(C)[nH+]c2F)C[C@@H]1F
REMARK SMILES IDX 3 1 4 2 5 3 16 4 26 5 27 6 28 7 2 8 1 9 6 10 7 13 8 14 15 15
REMARK SMILES IDX 9 16 14 17 10 18 13 19 11 20 12 21 17 23 18 26 19 27 24 28
REMARK SMILES IDX 20 29 23 30 21 31 25 32 22 34
REMARK H PARENT 6 11 6 12 11 22 17 24 17 25 23 33
ROOT
ATOM      1  C   UNL     1      -1.426  -0.660   3.057  1.00  0.00     0.048 C 
ATOM      2  C   UNL     1      -0.382   0.059   2.182  1.00  0.00     0.044 C 
ATOM      3  C   UNL     1      -0.805   0.169   0.683  1.00  0.00     0.095 C 
ATOM      4  C   UNL     1      -1.201  -1.264   0.125  1.00  0.00     0.215 C 
ATOM      5  C   UNL     1      -2.200  -1.997   1.060  1.00  0.00     0.106 C 
ATOM      6  C   UNL     1      -1.706  -2.068   2.507  1.00  0.00     0.179 C 
ATOM      7  F   UNL     1      -2.670  -2.690   3.283  1.00  0.00    -0.247 F 
ENDROOT
BRANCH   1   8
ATOM      8  C   UNL     1      -0.987  -0.707   4.506  1.00  0.00    -0.028 C 
ATOM      9  C   UNL     1       0.113  -1.350   4.918  1.00  0.00     0.004 C 
ENDBRANCH   1   8
BRANCH   3  10
ATOM     10  N   UNL     1      -1.956   1.089   0.560  1.00  0.00    -0.316 NA
ATOM     11  H   UNL     1      -1.790   1.951   1.129  1.00  0.00     0.119 HD
ATOM     12  H   UNL     1      -2.831   0.663   0.933  1.00  0.00     0.119 HD
ENDBRANCH   3  10
BRANCH   3  13
ATOM     13  C   UNL     1       0.405   0.744  -0.087  1.00  0.00    -0.021 A 
ATOM     14  C   UNL     1       0.367   2.039  -0.695  1.00  0.00     0.008 A 
ATOM     15  C   UNL     1       1.607  -0.011  -0.195  1.00  0.00     0.016 A 
ATOM     16  C   UNL     1       1.462   2.537  -1.423  1.00  0.00     0.027 A 
ATOM     17  C   UNL     1       2.664   0.513  -0.932  1.00  0.00    -0.000 A 
ATOM     18  C   UNL     1       2.594   1.739  -1.528  1.00  0.00     0.045 A 
ATOM     19  C   UNL     1       3.898  -0.021  -1.230  1.00  0.00     0.028 A 
ATOM     20  N   UNL     1       3.727   2.013  -2.194  1.00  0.00    -0.361 N 
ATOM     21  C   UNL     1       4.529   0.939  -2.015  1.00  0.00     0.083 A 
ATOM     22  H   UNL     1       3.945   2.874  -2.744  1.00  0.00     0.166 HD
ENDBRANCH   3  13
BRANCH   4  23
ATOM     23  N   UNL     1      -1.765  -1.231  -1.252  1.00  0.00    -0.301 N 
ATOM     24  H   UNL     1      -2.204  -2.155  -1.476  1.00  0.00     0.352 HD
ATOM     25  H   UNL     1      -2.535  -0.525  -1.309  1.00  0.00     0.352 HD
BRANCH  23  26
ATOM     26  C   UNL     1      -0.773  -0.987  -2.275  1.00  0.00     0.234 A 
ATOM     27  C   UNL     1      -0.787   0.208  -3.012  1.00  0.00     0.084 A 
ATOM     28  C   UNL     1       0.212  -1.947  -2.579  1.00  0.00     0.420 A 
ATOM     29  C   UNL     1       0.195   0.455  -3.970  1.00  0.00     0.080 A 
ATOM     30  N   UNL     1       1.165  -1.682  -3.515  1.00  0.00    -0.179 N 
ATOM     31  C   UNL     1       1.178  -0.511  -4.215  1.00  0.00     0.179 A 
ATOM     32  F   UNL     1       0.225  -3.143  -1.940  1.00  0.00    -0.131 F 
ATOM     33  H   UNL     1       1.903  -2.399  -3.694  1.00  0.00     0.456 HD
ATOM     34  C   UNL     1       2.280  -0.232  -5.192  1.00  0.00     0.124 C 
ENDBRANCH  23  26
ENDBRANCH   4  23
TORSDOF 5


