REMARK SMILES NC(=O)c1ccc(-c2cc(F)c([NH2+]c3ccc4cc[nH]c4c3)c(F)c2[O-])cc1
REMARK SMILES IDX 8 1 9 2 10 3 11 4 12 5 23 6 24 7 25 8 26 9 7 10 4 11 5 12
REMARK SMILES IDX 28 13 6 14 27 15 2 16 1 17 3 20 13 21 14 24 15 25 22 26
REMARK SMILES IDX 16 27 21 28 17 29 20 30 18 31 19 32
REMARK H PARENT 1 18 1 19 13 22 13 23 20 33
ROOT
ATOM      1  C   UNL     1      -1.508  -0.610   0.107  1.00  0.00    -0.020 A 
ATOM      2  C   UNL     1      -0.833  -0.744  -1.117  1.00  0.00     0.054 A 
ATOM      3  C   UNL     1       0.434  -1.329  -1.173  1.00  0.00     0.187 A 
ATOM      4  F   UNL     1       1.046  -1.453  -2.378  1.00  0.00    -0.200 F 
ATOM      5  C   UNL     1       1.058  -1.794   0.000  1.00  0.00     0.206 A 
ATOM      6  C   UNL     1       0.384  -1.655   1.230  1.00  0.00     0.180 A 
ATOM      7  F   UNL     1       0.958  -2.092   2.380  1.00  0.00    -0.201 F 
ATOM      8  C   UNL     1      -0.884  -1.064   1.285  1.00  0.00    -0.057 A 
ATOM      9  O   UNL     1      -1.507  -0.913   2.520  1.00  0.00    -0.870 OA
ENDROOT
BRANCH   1  10
ATOM     10  C   UNL     1      -2.856   0.007   0.137  1.00  0.00    -0.019 A 
ATOM     11  C   UNL     1      -5.428   1.176   0.166  1.00  0.00     0.039 A 
ATOM     12  C   UNL     1      -5.190  -0.046   0.821  1.00  0.00     0.014 A 
ATOM     13  C   UNL     1      -4.361   1.809  -0.495  1.00  0.00     0.014 A 
ATOM     14  C   UNL     1      -3.918  -0.626   0.802  1.00  0.00     0.009 A 
ATOM     15  C   UNL     1      -3.090   1.228  -0.515  1.00  0.00     0.009 A 
BRANCH  11  16
ATOM     16  C   UNL     1      -6.770   1.808   0.180  1.00  0.00     0.248 C 
ATOM     17  N   UNL     1      -7.957   1.042   0.404  1.00  0.00    -0.366 N 
ATOM     18  H   UNL     1      -8.881   1.522   0.468  1.00  0.00     0.159 HD
ATOM     19  H   UNL     1      -7.943  -0.001   0.418  1.00  0.00     0.159 HD
ATOM     20  O   UNL     1      -6.877   3.048  -0.022  1.00  0.00    -0.270 OA
ENDBRANCH  11  16
ENDBRANCH   1  10
BRANCH   5  21
ATOM     21  N   UNL     1       2.382  -2.370  -0.050  1.00  0.00    -0.276 N 
ATOM     22  H   UNL     1       2.535  -2.852  -0.967  1.00  0.00     0.358 HD
ATOM     23  H   UNL     1       2.486  -3.105   0.687  1.00  0.00     0.358 HD
BRANCH  21  24
ATOM     24  C   UNL     1       3.373  -1.338   0.134  1.00  0.00     0.136 A 
ATOM     25  C   UNL     1       3.850  -1.025   1.436  1.00  0.00     0.069 A 
ATOM     26  C   UNL     1       3.859  -0.609  -0.978  1.00  0.00     0.094 A 
ATOM     27  C   UNL     1       4.795  -0.003   1.631  1.00  0.00     0.016 A 
ATOM     28  C   UNL     1       4.795   0.398  -0.747  1.00  0.00     0.051 A 
ATOM     29  C   UNL     1       5.245   0.690   0.511  1.00  0.00    -0.000 A 
ATOM     30  N   UNL     1       5.373   1.198  -1.658  1.00  0.00    -0.361 N 
ATOM     31  C   UNL     1       6.150   1.721   0.397  1.00  0.00     0.028 A 
ATOM     32  C   UNL     1       6.203   2.009  -0.963  1.00  0.00     0.083 A 
ATOM     33  H   UNL     1       5.217   1.197  -2.690  1.00  0.00     0.166 HD
ENDBRANCH  21  24
ENDBRANCH   5  21
TORSDOF 4


