REMARK SMILES Nc1cc(NC2CC(=O)C2)c(C=O)cc1-c1ccc2c(c1)[N-]C(=O)C2
REMARK SMILES IDX 2 1 3 2 4 3 11 4 14 5 15 6 1 7 16 10 17 11 21 12 18 13 20 14
REMARK SMILES IDX 19 15 22 16 25 17 23 18 24 19 5 20 6 22 7 23 10 24 8 25 9 26
REMARK SMILES IDX 12 27 13 28
REMARK H PARENT 1 8 1 9 5 21
ROOT
ATOM      1  C   UNL     1       0.239   0.837  -0.575  1.00  0.00     0.041 A 
ATOM      2  C   UNL     1      -0.701   0.038  -1.238  1.00  0.00     0.052 A 
ATOM      3  C   UNL     1      -1.494  -0.890  -0.540  1.00  0.00     0.047 A 
ATOM      4  C   UNL     1      -1.317  -1.034   0.857  1.00  0.00     0.038 A 
ATOM      5  C   UNL     1      -0.383  -0.223   1.520  1.00  0.00     0.024 A 
ATOM      6  C   UNL     1       0.406   0.700   0.820  1.00  0.00     0.005 A 
ENDROOT
BRANCH   1   7
ATOM      7  N   UNL     1       0.971   1.816  -1.327  1.00  0.00    -0.398 N 
ATOM      8  H   UNL     1       1.557   2.545  -0.865  1.00  0.00     0.156 HD
ATOM      9  H   UNL     1       0.876   1.866  -2.366  1.00  0.00     0.156 HD
ENDBRANCH   1   7
BRANCH   6  10
ATOM     10  C   UNL     1       1.417   1.480   1.568  1.00  0.00    -0.018 A 
ATOM     11  C   UNL     1       2.789   1.378   1.233  1.00  0.00     0.009 A 
ATOM     12  C   UNL     1       1.022   2.295   2.649  1.00  0.00    -0.007 A 
ATOM     13  C   UNL     1       3.755   2.098   1.954  1.00  0.00     0.003 A 
ATOM     14  C   UNL     1       2.000   2.998   3.348  1.00  0.00    -0.130 A 
ATOM     15  C   UNL     1       3.333   2.905   3.010  1.00  0.00    -0.057 A 
ATOM     16  N   UNL     1       1.772   3.861   4.450  1.00  0.00    -0.626 NA
ATOM     17  C   UNL     1       4.162   3.750   3.912  1.00  0.00     0.089 C 
ATOM     18  C   UNL     1       3.083   4.312   4.786  1.00  0.00     0.059 C 
ATOM     19  O   UNL     1       3.299   5.111   5.734  1.00  0.00    -0.320 OA
ENDBRANCH   6  10
BRANCH   3  20
ATOM     20  N   UNL     1      -2.516  -1.627  -1.239  1.00  0.00    -0.381 N 
ATOM     21  H   UNL     1      -3.423  -1.802  -0.752  1.00  0.00     0.160 HD
BRANCH  20  22
ATOM     22  C   UNL     1      -2.386  -2.032  -2.644  1.00  0.00     0.094 C 
ATOM     23  C   UNL     1      -3.298  -3.166  -3.018  1.00  0.00     0.100 C 
ATOM     24  C   UNL     1      -1.248  -2.985  -2.870  1.00  0.00     0.100 C 
ATOM     25  C   UNL     1      -2.157  -4.135  -3.263  1.00  0.00     0.137 C 
ATOM     26  O   UNL     1      -2.029  -5.297  -3.612  1.00  0.00    -0.300 OA
ENDBRANCH  20  22
ENDBRANCH   3  20
BRANCH   4  27
ATOM     27  C   UNL     1      -2.036  -2.048   1.662  1.00  0.00     0.262 C 
ATOM     28  O   UNL     1      -2.549  -3.071   1.136  1.00  0.00    -0.298 OA
ENDBRANCH   4  27
TORSDOF 5


