REMARK SMILES Cc1ccc(-c2ccc(N(C(=O)C/C=C(/O)Cl)c3cc4ccccc4[n-]3)c(C=O)c2)cc1
REMARK SMILES IDX 13 1 14 2 15 3 17 4 16 5 11 7 12 8 10 9 18 10 26 11 19 12
REMARK SMILES IDX 25 13 20 14 24 15 21 16 23 17 22 18 9 19 8 20 27 21 7 22
REMARK SMILES IDX 30 23 6 24 28 25 29 26 5 27 4 28 31 29 3 30 32 31 2 32 1 33
REMARK H PARENT 16 6
ROOT
ATOM      1  C   UNL     1      -1.678  -1.744   3.346  1.00  0.00     0.109 C 
ENDROOT
BRANCH   1   2
ATOM      2  C   UNL     1      -2.685  -0.672   3.026  1.00  0.00     0.040 C 
BRANCH   2   3
ATOM      3  C   UNL     1      -3.451  -0.657   1.924  1.00  0.00     0.180 C 
ATOM      4  Cl  UNL     1      -3.370  -1.914   0.697  1.00  0.00    -0.044 Cl
BRANCH   3   5
ATOM      5  O   UNL     1      -4.351   0.387   1.716  1.00  0.00    -0.499 OA
ATOM      6  H   UNL     1      -4.443   1.155   2.371  1.00  0.00     0.294 HD
ENDBRANCH   3   5
ENDBRANCH   2   3
ENDBRANCH   1   2
BRANCH   1   7
ATOM      7  C   UNL     1      -0.362  -1.122   3.724  1.00  0.00     0.155 C 
ATOM      8  O   UNL     1      -0.144  -0.857   4.937  1.00  0.00    -0.298 OA
BRANCH   7   9
ATOM      9  N   UNL     1       0.620  -0.780   2.722  1.00  0.00    -0.387 N 
BRANCH   9  10
ATOM     10  C   UNL     1       2.023  -0.690   3.034  1.00  0.00    -0.051 A 
ATOM     11  N   UNL     1       2.907  -0.023   2.249  1.00  0.00    -0.435 NA
ATOM     12  C   UNL     1       2.649  -1.309   4.116  1.00  0.00     0.008 A 
ATOM     13  C   UNL     1       4.094  -0.213   2.851  1.00  0.00    -0.034 A 
ATOM     14  C   UNL     1       3.976  -0.984   3.978  1.00  0.00    -0.023 A 
ATOM     15  C   UNL     1       5.330   0.273   2.428  1.00  0.00     0.004 A 
ATOM     16  C   UNL     1       5.079  -1.327   4.757  1.00  0.00     0.008 A 
ATOM     17  C   UNL     1       6.465  -0.054   3.193  1.00  0.00     0.000 A 
ATOM     18  C   UNL     1       6.340  -0.851   4.354  1.00  0.00     0.001 A 
ENDBRANCH   9  10
BRANCH   9  19
ATOM     19  C   UNL     1       0.202  -0.519   1.371  1.00  0.00    -0.025 A 
ATOM     20  C   UNL     1       0.384  -1.511   0.402  1.00  0.00     0.005 A 
ATOM     21  C   UNL     1      -0.398   0.709   1.016  1.00  0.00     0.018 A 
ATOM     22  C   UNL     1      -0.052  -1.311  -0.908  1.00  0.00     0.009 A 
ATOM     23  C   UNL     1      -0.842   0.897  -0.306  1.00  0.00     0.020 A 
ATOM     24  C   UNL     1      -0.680  -0.111  -1.273  1.00  0.00    -0.018 A 
BRANCH  21  25
ATOM     25  C   UNL     1      -0.557   1.791   2.013  1.00  0.00     0.260 C 
ATOM     26  O   UNL     1      -1.148   2.864   1.719  1.00  0.00    -0.298 OA
ENDBRANCH  21  25
BRANCH  24  27
ATOM     27  C   UNL     1      -1.171   0.090  -2.659  1.00  0.00    -0.018 A 
ATOM     28  C   UNL     1      -0.397  -0.322  -3.758  1.00  0.00     0.009 A 
ATOM     29  C   UNL     1      -2.418   0.695  -2.893  1.00  0.00     0.009 A 
ATOM     30  C   UNL     1      -0.861  -0.133  -5.063  1.00  0.00     0.004 A 
ATOM     31  C   UNL     1      -2.881   0.883  -4.199  1.00  0.00     0.004 A 
ATOM     32  C   UNL     1      -2.112   0.456  -5.291  1.00  0.00    -0.051 A 
ATOM     33  C   UNL     1      -2.590   0.689  -6.694  1.00  0.00     0.044 C 
ENDBRANCH  24  27
ENDBRANCH   9  19
ENDBRANCH   7   9
ENDBRANCH   1   7
TORSDOF 9


