REMARK SMILES Cc1cccc(C(=O)Nc2ccc(-c3ccc(C)c4n[nH]cc34)cc2C(=O)[O-])c1
REMARK SMILES IDX 10 1 11 2 12 3 13 4 24 5 25 6 9 7 7 8 8 9 6 11 2 12 3 13
REMARK SMILES IDX 29 14 4 15 5 16 1 17 26 18 27 19 28 20 14 21 15 22 23 23
REMARK SMILES IDX 16 24 22 25 19 26 17 27 21 28 20 29 18 30
REMARK H PARENT 9 10 21 31
ROOT
ATOM      1  C   UNL     1      -0.203  -1.071   0.247  1.00  0.00     0.050 A 
ATOM      2  C   UNL     1       0.344   0.223   0.287  1.00  0.00     0.027 A 
ATOM      3  C   UNL     1       0.101   1.132  -0.741  1.00  0.00     0.011 A 
ATOM      4  C   UNL     1      -0.680   0.763  -1.844  1.00  0.00    -0.017 A 
ATOM      5  C   UNL     1      -1.237  -0.525  -1.889  1.00  0.00     0.021 A 
ATOM      6  C   UNL     1      -1.014  -1.450  -0.852  1.00  0.00     0.021 A 
ENDROOT
BRANCH   1   7
ATOM      7  N   UNL     1       0.147  -2.014   1.275  1.00  0.00    -0.321 N 
ATOM      8  C   UNL     1       0.133  -1.679   2.673  1.00  0.00     0.255 C 
ATOM      9  O   UNL     1      -0.486  -0.649   3.060  1.00  0.00    -0.269 OA
ATOM     10  H   UNL     1       0.372  -2.993   0.993  1.00  0.00     0.170 HD
BRANCH   8  11
ATOM     11  C   UNL     1       0.801  -2.546   3.674  1.00  0.00     0.040 A 
ATOM     12  C   UNL     1       1.038  -3.305   5.984  1.00  0.00    -0.050 A 
ATOM     13  C   UNL     1       2.061  -4.178   5.586  1.00  0.00     0.003 A 
ATOM     14  C   UNL     1       0.404  -2.501   5.023  1.00  0.00     0.017 A 
ATOM     15  C   UNL     1       2.469  -4.221   4.252  1.00  0.00     0.001 A 
ATOM     16  C   UNL     1       1.849  -3.407   3.300  1.00  0.00     0.014 A 
ATOM     17  C   UNL     1       0.576  -3.284   7.410  1.00  0.00     0.044 C 
ENDBRANCH   8  11
ENDBRANCH   1   7
BRANCH   6  18
ATOM     18  C   UNL     1      -1.676  -2.775  -0.932  1.00  0.00     0.074 C 
ATOM     19  O   UNL     1      -1.913  -3.445   0.108  1.00  0.00    -0.545 OA
ATOM     20  O   UNL     1      -2.086  -3.278  -2.162  1.00  0.00    -0.545 OA
ENDBRANCH   6  18
BRANCH   4  21
ATOM     21  C   UNL     1      -0.942   1.729  -2.936  1.00  0.00    -0.007 A 
ATOM     22  C   UNL     1      -2.255   1.943  -3.414  1.00  0.00     0.010 A 
ATOM     23  C   UNL     1       0.083   2.463  -3.548  1.00  0.00     0.028 A 
ATOM     24  C   UNL     1      -2.506   2.868  -4.451  1.00  0.00     0.006 A 
ATOM     25  C   UNL     1       1.452   2.466  -3.389  1.00  0.00     0.114 A 
ATOM     26  C   UNL     1      -0.161   3.359  -4.557  1.00  0.00     0.096 A 
ATOM     27  C   UNL     1      -1.452   3.605  -5.031  1.00  0.00    -0.023 A 
ATOM     28  N   UNL     1       1.964   3.349  -4.274  1.00  0.00    -0.284 N 
ATOM     29  N   UNL     1       0.992   3.897  -4.994  1.00  0.00    -0.175 NA
ATOM     30  C   UNL     1      -1.700   4.555  -6.165  1.00  0.00     0.047 C 
ATOM     31  H   UNL     1       2.977   3.570  -4.396  1.00  0.00     0.189 HD
ENDBRANCH   4  21
TORSDOF 4


