MODEL 1
REMARK VINA RESULT:      -5.0      0.000      0.000
REMARK SMILES N/N=c1\cc(-c2ccc3[nH]ccc3c2)n(C(=O)[C@H]2C3CCN2CC3)[n-]c1=O
REMARK SMILES IDX 5 1 4 2 3 3 26 4 27 5 25 6 15 7 6 8 7 9 8 10 14 11 9 12
REMARK SMILES IDX 13 13 10 14 12 15 11 16 16 18 17 19 18 20 22 21 19 22 21 23
REMARK SMILES IDX 23 24 20 25 24 26 2 27 1 28
REMARK H PARENT 10 17 1 29 1 30
ROOT
ATOM      1  C   UNL     1      42.888 125.627  23.249  1.00  0.00     0.040 A 
ATOM      2  C   UNL     1      41.805 124.739  23.258  1.00  0.00     0.058 A 
ATOM      3  C   UNL     1      40.517 125.203  23.567  1.00  0.00     0.111 A 
ATOM      4  C   UNL     1      40.364 126.565  23.848  1.00  0.00     0.118 A 
ATOM      5  O   UNL     1      39.229 127.043  24.116  1.00  0.00    -0.312 OA
ATOM      6  N   UNL     1      41.446 127.382  23.842  1.00  0.00    -0.551 NA
ATOM      7  N   UNL     1      42.680 126.952  23.562  1.00  0.00    -0.383 N 
ENDROOT
BRANCH   1   8
ATOM      8  C   UNL     1      44.216 125.103  22.849  1.00  0.00    -0.002 A 
ATOM      9  C   UNL     1      44.340 123.787  22.336  1.00  0.00     0.012 A 
ATOM     10  C   UNL     1      45.596 123.279  21.960  1.00  0.00     0.027 A 
ATOM     11  C   UNL     1      45.366 125.907  23.006  1.00  0.00     0.020 A 
ATOM     12  C   UNL     1      46.706 124.106  22.116  1.00  0.00     0.045 A 
ATOM     13  C   UNL     1      46.594 125.373  22.623  1.00  0.00     0.000 A 
ATOM     14  N   UNL     1      47.985 123.821  21.824  1.00  0.00    -0.361 N 
ATOM     15  C   UNL     1      47.858 125.919  22.654  1.00  0.00     0.028 A 
ATOM     16  C   UNL     1      48.694 124.926  22.150  1.00  0.00     0.083 A 
ATOM     17  H   UNL     1      48.360 122.931  21.427  1.00  0.00     0.166 HD
ENDBRANCH   1   8
BRANCH   7  18
ATOM     18  C   UNL     1      43.755 127.913  23.656  1.00  0.00     0.231 C 
ATOM     19  O   UNL     1      44.591 127.841  24.599  1.00  0.00    -0.274 OA
BRANCH  18  20
ATOM     20  C   UNL     1      43.813 129.114  22.724  1.00  0.00     0.149 C 
ATOM     21  N   UNL     1      44.762 130.151  23.140  1.00  0.00    -0.292 NA
ATOM     22  C   UNL     1      42.572 129.977  22.695  1.00  0.00     0.018 C 
ATOM     23  C   UNL     1      44.547 131.147  22.062  1.00  0.00     0.085 C 
ATOM     24  C   UNL     1      44.110 130.700  24.359  1.00  0.00     0.085 C 
ATOM     25  C   UNL     1      43.043 131.060  21.715  1.00  0.00     0.021 C 
ATOM     26  C   UNL     1      42.595 130.583  24.106  1.00  0.00     0.021 C 
ENDBRANCH  18  20
ENDBRANCH   7  18
BRANCH   3  27
ATOM     27  N   UNL     1      39.463 124.432  23.586  1.00  0.00    -0.181 NA
BRANCH  27  28
ATOM     28  N   UNL     1      39.385 123.125  23.075  1.00  0.00    -0.323 N 
ATOM     29  H   UNL     1      38.523 122.729  22.646  1.00  0.00     0.179 HD
ATOM     30  H   UNL     1      40.257 122.554  23.019  1.00  0.00     0.179 HD
ENDBRANCH  27  28
ENDBRANCH   3  27
TORSDOF 5
ENDMDL
MODEL 2
REMARK VINA RESULT:      -4.7      2.004      5.752
REMARK SMILES N/N=c1\cc(-c2ccc3[nH]ccc3c2)n(C(=O)[C@H]2C3CCN2CC3)[n-]c1=O
REMARK SMILES IDX 5 1 4 2 3 3 26 4 27 5 25 6 15 7 6 8 7 9 8 10 14 11 9 12
REMARK SMILES IDX 13 13 10 14 12 15 11 16 16 18 17 19 18 20 22 21 19 22 21 23
REMARK SMILES IDX 23 24 20 25 24 26 2 27 1 28
REMARK H PARENT 10 17 1 29 1 30
ROOT
ATOM      1  C   UNL     1      43.786 126.322  22.945  1.00  0.00     0.040 A 
ATOM      2  C   UNL     1      42.456 125.894  22.840  1.00  0.00     0.058 A 
ATOM      3  C   UNL     1      42.163 124.527  22.721  1.00  0.00     0.111 A 
ATOM      4  C   UNL     1      43.235 123.628  22.722  1.00  0.00     0.118 A 
ATOM      5  O   UNL     1      43.034 122.387  22.635  1.00  0.00    -0.312 OA
ATOM      6  N   UNL     1      44.506 124.092  22.809  1.00  0.00    -0.551 NA
ATOM      7  N   UNL     1      44.800 125.391  22.911  1.00  0.00    -0.383 N 
ENDROOT
BRANCH   1   8
ATOM      8  C   UNL     1      44.040 127.769  23.138  1.00  0.00    -0.002 A 
ATOM      9  C   UNL     1      43.940 128.346  24.429  1.00  0.00     0.012 A 
ATOM     10  C   UNL     1      44.174 129.720  24.621  1.00  0.00     0.027 A 
ATOM     11  C   UNL     1      44.354 128.582  22.027  1.00  0.00     0.020 A 
ATOM     12  C   UNL     1      44.495 130.487  23.503  1.00  0.00     0.045 A 
ATOM     13  C   UNL     1      44.580 129.938  22.253  1.00  0.00     0.000 A 
ATOM     14  N   UNL     1      44.752 131.805  23.464  1.00  0.00    -0.361 N 
ATOM     15  C   UNL     1      44.906 130.950  21.378  1.00  0.00     0.028 A 
ATOM     16  C   UNL     1      45.004 132.093  22.167  1.00  0.00     0.083 A 
ATOM     17  H   UNL     1      44.757 132.473  24.266  1.00  0.00     0.166 HD
ENDBRANCH   1   8
BRANCH   7  18
ATOM     18  C   UNL     1      46.198 125.756  22.928  1.00  0.00     0.231 C 
ATOM     19  O   UNL     1      46.591 126.735  23.620  1.00  0.00    -0.274 OA
BRANCH  18  20
ATOM     20  C   UNL     1      47.195 125.076  22.000  1.00  0.00     0.149 C 
ATOM     21  N   UNL     1      47.259 123.620  22.151  1.00  0.00    -0.292 NA
ATOM     22  C   UNL     1      48.651 125.372  22.278  1.00  0.00     0.018 C 
ATOM     23  C   UNL     1      48.309 123.301  21.153  1.00  0.00     0.085 C 
ATOM     24  C   UNL     1      47.889 123.472  23.489  1.00  0.00     0.085 C 
ATOM     25  C   UNL     1      49.295 124.490  21.200  1.00  0.00     0.021 C 
ATOM     26  C   UNL     1      48.846 124.671  23.631  1.00  0.00     0.021 C 
ENDBRANCH  18  20
ENDBRANCH   7  18
BRANCH   3  27
ATOM     27  N   UNL     1      40.947 124.060  22.628  1.00  0.00    -0.181 NA
BRANCH  27  28
ATOM     28  N   UNL     1      40.245 123.375  23.635  1.00  0.00    -0.323 N 
ATOM     29  H   UNL     1      40.286 123.640  24.641  1.00  0.00     0.179 HD
ATOM     30  H   UNL     1      39.564 122.633  23.360  1.00  0.00     0.179 HD
ENDBRANCH  27  28
ENDBRANCH   3  27
TORSDOF 5
ENDMDL
MODEL 3
REMARK VINA RESULT:      -3.9      2.251      5.798
REMARK SMILES N/N=c1\cc(-c2ccc3[nH]ccc3c2)n(C(=O)[C@H]2C3CCN2CC3)[n-]c1=O
REMARK SMILES IDX 5 1 4 2 3 3 26 4 27 5 25 6 15 7 6 8 7 9 8 10 14 11 9 12
REMARK SMILES IDX 13 13 10 14 12 15 11 16 16 18 17 19 18 20 22 21 19 22 21 23
REMARK SMILES IDX 23 24 20 25 24 26 2 27 1 28
REMARK H PARENT 10 17 1 29 1 30
ROOT
ATOM      1  C   UNL     1      44.235 126.132  23.074  1.00  0.00     0.040 A 
ATOM      2  C   UNL     1      42.970 125.589  22.807  1.00  0.00     0.058 A 
ATOM      3  C   UNL     1      42.671 124.276  23.202  1.00  0.00     0.111 A 
ATOM      4  C   UNL     1      43.664 123.553  23.870  1.00  0.00     0.118 A 
ATOM      5  O   UNL     1      43.448 122.375  24.264  1.00  0.00    -0.312 OA
ATOM      6  N   UNL     1      44.878 124.116  24.090  1.00  0.00    -0.551 NA
ATOM      7  N   UNL     1      45.182 125.360  23.709  1.00  0.00    -0.383 N 
ENDROOT
BRANCH   1   8
ATOM      8  C   UNL     1      44.480 127.544  22.699  1.00  0.00    -0.002 A 
ATOM      9  C   UNL     1      45.338 127.857  21.614  1.00  0.00     0.012 A 
ATOM     10  C   UNL     1      45.581 129.195  21.254  1.00  0.00     0.027 A 
ATOM     11  C   UNL     1      43.878 128.583  23.441  1.00  0.00     0.020 A 
ATOM     12  C   UNL     1      44.958 130.193  22.002  1.00  0.00     0.045 A 
ATOM     13  C   UNL     1      44.139 129.897  23.058  1.00  0.00     0.000 A 
ATOM     14  N   UNL     1      45.054 131.522  21.831  1.00  0.00    -0.361 N 
ATOM     15  C   UNL     1      43.693 131.090  23.581  1.00  0.00     0.028 A 
ATOM     16  C   UNL     1      44.283 132.075  22.794  1.00  0.00     0.083 A 
ATOM     17  H   UNL     1      45.610 132.027  21.106  1.00  0.00     0.166 HD
ENDBRANCH   1   8
BRANCH   7  18
ATOM     18  C   UNL     1      46.532 125.816  23.945  1.00  0.00     0.231 C 
ATOM     19  O   UNL     1      46.839 127.024  23.750  1.00  0.00    -0.274 OA
BRANCH  18  20
ATOM     20  C   UNL     1      47.643 124.829  24.277  1.00  0.00     0.149 C 
ATOM     21  N   UNL     1      48.986 125.415  24.275  1.00  0.00    -0.292 NA
ATOM     22  C   UNL     1      47.891 123.755  23.242  1.00  0.00     0.018 C 
ATOM     23  C   UNL     1      49.794 124.213  24.598  1.00  0.00     0.085 C 
ATOM     24  C   UNL     1      49.204 125.696  22.832  1.00  0.00     0.085 C 
ATOM     25  C   UNL     1      49.071 123.034  23.907  1.00  0.00     0.021 C 
ATOM     26  C   UNL     1      48.449 124.585  22.076  1.00  0.00     0.021 C 
ENDBRANCH  18  20
ENDBRANCH   7  18
BRANCH   3  27
ATOM     27  N   UNL     1      41.511 123.712  22.992  1.00  0.00    -0.181 NA
BRANCH  27  28
ATOM     28  N   UNL     1      40.670 123.938  21.890  1.00  0.00    -0.323 N 
ATOM     29  H   UNL     1      40.105 123.189  21.438  1.00  0.00     0.179 HD
ATOM     30  H   UNL     1      40.512 124.919  21.569  1.00  0.00     0.179 HD
ENDBRANCH  27  28
ENDBRANCH   3  27
TORSDOF 5
ENDMDL
MODEL 4
REMARK VINA RESULT:      -3.4      4.097      7.750
REMARK SMILES N/N=c1\cc(-c2ccc3[nH]ccc3c2)n(C(=O)[C@H]2C3CCN2CC3)[n-]c1=O
REMARK SMILES IDX 5 1 4 2 3 3 26 4 27 5 25 6 15 7 6 8 7 9 8 10 14 11 9 12
REMARK SMILES IDX 13 13 10 14 12 15 11 16 16 18 17 19 18 20 22 21 19 22 21 23
REMARK SMILES IDX 23 24 20 25 24 26 2 27 1 28
REMARK H PARENT 10 17 1 29 1 30
ROOT
ATOM      1  C   UNL     1      45.556 132.320  20.928  1.00  0.00     0.040 A 
ATOM      2  C   UNL     1      46.746 133.049  21.054  1.00  0.00     0.058 A 
ATOM      3  C   UNL     1      47.176 133.481  22.318  1.00  0.00     0.111 A 
ATOM      4  C   UNL     1      46.386 133.150  23.424  1.00  0.00     0.118 A 
ATOM      5  O   UNL     1      46.730 133.496  24.587  1.00  0.00    -0.312 OA
ATOM      6  N   UNL     1      45.234 132.458  23.249  1.00  0.00    -0.551 NA
ATOM      7  N   UNL     1      44.806 132.050  22.051  1.00  0.00    -0.383 N 
ENDROOT
BRANCH   1   8
ATOM      8  C   UNL     1      45.180 131.827  19.582  1.00  0.00    -0.002 A 
ATOM      9  C   UNL     1      43.936 132.192  19.008  1.00  0.00     0.012 A 
ATOM     10  C   UNL     1      43.569 131.725  17.734  1.00  0.00     0.027 A 
ATOM     11  C   UNL     1      46.052 130.967  18.880  1.00  0.00     0.020 A 
ATOM     12  C   UNL     1      44.461 130.889  17.065  1.00  0.00     0.045 A 
ATOM     13  C   UNL     1      45.658 130.523  17.620  1.00  0.00     0.000 A 
ATOM     14  N   UNL     1      44.309 130.335  15.852  1.00  0.00    -0.361 N 
ATOM     15  C   UNL     1      46.295 129.699  16.719  1.00  0.00     0.028 A 
ATOM     16  C   UNL     1      45.427 129.606  15.635  1.00  0.00     0.083 A 
ATOM     17  H   UNL     1      43.495 130.441  15.206  1.00  0.00     0.166 HD
ENDBRANCH   1   8
BRANCH   7  18
ATOM     18  C   UNL     1      43.527 131.379  21.995  1.00  0.00     0.231 C 
ATOM     19  O   UNL     1      42.488 132.018  21.672  1.00  0.00    -0.274 OA
BRANCH  18  20
ATOM     20  C   UNL     1      43.378 129.942  22.475  1.00  0.00     0.149 C 
ATOM     21  N   UNL     1      42.270 129.735  23.411  1.00  0.00    -0.292 NA
ATOM     22  C   UNL     1      44.490 129.432  23.363  1.00  0.00     0.018 C 
ATOM     23  C   UNL     1      42.428 128.285  23.683  1.00  0.00     0.085 C 
ATOM     24  C   UNL     1      42.748 130.447  24.625  1.00  0.00     0.085 C 
ATOM     25  C   UNL     1      43.952 128.025  23.655  1.00  0.00     0.021 C 
ATOM     26  C   UNL     1      44.280 130.283  24.625  1.00  0.00     0.021 C 
ENDBRANCH  18  20
ENDBRANCH   7  18
BRANCH   3  27
ATOM     27  N   UNL     1      48.278 134.156  22.508  1.00  0.00    -0.181 NA
BRANCH  27  28
ATOM     28  N   UNL     1      49.335 133.790  23.359  1.00  0.00    -0.323 N 
ATOM     29  H   UNL     1      49.602 132.801  23.546  1.00  0.00     0.179 HD
ATOM     30  H   UNL     1      49.957 134.537  23.740  1.00  0.00     0.179 HD
ENDBRANCH  27  28
ENDBRANCH   3  27
TORSDOF 5
ENDMDL
MODEL 5
REMARK VINA RESULT:      -3.1      3.937      7.776
REMARK SMILES N/N=c1\cc(-c2ccc3[nH]ccc3c2)n(C(=O)[C@H]2C3CCN2CC3)[n-]c1=O
REMARK SMILES IDX 5 1 4 2 3 3 26 4 27 5 25 6 15 7 6 8 7 9 8 10 14 11 9 12
REMARK SMILES IDX 13 13 10 14 12 15 11 16 16 18 17 19 18 20 22 21 19 22 21 23
REMARK SMILES IDX 23 24 20 25 24 26 2 27 1 28
REMARK H PARENT 10 17 1 29 1 30
ROOT
ATOM      1  C   UNL     1      45.673 132.103  20.894  1.00  0.00     0.040 A 
ATOM      2  C   UNL     1      46.785 132.931  21.100  1.00  0.00     0.058 A 
ATOM      3  C   UNL     1      47.007 133.512  22.358  1.00  0.00     0.111 A 
ATOM      4  C   UNL     1      46.095 133.225  23.379  1.00  0.00     0.118 A 
ATOM      5  O   UNL     1      46.251 133.703  24.534  1.00  0.00    -0.312 OA
ATOM      6  N   UNL     1      45.025 132.430  23.126  1.00  0.00    -0.551 NA
ATOM      7  N   UNL     1      44.795 131.880  21.931  1.00  0.00    -0.383 N 
ENDROOT
BRANCH   1   8
ATOM      8  C   UNL     1      45.520 131.458  19.568  1.00  0.00    -0.002 A 
ATOM      9  C   UNL     1      46.148 130.215  19.301  1.00  0.00     0.012 A 
ATOM     10  C   UNL     1      46.012 129.599  18.044  1.00  0.00     0.027 A 
ATOM     11  C   UNL     1      44.770 132.099  18.558  1.00  0.00     0.020 A 
ATOM     12  C   UNL     1      45.253 130.254  17.077  1.00  0.00     0.045 A 
ATOM     13  C   UNL     1      44.657 131.460  17.325  1.00  0.00     0.000 A 
ATOM     14  N   UNL     1      45.001 129.846  15.822  1.00  0.00    -0.361 N 
ATOM     15  C   UNL     1      43.994 131.837  16.178  1.00  0.00     0.028 A 
ATOM     16  C   UNL     1      44.231 130.810  15.268  1.00  0.00     0.083 A 
ATOM     17  H   UNL     1      45.329 128.967  15.365  1.00  0.00     0.166 HD
ENDBRANCH   1   8
BRANCH   7  18
ATOM     18  C   UNL     1      43.582 131.109  21.777  1.00  0.00     0.231 C 
ATOM     19  O   UNL     1      42.530 131.659  21.349  1.00  0.00    -0.274 OA
BRANCH  18  20
ATOM     20  C   UNL     1      43.503 129.672  22.272  1.00  0.00     0.149 C 
ATOM     21  N   UNL     1      42.280 129.362  23.018  1.00  0.00    -0.292 NA
ATOM     22  C   UNL     1      44.496 129.298  23.349  1.00  0.00     0.018 C 
ATOM     23  C   UNL     1      42.539 127.942  23.361  1.00  0.00     0.085 C 
ATOM     24  C   UNL     1      42.471 130.140  24.270  1.00  0.00     0.085 C 
ATOM     25  C   UNL     1      44.064 127.846  23.594  1.00  0.00     0.021 C 
ATOM     26  C   UNL     1      43.989 130.140  24.530  1.00  0.00     0.021 C 
ENDBRANCH  18  20
ENDBRANCH   7  18
BRANCH   3  27
ATOM     27  N   UNL     1      48.026 134.286  22.620  1.00  0.00    -0.181 NA
BRANCH  27  28
ATOM     28  N   UNL     1      48.345 135.484  21.959  1.00  0.00    -0.323 N 
ATOM     29  H   UNL     1      49.014 135.537  21.163  1.00  0.00     0.179 HD
ATOM     30  H   UNL     1      47.812 136.349  22.198  1.00  0.00     0.179 HD
ENDBRANCH  27  28
ENDBRANCH   3  27
TORSDOF 5
ENDMDL


