REMARK SMILES CC(=O)c1ccc(-c2cc(N)c(OC(=O)/C(C=O)=C(/C)[NH3+])c([NH2+]c3ccc(C)c(F)c3)c2)cn1
REMARK SMILES IDX 14 1 15 2 16 3 17 4 18 5 19 6 20 7 21 8 13 12 12 13 10 14
REMARK SMILES IDX 22 15 9 16 32 17 8 18 11 19 23 22 24 25 25 26 31 27 26 28
REMARK SMILES IDX 29 29 27 30 30 31 28 32 7 33 33 34 6 35 34 36 5 37 4 38 2 39
REMARK SMILES IDX 3 40 1 41
REMARK H PARENT 21 9 21 10 21 11 11 20 11 21 23 23 23 24
ROOT
ATOM      1  C   UNL     1      -2.250   0.517   2.329  1.00  0.00     0.352 C 
ATOM      2  O   UNL     1      -3.120   0.411   1.419  1.00  0.00    -0.245 OA
ENDROOT
BRANCH   1   3
ATOM      3  C   UNL     1      -2.650   0.824   3.728  1.00  0.00     0.155 C 
BRANCH   3   4
ATOM      4  C   UNL     1      -1.846   0.200   4.816  1.00  0.00     0.273 C 
ATOM      5  O   UNL     1      -1.016  -0.717   4.568  1.00  0.00    -0.297 OA
ENDBRANCH   3   4
BRANCH   3   6
ATOM      6  C   UNL     1      -3.680   1.676   4.008  1.00  0.00     0.119 C 
ATOM      7  C   UNL     1      -4.100   1.945   5.436  1.00  0.00     0.112 C 
BRANCH   6   8
ATOM      8  N   UNL     1      -4.385   2.363   2.953  1.00  0.00    -0.328 N 
ATOM      9  H   UNL     1      -3.708   2.805   2.289  1.00  0.00     0.350 HD
ATOM     10  H   UNL     1      -4.978   3.130   3.334  1.00  0.00     0.350 HD
ATOM     11  H   UNL     1      -5.010   1.694   2.453  1.00  0.00     0.350 HD
ENDBRANCH   6   8
ENDBRANCH   3   6
ENDBRANCH   1   3
BRANCH   1  12
ATOM     12  O   UNL     1      -0.896   0.312   2.029  1.00  0.00    -0.414 OA
BRANCH  12  13
ATOM     13  C   UNL     1      -0.436   0.155   0.719  1.00  0.00     0.214 A 
ATOM     14  C   UNL     1      -0.303   1.278  -0.121  1.00  0.00     0.082 A 
ATOM     15  C   UNL     1      -0.090  -1.129   0.243  1.00  0.00     0.180 A 
ATOM     16  C   UNL     1       0.176   1.118  -1.428  1.00  0.00     0.038 A 
ATOM     17  C   UNL     1       0.381  -1.268  -1.075  1.00  0.00     0.081 A 
ATOM     18  C   UNL     1       0.528  -0.151  -1.915  1.00  0.00    -0.009 A 
BRANCH  14  19
ATOM     19  N   UNL     1      -0.622   2.591   0.356  1.00  0.00    -0.395 N 
ATOM     20  H   UNL     1      -0.928   2.756   1.339  1.00  0.00     0.156 HD
ATOM     21  H   UNL     1      -0.523   3.423  -0.269  1.00  0.00     0.156 HD
ENDBRANCH  14  19
BRANCH  15  22
ATOM     22  N   UNL     1      -0.195  -2.295   1.091  1.00  0.00    -0.278 N 
ATOM     23  H   UNL     1      -0.655  -3.068   0.555  1.00  0.00     0.358 HD
ATOM     24  H   UNL     1      -0.801  -2.114   1.925  1.00  0.00     0.358 HD
BRANCH  22  25
ATOM     25  C   UNL     1       1.119  -2.694   1.533  1.00  0.00     0.137 A 
ATOM     26  C   UNL     1       1.761  -2.000   2.573  1.00  0.00     0.068 A 
ATOM     27  C   UNL     1       1.797  -3.749   0.895  1.00  0.00     0.107 A 
ATOM     28  C   UNL     1       3.049  -2.361   2.977  1.00  0.00     0.012 A 
ATOM     29  C   UNL     1       3.085  -4.112   1.300  1.00  0.00     0.132 A 
ATOM     30  C   UNL     1       3.718  -3.422   2.347  1.00  0.00    -0.015 A 
ATOM     31  F   UNL     1       3.716  -5.133   0.667  1.00  0.00    -0.206 F 
ATOM     32  C   UNL     1       5.106  -3.808   2.772  1.00  0.00     0.047 C 
ENDBRANCH  22  25
ENDBRANCH  15  22
BRANCH  18  33
ATOM     33  C   UNL     1       1.066  -0.311  -3.293  1.00  0.00     0.000 A 
ATOM     34  C   UNL     1       2.115  -1.209  -3.557  1.00  0.00     0.120 A 
ATOM     35  C   UNL     1       0.550   0.439  -4.362  1.00  0.00     0.013 A 
ATOM     36  N   UNL     1       2.608  -1.340  -4.817  1.00  0.00    -0.253 NA
ATOM     37  C   UNL     1       1.073   0.286  -5.648  1.00  0.00     0.033 A 
ATOM     38  C   UNL     1       2.120  -0.623  -5.867  1.00  0.00     0.106 A 
BRANCH  38  39
ATOM     39  C   UNL     1       2.702  -0.809  -7.213  1.00  0.00     0.178 C 
ATOM     40  O   UNL     1       2.251  -0.156  -8.195  1.00  0.00    -0.293 OA
ATOM     41  C   UNL     1       3.829  -1.774  -7.431  1.00  0.00     0.095 C 
ENDBRANCH  38  39
ENDBRANCH  18  33
ENDBRANCH  12  13
ENDBRANCH   1  12
TORSDOF 11


