MODEL 1
REMARK VINA RESULT:     -10.0      0.000      0.000
REMARK SMILES Cc1cc(F)[nH+]cc1-c1ccc2cc([NH2+]c3cn4ccccc4n3)[nH]c2c1
REMARK SMILES IDX 9 1 10 2 11 3 12 4 13 5 14 6 25 7 26 8 27 9 8 11 2 12 3 13
REMARK SMILES IDX 4 14 7 15 6 16 1 17 5 18 15 20 16 23 17 24 24 25 18 26 23 27
REMARK SMILES IDX 19 28 22 29 20 30 21 31
REMARK H PARENT 25 10 6 19 15 21 15 22
ROOT
ATOM      1  C   UNL     1      45.066 131.237  17.222  1.00  0.00    -0.010 A 
ATOM      2  C   UNL     1      43.760 131.789  17.273  1.00  0.00     0.010 A 
ATOM      3  C   UNL     1      43.084 131.921  18.500  1.00  0.00     0.011 A 
ATOM      4  C   UNL     1      43.733 131.483  19.650  1.00  0.00     0.006 A 
ATOM      5  C   UNL     1      43.327 131.498  20.967  1.00  0.00     0.099 A 
ATOM      6  C   UNL     1      44.391 130.933  21.666  1.00  0.00     0.209 A 
ATOM      7  N   UNL     1      45.409 130.599  20.839  1.00  0.00    -0.310 N 
ATOM      8  C   UNL     1      44.990 130.937  19.608  1.00  0.00     0.051 A 
ATOM      9  C   UNL     1      45.688 130.796  18.411  1.00  0.00     0.035 A 
ATOM     10  H   UNL     1      46.331 130.185  21.104  1.00  0.00     0.172 HD
ENDROOT
BRANCH   1  11
ATOM     11  C   UNL     1      45.759 131.101  15.921  1.00  0.00     0.049 A 
ATOM     12  C   UNL     1      45.840 129.866  15.233  1.00  0.00    -0.028 A 
ATOM     13  C   UNL     1      46.476 129.825  13.983  1.00  0.00     0.118 A 
ATOM     14  C   UNL     1      47.049 130.982  13.456  1.00  0.00     0.358 A 
ATOM     15  C   UNL     1      46.365 132.232  15.353  1.00  0.00     0.317 A 
ATOM     16  N   UNL     1      46.989 132.150  14.147  1.00  0.00    -0.186 N 
ATOM     17  C   UNL     1      45.248 128.599  15.794  1.00  0.00     0.045 C 
ATOM     18  F   UNL     1      47.672 130.937  12.253  1.00  0.00    -0.136 F 
ATOM     19  H   UNL     1      47.426 133.008  13.741  1.00  0.00     0.456 HD
ENDBRANCH   1  11
BRANCH   6  20
ATOM     20  N   UNL     1      44.462 130.813  23.094  1.00  0.00    -0.249 N 
ATOM     21  H   UNL     1      43.864 131.547  23.537  1.00  0.00     0.361 HD
ATOM     22  H   UNL     1      45.449 130.943  23.417  1.00  0.00     0.361 HD
BRANCH  20  23
ATOM     23  C   UNL     1      43.990 129.515  23.477  1.00  0.00     0.249 A 
ATOM     24  C   UNL     1      44.688 128.329  23.311  1.00  0.00     0.183 A 
ATOM     25  N   UNL     1      42.745 129.285  23.961  1.00  0.00    -0.177 NA
ATOM     26  N   UNL     1      43.868 127.349  23.715  1.00  0.00    -0.301 N 
ATOM     27  C   UNL     1      42.723 127.943  24.097  1.00  0.00     0.143 A 
ATOM     28  C   UNL     1      44.068 126.007  23.753  1.00  0.00     0.093 A 
ATOM     29  C   UNL     1      41.651 127.187  24.565  1.00  0.00     0.048 A 
ATOM     30  C   UNL     1      43.022 125.197  24.219  1.00  0.00     0.018 A 
ATOM     31  C   UNL     1      41.811 125.793  24.625  1.00  0.00     0.005 A 
ENDBRANCH  20  23
ENDBRANCH   6  20
TORSDOF 3
ENDMDL
MODEL 2
REMARK VINA RESULT:      -8.8      0.934      1.136
REMARK SMILES Cc1cc(F)[nH+]cc1-c1ccc2cc([NH2+]c3cn4ccccc4n3)[nH]c2c1
REMARK SMILES IDX 9 1 10 2 11 3 12 4 13 5 14 6 25 7 26 8 27 9 8 11 2 12 3 13
REMARK SMILES IDX 4 14 7 15 6 16 1 17 5 18 15 20 16 23 17 24 24 25 18 26 23 27
REMARK SMILES IDX 19 28 22 29 20 30 21 31
REMARK H PARENT 25 10 6 19 15 21 15 22
ROOT
ATOM      1  C   UNL     1      45.122 131.115  17.351  1.00  0.00    -0.010 A 
ATOM      2  C   UNL     1      43.933 131.890  17.400  1.00  0.00     0.010 A 
ATOM      3  C   UNL     1      43.291 132.142  18.626  1.00  0.00     0.011 A 
ATOM      4  C   UNL     1      43.853 131.600  19.778  1.00  0.00     0.006 A 
ATOM      5  C   UNL     1      43.455 131.689  21.094  1.00  0.00     0.099 A 
ATOM      6  C   UNL     1      44.403 130.947  21.796  1.00  0.00     0.209 A 
ATOM      7  N   UNL     1      45.346 130.436  20.970  1.00  0.00    -0.310 N 
ATOM      8  C   UNL     1      44.993 130.840  19.738  1.00  0.00     0.051 A 
ATOM      9  C   UNL     1      45.656 130.574  18.541  1.00  0.00     0.035 A 
ATOM     10  H   UNL     1      46.180 129.867  21.237  1.00  0.00     0.172 HD
ENDROOT
BRANCH   1  11
ATOM     11  C   UNL     1      45.779 130.855  16.051  1.00  0.00     0.049 A 
ATOM     12  C   UNL     1      45.146 131.128  14.815  1.00  0.00    -0.028 A 
ATOM     13  C   UNL     1      45.850 130.896  13.624  1.00  0.00     0.118 A 
ATOM     14  C   UNL     1      47.140 130.368  13.671  1.00  0.00     0.358 A 
ATOM     15  C   UNL     1      47.074 130.312  16.042  1.00  0.00     0.317 A 
ATOM     16  N   UNL     1      47.719 130.083  14.866  1.00  0.00    -0.186 N 
ATOM     17  C   UNL     1      43.745 131.676  14.739  1.00  0.00     0.045 C 
ATOM     18  F   UNL     1      47.815 130.135  12.519  1.00  0.00    -0.136 F 
ATOM     19  H   UNL     1      48.685 129.685  14.886  1.00  0.00     0.456 HD
ENDBRANCH   1  11
BRANCH   6  20
ATOM     20  N   UNL     1      44.451 130.820  23.224  1.00  0.00    -0.249 N 
ATOM     21  H   UNL     1      44.013 131.660  23.665  1.00  0.00     0.361 HD
ATOM     22  H   UNL     1      45.445 130.751  23.545  1.00  0.00     0.361 HD
BRANCH  20  23
ATOM     23  C   UNL     1      43.731 129.644  23.612  1.00  0.00     0.249 A 
ATOM     24  C   UNL     1      44.300 128.409  23.885  1.00  0.00     0.183 A 
ATOM     25  N   UNL     1      42.378 129.577  23.660  1.00  0.00    -0.177 NA
ATOM     26  N   UNL     1      43.285 127.570  24.122  1.00  0.00    -0.301 N 
ATOM     27  C   UNL     1      42.156 128.287  23.984  1.00  0.00     0.143 A 
ATOM     28  C   UNL     1      43.302 126.248  24.432  1.00  0.00     0.093 A 
ATOM     29  C   UNL     1      40.907 127.693  24.159  1.00  0.00     0.048 A 
ATOM     30  C   UNL     1      42.073 125.598  24.622  1.00  0.00     0.018 A 
ATOM     31  C   UNL     1      40.875 126.326  24.484  1.00  0.00     0.005 A 
ENDBRANCH  20  23
ENDBRANCH   6  20
TORSDOF 3
ENDMDL
MODEL 3
REMARK VINA RESULT:      -8.4      0.936      1.564
REMARK SMILES Cc1cc(F)[nH+]cc1-c1ccc2cc([NH2+]c3cn4ccccc4n3)[nH]c2c1
REMARK SMILES IDX 9 1 10 2 11 3 12 4 13 5 14 6 25 7 26 8 27 9 8 11 2 12 3 13
REMARK SMILES IDX 4 14 7 15 6 16 1 17 5 18 15 20 16 23 17 24 24 25 18 26 23 27
REMARK SMILES IDX 19 28 22 29 20 30 21 31
REMARK H PARENT 25 10 6 19 15 21 15 22
ROOT
ATOM      1  C   UNL     1      44.877 131.250  17.885  1.00  0.00    -0.010 A 
ATOM      2  C   UNL     1      43.696 132.001  18.120  1.00  0.00     0.010 A 
ATOM      3  C   UNL     1      43.123 132.053  19.404  1.00  0.00     0.011 A 
ATOM      4  C   UNL     1      43.744 131.338  20.423  1.00  0.00     0.006 A 
ATOM      5  C   UNL     1      43.419 131.216  21.757  1.00  0.00     0.099 A 
ATOM      6  C   UNL     1      44.401 130.377  22.279  1.00  0.00     0.209 A 
ATOM      7  N   UNL     1      45.296 130.007  21.333  1.00  0.00    -0.310 N 
ATOM      8  C   UNL     1      44.878 130.599  20.202  1.00  0.00     0.051 A 
ATOM      9  C   UNL     1      45.473 130.529  18.944  1.00  0.00     0.035 A 
ATOM     10  H   UNL     1      46.140 129.407  21.461  1.00  0.00     0.172 HD
ENDROOT
BRANCH   1  11
ATOM     11  C   UNL     1      45.463 131.202  16.526  1.00  0.00     0.049 A 
ATOM     12  C   UNL     1      45.503 130.011  15.762  1.00  0.00    -0.028 A 
ATOM     13  C   UNL     1      46.035 130.054  14.464  1.00  0.00     0.118 A 
ATOM     14  C   UNL     1      46.547 131.250  13.962  1.00  0.00     0.358 A 
ATOM     15  C   UNL     1      46.004 132.375  15.978  1.00  0.00     0.317 A 
ATOM     16  N   UNL     1      46.528 132.375  14.723  1.00  0.00    -0.186 N 
ATOM     17  C   UNL     1      44.978 128.703  16.293  1.00  0.00     0.045 C 
ATOM     18  F   UNL     1      47.069 131.287  12.711  1.00  0.00    -0.136 F 
ATOM     19  H   UNL     1      46.918 133.262  14.334  1.00  0.00     0.456 HD
ENDBRANCH   1  11
BRANCH   6  20
ATOM     20  N   UNL     1      44.526 130.025  23.664  1.00  0.00    -0.249 N 
ATOM     21  H   UNL     1      43.771 130.496  24.214  1.00  0.00     0.361 HD
ATOM     22  H   UNL     1      45.455 130.338  24.032  1.00  0.00     0.361 HD
BRANCH  20  23
ATOM     23  C   UNL     1      44.401 128.604  23.798  1.00  0.00     0.249 A 
ATOM     24  C   UNL     1      43.250 127.934  24.183  1.00  0.00     0.183 A 
ATOM     25  N   UNL     1      45.441 127.746  23.659  1.00  0.00    -0.177 NA
ATOM     26  N   UNL     1      43.578 126.638  24.266  1.00  0.00    -0.301 N 
ATOM     27  C   UNL     1      44.882 126.553  23.950  1.00  0.00     0.143 A 
ATOM     28  C   UNL     1      42.816 125.568  24.606  1.00  0.00     0.093 A 
ATOM     29  C   UNL     1      45.537 125.323  23.953  1.00  0.00     0.048 A 
ATOM     30  C   UNL     1      43.423 124.303  24.624  1.00  0.00     0.018 A 
ATOM     31  C   UNL     1      44.788 124.185  24.296  1.00  0.00     0.005 A 
ENDBRANCH  20  23
ENDBRANCH   6  20
TORSDOF 3
ENDMDL
MODEL 4
REMARK VINA RESULT:      -8.2      1.268      1.542
REMARK SMILES Cc1cc(F)[nH+]cc1-c1ccc2cc([NH2+]c3cn4ccccc4n3)[nH]c2c1
REMARK SMILES IDX 9 1 10 2 11 3 12 4 13 5 14 6 25 7 26 8 27 9 8 11 2 12 3 13
REMARK SMILES IDX 4 14 7 15 6 16 1 17 5 18 15 20 16 23 17 24 24 25 18 26 23 27
REMARK SMILES IDX 19 28 22 29 20 30 21 31
REMARK H PARENT 25 10 6 19 15 21 15 22
ROOT
ATOM      1  C   UNL     1      45.106 131.123  17.640  1.00  0.00    -0.010 A 
ATOM      2  C   UNL     1      43.928 131.870  17.899  1.00  0.00     0.010 A 
ATOM      3  C   UNL     1      43.362 131.893  19.187  1.00  0.00     0.011 A 
ATOM      4  C   UNL     1      43.987 131.153  20.186  1.00  0.00     0.006 A 
ATOM      5  C   UNL     1      43.669 131.001  21.518  1.00  0.00     0.099 A 
ATOM      6  C   UNL     1      44.652 130.149  22.016  1.00  0.00     0.209 A 
ATOM      7  N   UNL     1      45.541 129.800  21.056  1.00  0.00    -0.310 N 
ATOM      8  C   UNL     1      45.118 130.418  19.941  1.00  0.00     0.051 A 
ATOM      9  C   UNL     1      45.707 130.377  18.679  1.00  0.00     0.035 A 
ATOM     10  H   UNL     1      46.385 129.195  21.165  1.00  0.00     0.172 HD
ENDROOT
BRANCH   1  11
ATOM     11  C   UNL     1      45.684 131.106  16.278  1.00  0.00     0.049 A 
ATOM     12  C   UNL     1      45.597 129.973  15.433  1.00  0.00    -0.028 A 
ATOM     13  C   UNL     1      46.131 130.048  14.138  1.00  0.00     0.118 A 
ATOM     14  C   UNL     1      46.769 131.213  13.716  1.00  0.00     0.358 A 
ATOM     15  C   UNL     1      46.350 132.249  15.808  1.00  0.00     0.317 A 
ATOM     16  N   UNL     1      46.872 132.279  14.552  1.00  0.00    -0.186 N 
ATOM     17  C   UNL     1      44.932 128.696  15.876  1.00  0.00     0.045 C 
ATOM     18  F   UNL     1      47.294 131.280  12.467  1.00  0.00    -0.136 F 
ATOM     19  H   UNL     1      47.356 133.144  14.223  1.00  0.00     0.456 HD
ENDBRANCH   1  11
BRANCH   6  20
ATOM     20  N   UNL     1      44.784 129.764  23.391  1.00  0.00    -0.249 N 
ATOM     21  H   UNL     1      43.996 130.172  23.945  1.00  0.00     0.361 HD
ATOM     22  H   UNL     1      45.688 130.122  23.779  1.00  0.00     0.361 HD
BRANCH  20  23
ATOM     23  C   UNL     1      44.745 128.335  23.483  1.00  0.00     0.249 A 
ATOM     24  C   UNL     1      45.507 127.567  24.351  1.00  0.00     0.183 A 
ATOM     25  N   UNL     1      44.020 127.551  22.647  1.00  0.00    -0.177 NA
ATOM     26  N   UNL     1      45.236 126.288  24.059  1.00  0.00    -0.301 N 
ATOM     27  C   UNL     1      44.351 126.306  23.047  1.00  0.00     0.143 A 
ATOM     28  C   UNL     1      45.721 125.148  24.613  1.00  0.00     0.093 A 
ATOM     29  C   UNL     1      43.871 125.118  22.499  1.00  0.00     0.048 A 
ATOM     30  C   UNL     1      45.269 123.922  24.103  1.00  0.00     0.018 A 
ATOM     31  C   UNL     1      44.342 123.912  23.042  1.00  0.00     0.005 A 
ENDBRANCH  20  23
ENDBRANCH   6  20
TORSDOF 3
ENDMDL
MODEL 5
REMARK VINA RESULT:      -7.8      1.247      1.953
REMARK SMILES Cc1cc(F)[nH+]cc1-c1ccc2cc([NH2+]c3cn4ccccc4n3)[nH]c2c1
REMARK SMILES IDX 9 1 10 2 11 3 12 4 13 5 14 6 25 7 26 8 27 9 8 11 2 12 3 13
REMARK SMILES IDX 4 14 7 15 6 16 1 17 5 18 15 20 16 23 17 24 24 25 18 26 23 27
REMARK SMILES IDX 19 28 22 29 20 30 21 31
REMARK H PARENT 25 10 6 19 15 21 15 22
ROOT
ATOM      1  C   UNL     1      45.224 130.867  17.950  1.00  0.00    -0.010 A 
ATOM      2  C   UNL     1      44.286 131.908  18.174  1.00  0.00     0.010 A 
ATOM      3  C   UNL     1      43.748 132.125  19.455  1.00  0.00     0.011 A 
ATOM      4  C   UNL     1      44.156 131.282  20.484  1.00  0.00     0.006 A 
ATOM      5  C   UNL     1      43.811 131.266  21.818  1.00  0.00     0.099 A 
ATOM      6  C   UNL     1      44.534 130.201  22.352  1.00  0.00     0.209 A 
ATOM      7  N   UNL     1      45.298 129.597  21.412  1.00  0.00    -0.310 N 
ATOM      8  C   UNL     1      45.052 130.265  20.273  1.00  0.00     0.051 A 
ATOM      9  C   UNL     1      45.607 130.025  19.018  1.00  0.00     0.035 A 
ATOM     10  H   UNL     1      45.952 128.794  21.549  1.00  0.00     0.172 HD
ENDROOT
BRANCH   1  11
ATOM     11  C   UNL     1      45.775 130.649  16.593  1.00  0.00     0.049 A 
ATOM     12  C   UNL     1      45.113 131.101  15.427  1.00  0.00    -0.028 A 
ATOM     13  C   UNL     1      45.719 130.897  14.178  1.00  0.00     0.118 A 
ATOM     14  C   UNL     1      46.937 130.223  14.099  1.00  0.00     0.358 A 
ATOM     15  C   UNL     1      46.992 129.965  16.456  1.00  0.00     0.317 A 
ATOM     16  N   UNL     1      47.542 129.768  15.227  1.00  0.00    -0.186 N 
ATOM     17  C   UNL     1      43.785 131.811  15.486  1.00  0.00     0.045 C 
ATOM     18  F   UNL     1      47.516 130.017  12.890  1.00  0.00    -0.136 F 
ATOM     19  H   UNL     1      48.452 129.263  15.152  1.00  0.00     0.456 HD
ENDBRANCH   1  11
BRANCH   6  20
ATOM     20  N   UNL     1      44.562 129.845  23.741  1.00  0.00    -0.249 N 
ATOM     21  H   UNL     1      43.773 130.318  24.239  1.00  0.00     0.361 HD
ATOM     22  H   UNL     1      45.465 130.151  24.173  1.00  0.00     0.361 HD
BRANCH  20  23
ATOM     23  C   UNL     1      44.421 128.424  23.861  1.00  0.00     0.249 A 
ATOM     24  C   UNL     1      43.252 127.762  24.204  1.00  0.00     0.183 A 
ATOM     25  N   UNL     1      45.457 127.557  23.750  1.00  0.00    -0.177 NA
ATOM     26  N   UNL     1      43.565 126.462  24.289  1.00  0.00    -0.301 N 
ATOM     27  C   UNL     1      44.878 126.368  24.014  1.00  0.00     0.143 A 
ATOM     28  C   UNL     1      42.784 125.396  24.597  1.00  0.00     0.093 A 
ATOM     29  C   UNL     1      45.523 125.132  24.030  1.00  0.00     0.048 A 
ATOM     30  C   UNL     1      43.379 124.126  24.625  1.00  0.00     0.018 A 
ATOM     31  C   UNL     1      44.753 123.999  24.340  1.00  0.00     0.005 A 
ENDBRANCH  20  23
ENDBRANCH   6  20
TORSDOF 3
ENDMDL
MODEL 6
REMARK VINA RESULT:      -7.6      1.120      1.313
REMARK SMILES Cc1cc(F)[nH+]cc1-c1ccc2cc([NH2+]c3cn4ccccc4n3)[nH]c2c1
REMARK SMILES IDX 9 1 10 2 11 3 12 4 13 5 14 6 25 7 26 8 27 9 8 11 2 12 3 13
REMARK SMILES IDX 4 14 7 15 6 16 1 17 5 18 15 20 16 23 17 24 24 25 18 26 23 27
REMARK SMILES IDX 19 28 22 29 20 30 21 31
REMARK H PARENT 25 10 6 19 15 21 15 22
ROOT
ATOM      1  C   UNL     1      45.421 130.862  17.637  1.00  0.00    -0.010 A 
ATOM      2  C   UNL     1      44.488 131.916  17.824  1.00  0.00     0.010 A 
ATOM      3  C   UNL     1      43.943 132.173  19.095  1.00  0.00     0.011 A 
ATOM      4  C   UNL     1      44.339 131.358  20.150  1.00  0.00     0.006 A 
ATOM      5  C   UNL     1      43.985 131.383  21.482  1.00  0.00     0.099 A 
ATOM      6  C   UNL     1      44.697 130.330  22.052  1.00  0.00     0.209 A 
ATOM      7  N   UNL     1      45.463 129.692  21.135  1.00  0.00    -0.310 N 
ATOM      8  C   UNL     1      45.229 130.330  19.976  1.00  0.00     0.051 A 
ATOM      9  C   UNL     1      45.791 130.050  18.732  1.00  0.00     0.035 A 
ATOM     10  H   UNL     1      46.110 128.890  21.299  1.00  0.00     0.172 HD
ENDROOT
BRANCH   1  11
ATOM     11  C   UNL     1      45.979 130.602  16.291  1.00  0.00     0.049 A 
ATOM     12  C   UNL     1      45.316 131.003  15.107  1.00  0.00    -0.028 A 
ATOM     13  C   UNL     1      45.929 130.760  13.868  1.00  0.00     0.118 A 
ATOM     14  C   UNL     1      47.155 130.098  13.818  1.00  0.00     0.358 A 
ATOM     15  C   UNL     1      47.205 129.927  16.183  1.00  0.00     0.317 A 
ATOM     16  N   UNL     1      47.761 129.692  14.964  1.00  0.00    -0.186 N 
ATOM     17  C   UNL     1      43.980 131.698  15.135  1.00  0.00     0.045 C 
ATOM     18  F   UNL     1      47.741 129.855  12.620  1.00  0.00    -0.136 F 
ATOM     19  H   UNL     1      48.678 129.195  14.910  1.00  0.00     0.456 HD
ENDBRANCH   1  11
BRANCH   6  20
ATOM     20  N   UNL     1      44.713 130.013  23.451  1.00  0.00    -0.249 N 
ATOM     21  H   UNL     1      44.103 130.687  23.968  1.00  0.00     0.361 HD
ATOM     22  H   UNL     1      45.688 130.086  23.825  1.00  0.00     0.361 HD
BRANCH  20  23
ATOM     23  C   UNL     1      44.218 128.681  23.634  1.00  0.00     0.249 A 
ATOM     24  C   UNL     1      44.789 127.535  23.101  1.00  0.00     0.183 A 
ATOM     25  N   UNL     1      43.059 128.395  24.276  1.00  0.00    -0.177 NA
ATOM     26  N   UNL     1      43.980 126.521  23.434  1.00  0.00    -0.301 N 
ATOM     27  C   UNL     1      42.962 127.057  24.131  1.00  0.00     0.143 A 
ATOM     28  C   UNL     1      44.083 125.197  23.154  1.00  0.00     0.093 A 
ATOM     29  C   UNL     1      41.932 126.256  24.618  1.00  0.00     0.048 A 
ATOM     30  C   UNL     1      43.075 124.342  23.622  1.00  0.00     0.018 A 
ATOM     31  C   UNL     1      41.997 124.877  24.356  1.00  0.00     0.005 A 
ENDBRANCH  20  23
ENDBRANCH   6  20
TORSDOF 3
ENDMDL


