MODEL 1
REMARK VINA RESULT:      -6.5      0.000      0.000
REMARK SMILES [NH-]C(=O)c1ccc(-c2cc(F)cc(F)c2OCc2n[nH]c3c2CCC3)cc1
REMARK SMILES IDX 8 1 9 2 10 3 11 4 12 5 13 6 14 7 15 8 7 9 4 10 5 11 27 12
REMARK SMILES IDX 6 13 26 14 2 15 3 16 1 17 16 19 17 20 18 21 19 22 22 23
REMARK SMILES IDX 20 24 21 25 23 26 25 27 24 28
REMARK H PARENT 1 18 20 29
ROOT
ATOM      1  C   UNL     1      44.307 126.037  23.569  1.00  0.00     0.030 A 
ATOM      2  C   UNL     1      43.536 124.945  24.004  1.00  0.00     0.052 A 
ATOM      3  C   UNL     1      42.161 125.084  24.210  1.00  0.00     0.127 A 
ATOM      4  F   UNL     1      41.428 124.022  24.625  1.00  0.00    -0.207 F 
ATOM      5  C   UNL     1      41.541 126.314  23.987  1.00  0.00     0.082 A 
ATOM      6  C   UNL     1      42.294 127.411  23.562  1.00  0.00     0.168 A 
ATOM      7  F   UNL     1      41.676 128.597  23.337  1.00  0.00    -0.203 F 
ATOM      8  C   UNL     1      43.677 127.284  23.358  1.00  0.00     0.163 A 
ENDROOT
BRANCH   1   9
ATOM      9  C   UNL     1      45.772 125.884  23.408  1.00  0.00    -0.014 A 
ATOM     10  C   UNL     1      48.555 125.506  23.108  1.00  0.00    -0.001 A 
ATOM     11  C   UNL     1      47.682 125.276  22.030  1.00  0.00     0.011 A 
ATOM     12  C   UNL     1      48.020 125.943  24.333  1.00  0.00     0.011 A 
ATOM     13  C   UNL     1      46.306 125.466  22.179  1.00  0.00     0.009 A 
ATOM     14  C   UNL     1      46.644 126.133  24.480  1.00  0.00     0.009 A 
BRANCH  10  15
ATOM     15  C   UNL     1      50.013 125.290  22.959  1.00  0.00     0.080 C 
ATOM     16  O   UNL     1      50.682 124.787  23.902  1.00  0.00    -0.315 OA
BRANCH  15  17
ATOM     17  N   UNL     1      50.679 125.645  21.747  1.00  0.00    -0.664 NA
ATOM     18  H   UNL     1      51.441 125.048  21.359  1.00  0.00    -0.121 HD
ENDBRANCH  15  17
ENDBRANCH  10  15
ENDBRANCH   1   9
BRANCH   8  19
ATOM     19  O   UNL     1      44.427 128.393  22.958  1.00  0.00    -0.483 OA
BRANCH  19  20
ATOM     20  C   UNL     1      44.269 129.678  23.553  1.00  0.00     0.288 C 
BRANCH  20  21
ATOM     21  C   UNL     1      43.955 130.693  22.501  1.00  0.00     0.103 A 
ATOM     22  N   UNL     1      42.740 131.275  22.359  1.00  0.00    -0.177 NA
ATOM     23  C   UNL     1      44.717 131.001  21.392  1.00  0.00    -0.000 A 
ATOM     24  N   UNL     1      42.732 131.922  21.200  1.00  0.00    -0.282 N 
ATOM     25  C   UNL     1      43.934 131.765  20.623  1.00  0.00     0.039 A 
ATOM     26  C   UNL     1      45.756 130.281  20.630  1.00  0.00     0.040 C 
ATOM     27  C   UNL     1      44.291 131.723  19.192  1.00  0.00     0.056 C 
ATOM     28  C   UNL     1      45.556 130.826  19.191  1.00  0.00     0.011 C 
ATOM     29  H   UNL     1      41.885 132.355  20.770  1.00  0.00     0.190 HD
ENDBRANCH  20  21
ENDBRANCH  19  20
ENDBRANCH   8  19
TORSDOF 6
ENDMDL
MODEL 2
REMARK VINA RESULT:      -6.3      3.571      7.255
REMARK SMILES [NH-]C(=O)c1ccc(-c2cc(F)cc(F)c2OCc2n[nH]c3c2CCC3)cc1
REMARK SMILES IDX 8 1 9 2 10 3 11 4 12 5 13 6 14 7 15 8 7 9 4 10 5 11 27 12
REMARK SMILES IDX 6 13 26 14 2 15 3 16 1 17 16 19 17 20 18 21 19 22 22 23
REMARK SMILES IDX 20 24 21 25 23 26 25 27 24 28
REMARK H PARENT 1 18 20 29
ROOT
ATOM      1  C   UNL     1      43.237 131.812  20.074  1.00  0.00     0.030 A 
ATOM      2  C   UNL     1      42.238 132.801  20.037  1.00  0.00     0.052 A 
ATOM      3  C   UNL     1      41.502 133.109  21.185  1.00  0.00     0.127 A 
ATOM      4  F   UNL     1      40.545 134.068  21.137  1.00  0.00    -0.207 F 
ATOM      5  C   UNL     1      41.753 132.433  22.379  1.00  0.00     0.082 A 
ATOM      6  C   UNL     1      42.737 131.443  22.431  1.00  0.00     0.168 A 
ATOM      7  F   UNL     1      42.979 130.804  23.602  1.00  0.00    -0.203 F 
ATOM      8  C   UNL     1      43.478 131.121  21.282  1.00  0.00     0.163 A 
ENDROOT
BRANCH   1   9
ATOM      9  C   UNL     1      43.969 131.461  18.834  1.00  0.00    -0.014 A 
ATOM     10  C   UNL     1      45.410 130.867  16.479  1.00  0.00    -0.001 A 
ATOM     11  C   UNL     1      45.983 130.642  17.744  1.00  0.00     0.011 A 
ATOM     12  C   UNL     1      44.102 131.378  16.408  1.00  0.00     0.011 A 
ATOM     13  C   UNL     1      45.267 130.933  18.908  1.00  0.00     0.009 A 
ATOM     14  C   UNL     1      43.388 131.669  17.573  1.00  0.00     0.009 A 
BRANCH  10  15
ATOM     15  C   UNL     1      46.172 130.574  15.242  1.00  0.00     0.080 C 
ATOM     16  O   UNL     1      45.818 131.077  14.143  1.00  0.00    -0.315 OA
BRANCH  15  17
ATOM     17  N   UNL     1      47.316 129.721  15.280  1.00  0.00    -0.664 NA
ATOM     18  H   UNL     1      47.960 129.724  16.101  1.00  0.00    -0.121 HD
ENDBRANCH  15  17
ENDBRANCH  10  15
ENDBRANCH   1   9
BRANCH   8  19
ATOM     19  O   UNL     1      44.442 130.111  21.337  1.00  0.00    -0.483 OA
BRANCH  19  20
ATOM     20  C   UNL     1      45.019 129.670  22.562  1.00  0.00     0.288 C 
BRANCH  20  21
ATOM     21  C   UNL     1      44.829 128.194  22.714  1.00  0.00     0.103 A 
ATOM     22  N   UNL     1      45.504 127.272  21.986  1.00  0.00    -0.177 NA
ATOM     23  C   UNL     1      43.806 127.554  23.385  1.00  0.00    -0.000 A 
ATOM     24  N   UNL     1      44.927 126.094  22.187  1.00  0.00    -0.282 N 
ATOM     25  C   UNL     1      43.907 126.266  23.043  1.00  0.00     0.039 A 
ATOM     26  C   UNL     1      42.439 127.945  23.784  1.00  0.00     0.040 C 
ATOM     27  C   UNL     1      42.636 125.525  23.151  1.00  0.00     0.056 C 
ATOM     28  C   UNL     1      41.677 126.595  23.736  1.00  0.00     0.011 C 
ATOM     29  H   UNL     1      45.156 125.225  21.655  1.00  0.00     0.190 HD
ENDBRANCH  20  21
ENDBRANCH  19  20
ENDBRANCH   8  19
TORSDOF 6
ENDMDL
MODEL 3
REMARK VINA RESULT:      -6.2      3.334      7.050
REMARK SMILES [NH-]C(=O)c1ccc(-c2cc(F)cc(F)c2OCc2n[nH]c3c2CCC3)cc1
REMARK SMILES IDX 8 1 9 2 10 3 11 4 12 5 13 6 14 7 15 8 7 9 4 10 5 11 27 12
REMARK SMILES IDX 6 13 26 14 2 15 3 16 1 17 16 19 17 20 18 21 19 22 22 23
REMARK SMILES IDX 20 24 21 25 23 26 25 27 24 28
REMARK H PARENT 1 18 20 29
ROOT
ATOM      1  C   UNL     1      43.321 131.768  20.227  1.00  0.00     0.030 A 
ATOM      2  C   UNL     1      42.277 132.708  20.180  1.00  0.00     0.052 A 
ATOM      3  C   UNL     1      41.536 133.003  21.328  1.00  0.00     0.127 A 
ATOM      4  F   UNL     1      40.535 133.915  21.271  1.00  0.00    -0.207 F 
ATOM      5  C   UNL     1      41.828 132.363  22.533  1.00  0.00     0.082 A 
ATOM      6  C   UNL     1      42.858 131.421  22.595  1.00  0.00     0.168 A 
ATOM      7  F   UNL     1      43.139 130.817  23.776  1.00  0.00    -0.203 F 
ATOM      8  C   UNL     1      43.604 131.112  21.446  1.00  0.00     0.163 A 
ENDROOT
BRANCH   1   9
ATOM      9  C   UNL     1      44.059 131.428  18.988  1.00  0.00    -0.014 A 
ATOM     10  C   UNL     1      45.416 130.711  16.616  1.00  0.00    -0.001 A 
ATOM     11  C   UNL     1      44.161 131.342  16.559  1.00  0.00     0.011 A 
ATOM     12  C   UNL     1      45.992 130.459  17.875  1.00  0.00     0.011 A 
ATOM     13  C   UNL     1      43.492 131.698  17.733  1.00  0.00     0.009 A 
ATOM     14  C   UNL     1      45.322 130.816  19.047  1.00  0.00     0.009 A 
BRANCH  10  15
ATOM     15  C   UNL     1      46.121 130.316  15.374  1.00  0.00     0.080 C 
ATOM     16  O   UNL     1      45.609 130.558  14.248  1.00  0.00    -0.315 OA
BRANCH  15  17
ATOM     17  N   UNL     1      47.387 129.660  15.436  1.00  0.00    -0.664 NA
ATOM     18  H   UNL     1      47.910 129.420  14.566  1.00  0.00    -0.121 HD
ENDBRANCH  15  17
ENDBRANCH  10  15
ENDBRANCH   1   9
BRANCH   8  19
ATOM     19  O   UNL     1      44.615 130.150  21.511  1.00  0.00    -0.483 OA
BRANCH  19  20
ATOM     20  C   UNL     1      44.962 129.486  22.723  1.00  0.00     0.288 C 
BRANCH  20  21
ATOM     21  C   UNL     1      44.391 128.103  22.728  1.00  0.00     0.103 A 
ATOM     22  N   UNL     1      43.266 127.759  23.400  1.00  0.00    -0.177 NA
ATOM     23  C   UNL     1      45.014 126.947  22.302  1.00  0.00    -0.000 A 
ATOM     24  N   UNL     1      43.183 126.433  23.401  1.00  0.00    -0.282 N 
ATOM     25  C   UNL     1      44.236 125.946  22.725  1.00  0.00     0.039 A 
ATOM     26  C   UNL     1      46.424 126.550  22.117  1.00  0.00     0.040 C 
ATOM     27  C   UNL     1      44.958 124.672  22.903  1.00  0.00     0.056 C 
ATOM     28  C   UNL     1      46.385 125.027  22.409  1.00  0.00     0.011 C 
ATOM     29  H   UNL     1      42.487 125.886  23.954  1.00  0.00     0.190 HD
ENDBRANCH  20  21
ENDBRANCH  19  20
ENDBRANCH   8  19
TORSDOF 6
ENDMDL
MODEL 4
REMARK VINA RESULT:      -5.7      3.107      6.968
REMARK SMILES [NH-]C(=O)c1ccc(-c2cc(F)cc(F)c2OCc2n[nH]c3c2CCC3)cc1
REMARK SMILES IDX 8 1 9 2 10 3 11 4 12 5 13 6 14 7 15 8 7 9 4 10 5 11 27 12
REMARK SMILES IDX 6 13 26 14 2 15 3 16 1 17 16 19 17 20 18 21 19 22 22 23
REMARK SMILES IDX 20 24 21 25 23 26 25 27 24 28
REMARK H PARENT 1 18 20 29
ROOT
ATOM      1  C   UNL     1      43.802 130.844  21.956  1.00  0.00     0.030 A 
ATOM      2  C   UNL     1      43.148 131.887  22.635  1.00  0.00     0.052 A 
ATOM      3  C   UNL     1      42.741 131.725  23.962  1.00  0.00     0.127 A 
ATOM      4  F   UNL     1      42.115 132.740  24.607  1.00  0.00    -0.207 F 
ATOM      5  C   UNL     1      42.979 130.520  24.624  1.00  0.00     0.082 A 
ATOM      6  C   UNL     1      43.621 129.471  23.962  1.00  0.00     0.168 A 
ATOM      7  F   UNL     1      43.858 128.311  24.623  1.00  0.00    -0.203 F 
ATOM      8  C   UNL     1      44.029 129.622  22.627  1.00  0.00     0.163 A 
ENDROOT
BRANCH   1   9
ATOM      9  C   UNL     1      44.178 131.016  20.533  1.00  0.00    -0.014 A 
ATOM     10  C   UNL     1      44.848 131.274  17.801  1.00  0.00    -0.001 A 
ATOM     11  C   UNL     1      43.593 131.699  18.273  1.00  0.00     0.011 A 
ATOM     12  C   UNL     1      45.770 130.734  18.716  1.00  0.00     0.011 A 
ATOM     13  C   UNL     1      43.264 131.573  19.625  1.00  0.00     0.009 A 
ATOM     14  C   UNL     1      45.439 130.610  20.068  1.00  0.00     0.009 A 
BRANCH  10  15
ATOM     15  C   UNL     1      45.194 131.390  16.365  1.00  0.00     0.080 C 
ATOM     16  O   UNL     1      46.099 132.184  15.991  1.00  0.00    -0.315 OA
BRANCH  15  17
ATOM     17  N   UNL     1      44.510 130.606  15.389  1.00  0.00    -0.664 NA
ATOM     18  H   UNL     1      44.868 129.667  15.108  1.00  0.00    -0.121 HD
ENDBRANCH  15  17
ENDBRANCH  10  15
ENDBRANCH   1   9
BRANCH   8  19
ATOM     19  O   UNL     1      44.647 128.558  21.964  1.00  0.00    -0.483 OA
BRANCH  19  20
ATOM     20  C   UNL     1      45.874 127.989  22.410  1.00  0.00     0.288 C 
BRANCH  20  21
ATOM     21  C   UNL     1      45.745 126.501  22.497  1.00  0.00     0.103 A 
ATOM     22  N   UNL     1      46.676 125.638  22.022  1.00  0.00    -0.177 NA
ATOM     23  C   UNL     1      44.608 125.784  22.811  1.00  0.00    -0.000 A 
ATOM     24  N   UNL     1      46.145 124.422  22.032  1.00  0.00    -0.282 N 
ATOM     25  C   UNL     1      44.898 124.512  22.522  1.00  0.00     0.039 A 
ATOM     26  C   UNL     1      43.162 126.078  22.757  1.00  0.00     0.040 C 
ATOM     27  C   UNL     1      43.710 123.689  22.223  1.00  0.00     0.056 C 
ATOM     28  C   UNL     1      42.546 124.684  22.472  1.00  0.00     0.011 C 
ATOM     29  H   UNL     1      46.588 123.580  21.601  1.00  0.00     0.190 HD
ENDBRANCH  20  21
ENDBRANCH  19  20
ENDBRANCH   8  19
TORSDOF 6
ENDMDL
MODEL 5
REMARK VINA RESULT:      -5.5      3.845      7.389
REMARK SMILES [NH-]C(=O)c1ccc(-c2cc(F)cc(F)c2OCc2n[nH]c3c2CCC3)cc1
REMARK SMILES IDX 8 1 9 2 10 3 11 4 12 5 13 6 14 7 15 8 7 9 4 10 5 11 27 12
REMARK SMILES IDX 6 13 26 14 2 15 3 16 1 17 16 19 17 20 18 21 19 22 22 23
REMARK SMILES IDX 20 24 21 25 23 26 25 27 24 28
REMARK H PARENT 1 18 20 29
ROOT
ATOM      1  C   UNL     1      44.072 131.713  18.410  1.00  0.00     0.030 A 
ATOM      2  C   UNL     1      42.777 132.144  18.073  1.00  0.00     0.052 A 
ATOM      3  C   UNL     1      41.865 132.495  19.072  1.00  0.00     0.127 A 
ATOM      4  F   UNL     1      40.620 132.914  18.734  1.00  0.00    -0.207 F 
ATOM      5  C   UNL     1      42.233 132.418  20.415  1.00  0.00     0.082 A 
ATOM      6  C   UNL     1      43.513 131.985  20.767  1.00  0.00     0.168 A 
ATOM      7  F   UNL     1      43.862 131.927  22.076  1.00  0.00    -0.203 F 
ATOM      8  C   UNL     1      44.436 131.623  19.772  1.00  0.00     0.163 A 
ENDROOT
BRANCH   1   9
ATOM      9  C   UNL     1      45.008 131.294  17.340  1.00  0.00    -0.014 A 
ATOM     10  C   UNL     1      46.723 130.484  15.247  1.00  0.00    -0.001 A 
ATOM     11  C   UNL     1      46.198 131.789  15.277  1.00  0.00     0.011 A 
ATOM     12  C   UNL     1      46.392 129.596  16.286  1.00  0.00     0.011 A 
ATOM     13  C   UNL     1      45.352 132.189  16.315  1.00  0.00     0.009 A 
ATOM     14  C   UNL     1      45.546 129.998  17.322  1.00  0.00     0.009 A 
BRANCH  10  15
ATOM     15  C   UNL     1      47.608 130.051  14.140  1.00  0.00     0.080 C 
ATOM     16  O   UNL     1      48.020 130.886  13.291  1.00  0.00    -0.315 OA
BRANCH  15  17
ATOM     17  N   UNL     1      48.004 128.685  14.021  1.00  0.00    -0.664 NA
ATOM     18  H   UNL     1      47.484 127.930  14.518  1.00  0.00    -0.121 HD
ENDBRANCH  15  17
ENDBRANCH  10  15
ENDBRANCH   1   9
BRANCH   8  19
ATOM     19  O   UNL     1      45.706 131.166  20.133  1.00  0.00    -0.483 OA
BRANCH  19  20
ATOM     20  C   UNL     1      45.976 129.794  20.404  1.00  0.00     0.288 C 
BRANCH  20  21
ATOM     21  C   UNL     1      45.294 129.379  21.669  1.00  0.00     0.103 A 
ATOM     22  N   UNL     1      44.994 130.236  22.675  1.00  0.00    -0.177 NA
ATOM     23  C   UNL     1      45.104 128.090  22.124  1.00  0.00    -0.000 A 
ATOM     24  N   UNL     1      44.631 129.513  23.729  1.00  0.00    -0.282 N 
ATOM     25  C   UNL     1      44.687 128.216  23.388  1.00  0.00     0.039 A 
ATOM     26  C   UNL     1      45.770 126.799  21.857  1.00  0.00     0.040 C 
ATOM     27  C   UNL     1      44.977 127.037  24.225  1.00  0.00     0.056 C 
ATOM     28  C   UNL     1      45.602 126.050  23.205  1.00  0.00     0.011 C 
ATOM     29  H   UNL     1      44.469 129.902  24.684  1.00  0.00     0.190 HD
ENDBRANCH  20  21
ENDBRANCH  19  20
ENDBRANCH   8  19
TORSDOF 6
ENDMDL
MODEL 6
REMARK VINA RESULT:      -5.5      5.434      7.368
REMARK SMILES [NH-]C(=O)c1ccc(-c2cc(F)cc(F)c2OCc2n[nH]c3c2CCC3)cc1
REMARK SMILES IDX 8 1 9 2 10 3 11 4 12 5 13 6 14 7 15 8 7 9 4 10 5 11 27 12
REMARK SMILES IDX 6 13 26 14 2 15 3 16 1 17 16 19 17 20 18 21 19 22 22 23
REMARK SMILES IDX 20 24 21 25 23 26 25 27 24 28
REMARK H PARENT 1 18 20 29
ROOT
ATOM      1  C   UNL     1      44.348 131.572  21.395  1.00  0.00     0.030 A 
ATOM      2  C   UNL     1      43.175 131.040  21.959  1.00  0.00     0.052 A 
ATOM      3  C   UNL     1      42.919 131.181  23.326  1.00  0.00     0.127 A 
ATOM      4  F   UNL     1      41.782 130.668  23.857  1.00  0.00    -0.207 F 
ATOM      5  C   UNL     1      43.831 131.849  24.144  1.00  0.00     0.082 A 
ATOM      6  C   UNL     1      45.004 132.376  23.600  1.00  0.00     0.168 A 
ATOM      7  F   UNL     1      45.875 133.035  24.405  1.00  0.00    -0.203 F 
ATOM      8  C   UNL     1      45.274 132.236  22.230  1.00  0.00     0.163 A 
ENDROOT
BRANCH   1   9
ATOM      9  C   UNL     1      44.628 131.367  19.954  1.00  0.00    -0.014 A 
ATOM     10  C   UNL     1      45.099 130.916  17.206  1.00  0.00    -0.001 A 
ATOM     11  C   UNL     1      44.021 131.717  17.625  1.00  0.00     0.011 A 
ATOM     12  C   UNL     1      45.947 130.358  18.178  1.00  0.00     0.011 A 
ATOM     13  C   UNL     1      43.792 131.941  18.985  1.00  0.00     0.009 A 
ATOM     14  C   UNL     1      45.716 130.583  19.537  1.00  0.00     0.009 A 
BRANCH  10  15
ATOM     15  C   UNL     1      45.335 130.663  15.765  1.00  0.00     0.080 C 
ATOM     16  O   UNL     1      46.249 129.876  15.399  1.00  0.00    -0.315 OA
BRANCH  15  17
ATOM     17  N   UNL     1      44.532 131.304  14.775  1.00  0.00    -0.664 NA
ATOM     18  H   UNL     1      44.699 131.136  13.758  1.00  0.00    -0.121 HD
ENDBRANCH  15  17
ENDBRANCH  10  15
ENDBRANCH   1   9
BRANCH   8  19
ATOM     19  O   UNL     1      46.463 132.744  21.699  1.00  0.00    -0.483 OA
BRANCH  19  20
ATOM     20  C   UNL     1      46.709 134.142  21.573  1.00  0.00     0.288 C 
BRANCH  20  21
ATOM     21  C   UNL     1      48.084 134.465  22.064  1.00  0.00     0.103 A 
ATOM     22  N   UNL     1      48.558 134.081  23.273  1.00  0.00    -0.177 NA
ATOM     23  C   UNL     1      48.963 135.382  21.523  1.00  0.00    -0.000 A 
ATOM     24  N   UNL     1      49.694 134.734  23.490  1.00  0.00    -0.282 N 
ATOM     25  C   UNL     1      49.942 135.511  22.424  1.00  0.00     0.039 A 
ATOM     26  C   UNL     1      48.805 136.570  20.661  1.00  0.00     0.040 C 
ATOM     27  C   UNL     1      50.647 136.804  22.348  1.00  0.00     0.056 C 
ATOM     28  C   UNL     1      49.975 137.477  21.122  1.00  0.00     0.011 C 
ATOM     29  H   UNL     1      50.212 134.732  24.396  1.00  0.00     0.190 HD
ENDBRANCH  20  21
ENDBRANCH  19  20
ENDBRANCH   8  19
TORSDOF 6
ENDMDL
MODEL 7
REMARK VINA RESULT:      -5.4      3.513      7.182
REMARK SMILES [NH-]C(=O)c1ccc(-c2cc(F)cc(F)c2OCc2n[nH]c3c2CCC3)cc1
REMARK SMILES IDX 8 1 9 2 10 3 11 4 12 5 13 6 14 7 15 8 7 9 4 10 5 11 27 12
REMARK SMILES IDX 6 13 26 14 2 15 3 16 1 17 16 19 17 20 18 21 19 22 22 23
REMARK SMILES IDX 20 24 21 25 23 26 25 27 24 28
REMARK H PARENT 1 18 20 29
ROOT
ATOM      1  C   UNL     1      43.851 131.521  19.672  1.00  0.00     0.030 A 
ATOM      2  C   UNL     1      42.821 132.477  19.645  1.00  0.00     0.052 A 
ATOM      3  C   UNL     1      42.058 132.730  20.788  1.00  0.00     0.127 A 
ATOM      4  F   UNL     1      41.070 133.658  20.751  1.00  0.00    -0.207 F 
ATOM      5  C   UNL     1      42.313 132.031  21.969  1.00  0.00     0.082 A 
ATOM      6  C   UNL     1      43.328 131.072  22.010  1.00  0.00     0.168 A 
ATOM      7  F   UNL     1      43.573 130.410  23.168  1.00  0.00    -0.203 F 
ATOM      8  C   UNL     1      44.096 130.806  20.865  1.00  0.00     0.163 A 
ENDROOT
BRANCH   1   9
ATOM      9  C   UNL     1      44.614 131.228  18.435  1.00  0.00    -0.014 A 
ATOM     10  C   UNL     1      46.137 130.705  16.115  1.00  0.00    -0.001 A 
ATOM     11  C   UNL     1      46.241 129.871  17.242  1.00  0.00     0.011 A 
ATOM     12  C   UNL     1      45.248 131.794  16.157  1.00  0.00     0.011 A 
ATOM     13  C   UNL     1      45.485 130.129  18.388  1.00  0.00     0.009 A 
ATOM     14  C   UNL     1      44.493 132.051  17.304  1.00  0.00     0.009 A 
BRANCH  10  15
ATOM     15  C   UNL     1      46.949 130.444  14.904  1.00  0.00     0.080 C 
ATOM     16  O   UNL     1      47.152 131.361  14.064  1.00  0.00    -0.315 OA
BRANCH  15  17
ATOM     17  N   UNL     1      47.513 129.153  14.674  1.00  0.00    -0.664 NA
ATOM     18  H   UNL     1      47.412 128.680  13.749  1.00  0.00    -0.121 HD
ENDBRANCH  15  17
ENDBRANCH  10  15
ENDBRANCH   1   9
BRANCH   8  19
ATOM     19  O   UNL     1      45.093 129.827  20.909  1.00  0.00    -0.483 OA
BRANCH  19  20
ATOM     20  C   UNL     1      45.539 129.243  22.130  1.00  0.00     0.288 C 
BRANCH  20  21
ATOM     21  C   UNL     1      44.943 127.881  22.292  1.00  0.00     0.103 A 
ATOM     22  N   UNL     1      43.764 127.648  22.918  1.00  0.00    -0.177 NA
ATOM     23  C   UNL     1      45.573 126.670  22.086  1.00  0.00    -0.000 A 
ATOM     24  N   UNL     1      43.656 126.338  23.105  1.00  0.00    -0.282 N 
ATOM     25  C   UNL     1      44.746 125.748  22.589  1.00  0.00     0.039 A 
ATOM     26  C   UNL     1      46.985 126.238  22.070  1.00  0.00     0.040 C 
ATOM     27  C   UNL     1      45.428 124.508  23.005  1.00  0.00     0.056 C 
ATOM     28  C   UNL     1      46.895 124.775  22.575  1.00  0.00     0.011 C 
ATOM     29  H   UNL     1      42.911 125.882  23.677  1.00  0.00     0.190 HD
ENDBRANCH  20  21
ENDBRANCH  19  20
ENDBRANCH   8  19
TORSDOF 6
ENDMDL
MODEL 8
REMARK VINA RESULT:      -5.2      3.654      7.298
REMARK SMILES [NH-]C(=O)c1ccc(-c2cc(F)cc(F)c2OCc2n[nH]c3c2CCC3)cc1
REMARK SMILES IDX 8 1 9 2 10 3 11 4 12 5 13 6 14 7 15 8 7 9 4 10 5 11 27 12
REMARK SMILES IDX 6 13 26 14 2 15 3 16 1 17 16 19 17 20 18 21 19 22 22 23
REMARK SMILES IDX 20 24 21 25 23 26 25 27 24 28
REMARK H PARENT 1 18 20 29
ROOT
ATOM      1  C   UNL     1      44.042 131.631  19.049  1.00  0.00     0.030 A 
ATOM      2  C   UNL     1      42.804 132.281  18.906  1.00  0.00     0.052 A 
ATOM      3  C   UNL     1      42.030 132.588  20.028  1.00  0.00     0.127 A 
ATOM      4  F   UNL     1      40.840 133.220  19.877  1.00  0.00    -0.207 F 
ATOM      5  C   UNL     1      42.481 132.247  21.304  1.00  0.00     0.082 A 
ATOM      6  C   UNL     1      43.705 131.593  21.463  1.00  0.00     0.168 A 
ATOM      7  F   UNL     1      44.136 131.280  22.710  1.00  0.00    -0.203 F 
ATOM      8  C   UNL     1      44.487 131.275  20.341  1.00  0.00     0.163 A 
ENDROOT
BRANCH   1   9
ATOM      9  C   UNL     1      44.823 131.266  17.844  1.00  0.00    -0.014 A 
ATOM     10  C   UNL     1      46.384 130.573  15.594  1.00  0.00    -0.001 A 
ATOM     11  C   UNL     1      46.052 129.606  16.559  1.00  0.00     0.011 A 
ATOM     12  C   UNL     1      45.912 131.888  15.760  1.00  0.00     0.011 A 
ATOM     13  C   UNL     1      45.277 129.950  17.670  1.00  0.00     0.009 A 
ATOM     14  C   UNL     1      45.137 132.229  16.872  1.00  0.00     0.009 A 
BRANCH  10  15
ATOM     15  C   UNL     1      47.220 130.217  14.423  1.00  0.00     0.080 C 
ATOM     16  O   UNL     1      47.430 131.060  13.511  1.00  0.00    -0.315 OA
BRANCH  15  17
ATOM     17  N   UNL     1      47.798 128.916  14.315  1.00  0.00    -0.664 NA
ATOM     18  H   UNL     1      48.777 128.737  14.628  1.00  0.00    -0.121 HD
ENDBRANCH  15  17
ENDBRANCH  10  15
ENDBRANCH   1   9
BRANCH   8  19
ATOM     19  O   UNL     1      45.699 130.598  20.508  1.00  0.00    -0.483 OA
BRANCH  19  20
ATOM     20  C   UNL     1      45.796 129.178  20.444  1.00  0.00     0.288 C 
BRANCH  20  21
ATOM     21  C   UNL     1      45.323 128.575  21.728  1.00  0.00     0.103 A 
ATOM     22  N   UNL     1      44.833 129.301  22.762  1.00  0.00    -0.177 NA
ATOM     23  C   UNL     1      45.537 127.284  22.167  1.00  0.00    -0.000 A 
ATOM     24  N   UNL     1      44.744 128.499  23.816  1.00  0.00    -0.282 N 
ATOM     25  C   UNL     1      45.159 127.276  23.449  1.00  0.00     0.039 A 
ATOM     26  C   UNL     1      46.536 126.244  21.848  1.00  0.00     0.040 C 
ATOM     27  C   UNL     1      45.818 126.228  24.251  1.00  0.00     0.056 C 
ATOM     28  C   UNL     1      46.655 125.471  23.187  1.00  0.00     0.011 C 
ATOM     29  H   UNL     1      44.520 128.818  24.784  1.00  0.00     0.190 HD
ENDBRANCH  20  21
ENDBRANCH  19  20
ENDBRANCH   8  19
TORSDOF 6
ENDMDL
MODEL 9
REMARK VINA RESULT:      -4.9      5.173      7.155
REMARK SMILES [NH-]C(=O)c1ccc(-c2cc(F)cc(F)c2OCc2n[nH]c3c2CCC3)cc1
REMARK SMILES IDX 8 1 9 2 10 3 11 4 12 5 13 6 14 7 15 8 7 9 4 10 5 11 27 12
REMARK SMILES IDX 6 13 26 14 2 15 3 16 1 17 16 19 17 20 18 21 19 22 22 23
REMARK SMILES IDX 20 24 21 25 23 26 25 27 24 28
REMARK H PARENT 1 18 20 29
ROOT
ATOM      1  C   UNL     1      44.461 131.376  21.481  1.00  0.00     0.030 A 
ATOM      2  C   UNL     1      43.494 130.517  22.033  1.00  0.00     0.052 A 
ATOM      3  C   UNL     1      43.158 130.603  23.386  1.00  0.00     0.127 A 
ATOM      4  F   UNL     1      42.220 129.773  23.905  1.00  0.00    -0.207 F 
ATOM      5  C   UNL     1      43.784 131.544  24.204  1.00  0.00     0.082 A 
ATOM      6  C   UNL     1      44.753 132.400  23.674  1.00  0.00     0.168 A 
ATOM      7  F   UNL     1      45.343 133.319  24.478  1.00  0.00    -0.203 F 
ATOM      8  C   UNL     1      45.102 132.317  22.316  1.00  0.00     0.163 A 
ENDROOT
BRANCH   1   9
ATOM      9  C   UNL     1      44.843 131.233  20.056  1.00  0.00    -0.014 A 
ATOM     10  C   UNL     1      45.501 130.912  17.328  1.00  0.00    -0.001 A 
ATOM     11  C   UNL     1      44.508 131.827  17.722  1.00  0.00     0.011 A 
ATOM     12  C   UNL     1      46.172 130.172  18.318  1.00  0.00     0.011 A 
ATOM     13  C   UNL     1      44.186 131.986  19.072  1.00  0.00     0.009 A 
ATOM     14  C   UNL     1      45.848 130.333  19.668  1.00  0.00     0.009 A 
BRANCH  10  15
ATOM     15  C   UNL     1      45.834 130.727  15.896  1.00  0.00     0.080 C 
ATOM     16  O   UNL     1      45.189 131.346  15.008  1.00  0.00    -0.315 OA
BRANCH  15  17
ATOM     17  N   UNL     1      46.889 129.849  15.505  1.00  0.00    -0.664 NA
ATOM     18  H   UNL     1      47.380 129.254  16.207  1.00  0.00    -0.121 HD
ENDBRANCH  15  17
ENDBRANCH  10  15
ENDBRANCH   1   9
BRANCH   8  19
ATOM     19  O   UNL     1      46.091 133.160  21.800  1.00  0.00    -0.483 OA
BRANCH  19  20
ATOM     20  C   UNL     1      47.477 132.836  21.856  1.00  0.00     0.288 C 
BRANCH  20  21
ATOM     21  C   UNL     1      48.271 134.051  22.216  1.00  0.00     0.103 A 
ATOM     22  N   UNL     1      48.283 135.186  21.476  1.00  0.00    -0.177 NA
ATOM     23  C   UNL     1      49.279 134.134  23.156  1.00  0.00    -0.000 A 
ATOM     24  N   UNL     1      49.264 135.957  21.930  1.00  0.00    -0.282 N 
ATOM     25  C   UNL     1      49.856 135.323  22.955  1.00  0.00     0.039 A 
ATOM     26  C   UNL     1      50.180 133.148  23.784  1.00  0.00     0.040 C 
ATOM     27  C   UNL     1      51.257 135.383  23.412  1.00  0.00     0.056 C 
ATOM     28  C   UNL     1      51.457 133.986  24.056  1.00  0.00     0.011 C 
ATOM     29  H   UNL     1      49.588 136.835  21.467  1.00  0.00     0.190 HD
ENDBRANCH  20  21
ENDBRANCH  19  20
ENDBRANCH   8  19
TORSDOF 6
ENDMDL


