REMARK SMILES Cc1ccc(NC(=O)[N-]c2c(F)cc(F)cc2F)c(-c2ccc3c(c2)[N-]C(=O)C3)c1
REMARK SMILES IDX 6 1 7 2 8 3 5 5 2 6 3 7 30 8 4 9 19 10 1 11 20 12 21 13
REMARK SMILES IDX 25 14 22 15 24 16 23 17 26 18 29 19 27 20 28 21 9 22 10 23
REMARK SMILES IDX 11 24 17 25 13 26 16 27 14 28 12 29 18 30 15 31
REMARK H PARENT 6 4
ROOT
ATOM      1  N   UNL     1      -0.935  -2.094  -1.076  1.00  0.00    -0.423 N 
ATOM      2  C   UNL     1       0.427  -2.068  -0.628  1.00  0.00     0.160 C 
ATOM      3  O   UNL     1       0.986  -3.144  -0.285  1.00  0.00    -0.298 OA
ATOM      4  H   UNL     1      -1.363  -3.028  -1.271  1.00  0.00     0.029 HD
ENDROOT
BRANCH   1   5
ATOM      5  C   UNL     1      -1.651  -0.922  -1.500  1.00  0.00    -0.033 A 
ATOM      6  C   UNL     1      -3.033   1.341  -2.454  1.00  0.00    -0.051 A 
ATOM      7  C   UNL     1      -2.913   0.197  -3.252  1.00  0.00     0.004 A 
ATOM      8  C   UNL     1      -2.459   1.354  -1.175  1.00  0.00     0.012 A 
ATOM      9  C   UNL     1      -2.239  -0.927  -2.773  1.00  0.00     0.004 A 
ATOM     10  C   UNL     1      -1.787   0.224  -0.675  1.00  0.00    -0.015 A 
ATOM     11  C   UNL     1      -3.720   2.564  -2.985  1.00  0.00     0.044 C 
BRANCH  10  12
ATOM     12  C   UNL     1      -1.271   0.262   0.713  1.00  0.00    -0.019 A 
ATOM     13  C   UNL     1      -1.608  -0.759   1.634  1.00  0.00     0.009 A 
ATOM     14  C   UNL     1      -0.421   1.313   1.120  1.00  0.00    -0.007 A 
ATOM     15  C   UNL     1      -1.080  -0.750   2.935  1.00  0.00     0.003 A 
ATOM     16  C   UNL     1       0.096   1.293   2.413  1.00  0.00    -0.130 A 
ATOM     17  C   UNL     1      -0.222   0.287   3.298  1.00  0.00    -0.057 A 
ATOM     18  N   UNL     1       1.018   2.228   2.949  1.00  0.00    -0.626 NA
ATOM     19  C   UNL     1       0.506   0.472   4.583  1.00  0.00     0.089 C 
ATOM     20  C   UNL     1       1.263   1.724   4.261  1.00  0.00     0.059 C 
ATOM     21  O   UNL     1       2.051   2.289   5.064  1.00  0.00    -0.320 OA
ENDBRANCH  10  12
ENDBRANCH   1   5
BRANCH   2  22
ATOM     22  N   UNL     1       1.171  -0.843  -0.641  1.00  0.00    -0.396 NA
BRANCH  22  23
ATOM     23  C   UNL     1       2.304  -0.516   0.178  1.00  0.00     0.034 A 
ATOM     24  C   UNL     1       2.507  -1.090   1.452  1.00  0.00     0.132 A 
ATOM     25  C   UNL     1       3.174   0.492  -0.263  1.00  0.00     0.132 A 
ATOM     26  C   UNL     1       3.585  -0.677   2.243  1.00  0.00     0.079 A 
ATOM     27  C   UNL     1       4.251   0.896   0.531  1.00  0.00     0.079 A 
ATOM     28  C   UNL     1       4.458   0.310   1.782  1.00  0.00     0.129 A 
ATOM     29  F   UNL     1       1.640  -1.995   1.968  1.00  0.00    -0.207 F 
ATOM     30  F   UNL     1       2.974   1.085  -1.467  1.00  0.00    -0.207 F 
ATOM     31  F   UNL     1       5.496   0.712   2.556  1.00  0.00    -0.207 F 
ENDBRANCH  22  23
ENDBRANCH   2  22
TORSDOF 4


