REMARK SMILES CC(=O)c1ccc(-c2ccc([O-])c(C(=O)[O-])c2)c2c[nH]nc12
REMARK SMILES IDX 4 1 5 2 6 3 7 4 18 5 19 6 20 7 21 8 22 9 2 11 1 12 3 13 8 14
REMARK SMILES IDX 9 15 17 16 10 17 13 18 11 19 12 20 14 21 15 22 16 23
REMARK H PARENT 20 10
ROOT
ATOM      1  C   UNL     1       0.910  -2.914  -0.514  1.00  0.00     0.045 A 
ATOM      2  C   UNL     1       1.210  -1.814  -1.352  1.00  0.00     0.015 A 
ATOM      3  C   UNL     1       0.834  -0.501  -0.999  1.00  0.00     0.010 A 
ATOM      4  C   UNL     1       0.149  -0.242   0.206  1.00  0.00    -0.007 A 
ATOM      5  C   UNL     1      -0.146  -1.346   1.016  1.00  0.00     0.028 A 
ATOM      6  C   UNL     1      -0.840  -1.464   2.201  1.00  0.00     0.114 A 
ATOM      7  N   UNL     1      -0.863  -2.773   2.529  1.00  0.00    -0.284 N 
ATOM      8  N   UNL     1      -0.230  -3.489   1.609  1.00  0.00    -0.175 NA
ATOM      9  C   UNL     1       0.215  -2.627   0.675  1.00  0.00     0.103 A 
ATOM     10  H   UNL     1      -1.320  -3.181   3.374  1.00  0.00     0.189 HD
ENDROOT
BRANCH   1  11
ATOM     11  C   UNL     1       1.317  -4.290  -0.915  1.00  0.00     0.162 C 
ATOM     12  C   UNL     1       1.195  -5.468   0.004  1.00  0.00     0.093 C 
ATOM     13  O   UNL     1       1.780  -4.486  -2.072  1.00  0.00    -0.294 OA
ENDBRANCH   1  11
BRANCH   4  14
ATOM     14  C   UNL     1      -0.236   1.139   0.578  1.00  0.00    -0.017 A 
ATOM     15  C   UNL     1       0.058   1.641   1.854  1.00  0.00     0.008 A 
ATOM     16  C   UNL     1      -0.878   1.970  -0.355  1.00  0.00     0.018 A 
ATOM     17  C   UNL     1      -0.296   2.946   2.196  1.00  0.00    -0.007 A 
ATOM     18  C   UNL     1      -1.242   3.291  -0.022  1.00  0.00    -0.010 A 
ATOM     19  C   UNL     1      -0.944   3.771   1.272  1.00  0.00    -0.100 A 
ATOM     20  O   UNL     1      -1.279   5.065   1.657  1.00  0.00    -0.872 OA
BRANCH  18  21
ATOM     21  C   UNL     1      -1.927   4.140  -1.031  1.00  0.00     0.071 C 
ATOM     22  O   UNL     1      -2.179   3.687  -2.179  1.00  0.00    -0.545 OA
ATOM     23  O   UNL     1      -2.303   5.445  -0.734  1.00  0.00    -0.545 OA
ENDBRANCH  18  21
ENDBRANCH   4  14
TORSDOF 3


