MODEL 1
REMARK VINA RESULT:      -9.7      0.000      0.000
REMARK SMILES CC(=O)c1ccc(-c2nccc(C)c2F)c2c[nH]nc12
REMARK SMILES IDX 4 1 5 2 6 3 7 4 16 5 17 6 18 7 19 8 20 9 2 11 1 12 3 13 8 14
REMARK SMILES IDX 9 15 14 16 10 17 12 18 11 19 15 20 13 21
REMARK H PARENT 18 10
ROOT
ATOM      1  C   UNL     1      44.298 131.252  21.081  1.00  0.00     0.045 A 
ATOM      2  C   UNL     1      45.457 130.626  20.560  1.00  0.00     0.015 A 
ATOM      3  C   UNL     1      45.681 130.549  19.169  1.00  0.00     0.012 A 
ATOM      4  C   UNL     1      44.756 131.091  18.252  1.00  0.00     0.014 A 
ATOM      5  C   UNL     1      43.625 131.715  18.792  1.00  0.00     0.030 A 
ATOM      6  C   UNL     1      42.533 132.320  18.208  1.00  0.00     0.114 A 
ATOM      7  N   UNL     1      41.717 132.733  19.201  1.00  0.00    -0.284 N 
ATOM      8  N   UNL     1      42.233 132.417  20.382  1.00  0.00    -0.175 NA
ATOM      9  C   UNL     1      43.401 131.789  20.143  1.00  0.00     0.103 A 
ATOM     10  H   UNL     1      40.806 133.226  19.076  1.00  0.00     0.189 HD
ENDROOT
BRANCH   1  11
ATOM     11  C   UNL     1      44.047 131.338  22.546  1.00  0.00     0.162 C 
ATOM     12  C   UNL     1      43.067 130.432  23.231  1.00  0.00     0.093 C 
ATOM     13  O   UNL     1      44.666 132.185  23.244  1.00  0.00    -0.294 OA
ENDBRANCH   1  11
BRANCH   4  14
ATOM     14  C   UNL     1      44.996 131.040  16.792  1.00  0.00     0.107 A 
ATOM     15  N   UNL     1      44.119 131.655  15.952  1.00  0.00    -0.253 NA
ATOM     16  C   UNL     1      46.110 130.367  16.253  1.00  0.00     0.152 A 
ATOM     17  C   UNL     1      44.281 131.649  14.604  1.00  0.00     0.112 A 
ATOM     18  C   UNL     1      46.307 130.359  14.862  1.00  0.00    -0.012 A 
ATOM     19  C   UNL     1      45.376 131.000  14.034  1.00  0.00     0.026 A 
ATOM     20  F   UNL     1      46.969 129.693  17.062  1.00  0.00    -0.204 F 
ATOM     21  C   UNL     1      47.469 129.620  14.266  1.00  0.00     0.047 C 
ENDBRANCH   4  14
TORSDOF 2
ENDMDL
MODEL 2
REMARK VINA RESULT:      -8.8      2.114      2.877
REMARK SMILES CC(=O)c1ccc(-c2nccc(C)c2F)c2c[nH]nc12
REMARK SMILES IDX 4 1 5 2 6 3 7 4 16 5 17 6 18 7 19 8 20 9 2 11 1 12 3 13 8 14
REMARK SMILES IDX 9 15 14 16 10 17 12 18 11 19 15 20 13 21
REMARK H PARENT 18 10
ROOT
ATOM      1  C   UNL     1      43.130 131.994  19.640  1.00  0.00     0.045 A 
ATOM      2  C   UNL     1      42.613 132.035  18.322  1.00  0.00     0.015 A 
ATOM      3  C   UNL     1      43.373 131.574  17.226  1.00  0.00     0.012 A 
ATOM      4  C   UNL     1      44.674 131.060  17.409  1.00  0.00     0.014 A 
ATOM      5  C   UNL     1      45.158 131.020  18.722  1.00  0.00     0.030 A 
ATOM      6  C   UNL     1      46.361 130.610  19.254  1.00  0.00     0.114 A 
ATOM      7  N   UNL     1      46.308 130.814  20.587  1.00  0.00    -0.284 N 
ATOM      8  N   UNL     1      45.136 131.336  20.926  1.00  0.00    -0.175 NA
ATOM      9  C   UNL     1      44.424 131.469  19.790  1.00  0.00     0.103 A 
ATOM     10  H   UNL     1      47.071 130.602  21.266  1.00  0.00     0.189 HD
ENDROOT
BRANCH   1  11
ATOM     11  C   UNL     1      42.341 132.480  20.806  1.00  0.00     0.162 C 
ATOM     12  C   UNL     1      42.602 131.982  22.196  1.00  0.00     0.093 C 
ATOM     13  O   UNL     1      41.428 133.333  20.638  1.00  0.00    -0.294 OA
ENDBRANCH   1  11
BRANCH   4  14
ATOM     14  C   UNL     1      45.468 130.549  16.269  1.00  0.00     0.107 A 
ATOM     15  N   UNL     1      45.537 129.206  16.055  1.00  0.00    -0.253 NA
ATOM     16  C   UNL     1      46.155 131.421  15.401  1.00  0.00     0.152 A 
ATOM     17  C   UNL     1      46.244 128.672  15.027  1.00  0.00     0.112 A 
ATOM     18  C   UNL     1      46.882 130.892  14.321  1.00  0.00    -0.012 A 
ATOM     19  C   UNL     1      46.931 129.503  14.143  1.00  0.00     0.026 A 
ATOM     20  F   UNL     1      46.154 132.761  15.624  1.00  0.00    -0.204 F 
ATOM     21  C   UNL     1      47.647 131.802  13.405  1.00  0.00     0.047 C 
ENDBRANCH   4  14
TORSDOF 2
ENDMDL
MODEL 3
REMARK VINA RESULT:      -8.5      2.556      6.160
REMARK SMILES CC(=O)c1ccc(-c2nccc(C)c2F)c2c[nH]nc12
REMARK SMILES IDX 4 1 5 2 6 3 7 4 16 5 17 6 18 7 19 8 20 9 2 11 1 12 3 13 8 14
REMARK SMILES IDX 9 15 14 16 10 17 12 18 11 19 15 20 13 21
REMARK H PARENT 18 10
ROOT
ATOM      1  C   UNL     1      44.709 131.392  17.568  1.00  0.00     0.045 A 
ATOM      2  C   UNL     1      45.745 130.814  18.341  1.00  0.00     0.015 A 
ATOM      3  C   UNL     1      45.616 130.663  19.738  1.00  0.00     0.012 A 
ATOM      4  C   UNL     1      44.450 131.086  20.410  1.00  0.00     0.014 A 
ATOM      5  C   UNL     1      43.435 131.643  19.623  1.00  0.00     0.030 A 
ATOM      6  C   UNL     1      42.200 132.168  19.938  1.00  0.00     0.114 A 
ATOM      7  N   UNL     1      41.636 132.598  18.789  1.00  0.00    -0.284 N 
ATOM      8  N   UNL     1      42.450 132.377  17.765  1.00  0.00    -0.175 NA
ATOM      9  C   UNL     1      43.558 131.795  18.265  1.00  0.00     0.103 A 
ATOM     10  H   UNL     1      40.698 133.046  18.703  1.00  0.00     0.189 HD
ENDROOT
BRANCH   1  11
ATOM     11  C   UNL     1      44.833 131.561  16.094  1.00  0.00     0.162 C 
ATOM     12  C   UNL     1      46.136 131.929  15.450  1.00  0.00     0.093 C 
ATOM     13  O   UNL     1      43.827 131.392  15.353  1.00  0.00    -0.294 OA
ENDBRANCH   1  11
BRANCH   4  14
ATOM     14  C   UNL     1      44.294 130.906  21.871  1.00  0.00     0.107 A 
ATOM     15  N   UNL     1      43.872 131.956  22.628  1.00  0.00    -0.253 NA
ATOM     16  C   UNL     1      44.573 129.675  22.495  1.00  0.00     0.152 A 
ATOM     17  C   UNL     1      43.705 131.859  23.972  1.00  0.00     0.112 A 
ATOM     18  C   UNL     1      44.393 129.545  23.882  1.00  0.00    -0.012 A 
ATOM     19  C   UNL     1      43.964 130.653  24.624  1.00  0.00     0.026 A 
ATOM     20  F   UNL     1      45.052 128.627  21.774  1.00  0.00    -0.204 F 
ATOM     21  C   UNL     1      44.716 128.251  24.570  1.00  0.00     0.047 C 
ENDBRANCH   4  14
TORSDOF 2
ENDMDL
MODEL 4
REMARK VINA RESULT:      -8.5      2.708      6.146
REMARK SMILES CC(=O)c1ccc(-c2nccc(C)c2F)c2c[nH]nc12
REMARK SMILES IDX 4 1 5 2 6 3 7 4 16 5 17 6 18 7 19 8 20 9 2 11 1 12 3 13 8 14
REMARK SMILES IDX 9 15 14 16 10 17 12 18 11 19 15 20 13 21
REMARK H PARENT 18 10
ROOT
ATOM      1  C   UNL     1      46.439 130.359  15.237  1.00  0.00     0.045 A 
ATOM      2  C   UNL     1      46.917 130.139  16.553  1.00  0.00     0.015 A 
ATOM      3  C   UNL     1      46.147 130.503  17.678  1.00  0.00     0.012 A 
ATOM      4  C   UNL     1      44.877 131.099  17.529  1.00  0.00     0.014 A 
ATOM      5  C   UNL     1      44.423 131.295  16.220  1.00  0.00     0.030 A 
ATOM      6  C   UNL     1      43.269 131.854  15.713  1.00  0.00     0.114 A 
ATOM      7  N   UNL     1      43.355 131.816  14.366  1.00  0.00    -0.284 N 
ATOM      8  N   UNL     1      44.505 131.267  13.994  1.00  0.00    -0.175 NA
ATOM      9  C   UNL     1      45.168 130.947  15.122  1.00  0.00     0.103 A 
ATOM     10  H   UNL     1      42.634 132.168  13.700  1.00  0.00     0.189 HD
ENDROOT
BRANCH   1  11
ATOM     11  C   UNL     1      47.241 129.984  14.040  1.00  0.00     0.162 C 
ATOM     12  C   UNL     1      47.549 130.975  12.957  1.00  0.00     0.093 C 
ATOM     13  O   UNL     1      47.683 128.810  13.920  1.00  0.00    -0.294 OA
ENDBRANCH   1  11
BRANCH   4  14
ATOM     14  C   UNL     1      44.051 131.458  18.704  1.00  0.00     0.107 A 
ATOM     15  N   UNL     1      42.833 132.035  18.508  1.00  0.00    -0.253 NA
ATOM     16  C   UNL     1      44.497 131.219  20.018  1.00  0.00     0.152 A 
ATOM     17  C   UNL     1      42.024 132.386  19.541  1.00  0.00     0.112 A 
ATOM     18  C   UNL     1      43.671 131.560  21.102  1.00  0.00    -0.012 A 
ATOM     19  C   UNL     1      42.428 132.157  20.856  1.00  0.00     0.026 A 
ATOM     20  F   UNL     1      45.732 130.701  20.245  1.00  0.00    -0.204 F 
ATOM     21  C   UNL     1      44.142 131.343  22.510  1.00  0.00     0.047 C 
ENDBRANCH   4  14
TORSDOF 2
ENDMDL
MODEL 5
REMARK VINA RESULT:      -8.3      3.119      6.489
REMARK SMILES CC(=O)c1ccc(-c2nccc(C)c2F)c2c[nH]nc12
REMARK SMILES IDX 4 1 5 2 6 3 7 4 16 5 17 6 18 7 19 8 20 9 2 11 1 12 3 13 8 14
REMARK SMILES IDX 9 15 14 16 10 17 12 18 11 19 15 20 13 21
REMARK H PARENT 18 10
ROOT
ATOM      1  C   UNL     1      46.801 130.963  14.415  1.00  0.00     0.045 A 
ATOM      2  C   UNL     1      46.627 132.260  14.958  1.00  0.00     0.015 A 
ATOM      3  C   UNL     1      45.776 132.480  16.062  1.00  0.00     0.012 A 
ATOM      4  C   UNL     1      45.070 131.414  16.659  1.00  0.00     0.014 A 
ATOM      5  C   UNL     1      45.268 130.141  16.111  1.00  0.00     0.030 A 
ATOM      6  C   UNL     1      44.739 128.906  16.421  1.00  0.00     0.114 A 
ATOM      7  N   UNL     1      45.255 128.012  15.551  1.00  0.00    -0.284 N 
ATOM      8  N   UNL     1      46.078 128.617  14.704  1.00  0.00    -0.175 NA
ATOM      9  C   UNL     1      46.091 129.923  15.036  1.00  0.00     0.103 A 
ATOM     10  H   UNL     1      45.043 126.991  15.530  1.00  0.00     0.189 HD
ENDROOT
BRANCH   1  11
ATOM     11  C   UNL     1      47.692 130.717  13.248  1.00  0.00     0.162 C 
ATOM     12  C   UNL     1      48.726 129.630  13.262  1.00  0.00     0.093 C 
ATOM     13  O   UNL     1      47.587 131.429  12.212  1.00  0.00    -0.294 OA
ENDBRANCH   1  11
BRANCH   4  14
ATOM     14  C   UNL     1      44.196 131.630  17.835  1.00  0.00     0.107 A 
ATOM     15  N   UNL     1      42.901 132.002  17.641  1.00  0.00    -0.253 NA
ATOM     16  C   UNL     1      44.676 131.461  19.148  1.00  0.00     0.152 A 
ATOM     17  C   UNL     1      42.046 132.213  18.675  1.00  0.00     0.112 A 
ATOM     18  C   UNL     1      43.806 131.660  20.234  1.00  0.00    -0.012 A 
ATOM     19  C   UNL     1      42.482 132.048  19.989  1.00  0.00     0.026 A 
ATOM     20  F   UNL     1      45.979 131.149  19.374  1.00  0.00    -0.204 F 
ATOM     21  C   UNL     1      44.306 131.517  21.641  1.00  0.00     0.047 C 
ENDBRANCH   4  14
TORSDOF 2
ENDMDL
MODEL 6
REMARK VINA RESULT:      -8.1      1.494      1.746
REMARK SMILES CC(=O)c1ccc(-c2nccc(C)c2F)c2c[nH]nc12
REMARK SMILES IDX 4 1 5 2 6 3 7 4 16 5 17 6 18 7 19 8 20 9 2 11 1 12 3 13 8 14
REMARK SMILES IDX 9 15 14 16 10 17 12 18 11 19 15 20 13 21
REMARK H PARENT 18 10
ROOT
ATOM      1  C   UNL     1      43.805 131.631  20.683  1.00  0.00     0.045 A 
ATOM      2  C   UNL     1      45.042 130.944  20.610  1.00  0.00     0.015 A 
ATOM      3  C   UNL     1      45.590 130.561  19.367  1.00  0.00     0.012 A 
ATOM      4  C   UNL     1      44.922 130.847  18.158  1.00  0.00     0.014 A 
ATOM      5  C   UNL     1      43.707 131.536  18.257  1.00  0.00     0.030 A 
ATOM      6  C   UNL     1      42.799 131.953  17.308  1.00  0.00     0.114 A 
ATOM      7  N   UNL     1      41.778 132.552  17.957  1.00  0.00    -0.284 N 
ATOM      8  N   UNL     1      41.990 132.531  19.267  1.00  0.00    -0.175 NA
ATOM      9  C   UNL     1      43.169 131.908  19.462  1.00  0.00     0.103 A 
ATOM     10  H   UNL     1      40.934 132.971  17.509  1.00  0.00     0.189 HD
ENDROOT
BRANCH   1  11
ATOM     11  C   UNL     1      43.212 132.038  21.987  1.00  0.00     0.162 C 
ATOM     12  C   UNL     1      43.928 131.805  23.284  1.00  0.00     0.093 C 
ATOM     13  O   UNL     1      42.083 132.598  22.019  1.00  0.00    -0.294 OA
ENDBRANCH   1  11
BRANCH   4  14
ATOM     14  C   UNL     1      45.502 130.473  16.848  1.00  0.00     0.107 A 
ATOM     15  N   UNL     1      45.512 129.163  16.475  1.00  0.00    -0.253 NA
ATOM     16  C   UNL     1      46.046 131.441  15.982  1.00  0.00     0.152 A 
ATOM     17  C   UNL     1      46.026 128.753  15.288  1.00  0.00     0.112 A 
ATOM     18  C   UNL     1      46.571 131.041  14.741  1.00  0.00    -0.012 A 
ATOM     19  C   UNL     1      46.566 129.682  14.399  1.00  0.00     0.026 A 
ATOM     20  F   UNL     1      46.106 132.746  16.352  1.00  0.00    -0.204 F 
ATOM     21  C   UNL     1      47.184 132.052  13.817  1.00  0.00     0.047 C 
ENDBRANCH   4  14
TORSDOF 2
ENDMDL
MODEL 7
REMARK VINA RESULT:      -7.6      1.349      1.881
REMARK SMILES CC(=O)c1ccc(-c2nccc(C)c2F)c2c[nH]nc12
REMARK SMILES IDX 4 1 5 2 6 3 7 4 16 5 17 6 18 7 19 8 20 9 2 11 1 12 3 13 8 14
REMARK SMILES IDX 9 15 14 16 10 17 12 18 11 19 15 20 13 21
REMARK H PARENT 18 10
ROOT
ATOM      1  C   UNL     1      44.265 131.224  21.461  1.00  0.00     0.045 A 
ATOM      2  C   UNL     1      45.414 130.594  20.924  1.00  0.00     0.015 A 
ATOM      3  C   UNL     1      45.652 130.574  19.533  1.00  0.00     0.012 A 
ATOM      4  C   UNL     1      44.750 131.179  18.633  1.00  0.00     0.014 A 
ATOM      5  C   UNL     1      43.628 131.805  19.189  1.00  0.00     0.030 A 
ATOM      6  C   UNL     1      42.557 132.463  18.623  1.00  0.00     0.114 A 
ATOM      7  N   UNL     1      41.741 132.851  19.625  1.00  0.00    -0.284 N 
ATOM      8  N   UNL     1      42.236 132.469  20.796  1.00  0.00    -0.175 NA
ATOM      9  C   UNL     1      43.391 131.825  20.540  1.00  0.00     0.103 A 
ATOM     10  H   UNL     1      40.843 133.371  19.513  1.00  0.00     0.189 HD
ENDROOT
BRANCH   1  11
ATOM     11  C   UNL     1      43.999 131.250  22.926  1.00  0.00     0.162 C 
ATOM     12  C   UNL     1      43.116 130.232  23.585  1.00  0.00     0.093 C 
ATOM     13  O   UNL     1      44.524 132.141  23.647  1.00  0.00    -0.294 OA
ENDBRANCH   1  11
BRANCH   4  14
ATOM     14  C   UNL     1      45.004 131.187  17.175  1.00  0.00     0.107 A 
ATOM     15  N   UNL     1      46.265 130.950  16.719  1.00  0.00    -0.253 NA
ATOM     16  C   UNL     1      43.972 131.436  16.249  1.00  0.00     0.152 A 
ATOM     17  C   UNL     1      46.567 130.939  15.395  1.00  0.00     0.112 A 
ATOM     18  C   UNL     1      44.257 131.416  14.873  1.00  0.00    -0.012 A 
ATOM     19  C   UNL     1      45.570 131.174  14.448  1.00  0.00     0.026 A 
ATOM     20  F   UNL     1      42.718 131.736  16.676  1.00  0.00    -0.204 F 
ATOM     21  C   UNL     1      43.179 131.711  13.872  1.00  0.00     0.047 C 
ENDBRANCH   4  14
TORSDOF 2
ENDMDL
MODEL 8
REMARK VINA RESULT:      -7.5      2.634      6.338
REMARK SMILES CC(=O)c1ccc(-c2nccc(C)c2F)c2c[nH]nc12
REMARK SMILES IDX 4 1 5 2 6 3 7 4 16 5 17 6 18 7 19 8 20 9 2 11 1 12 3 13 8 14
REMARK SMILES IDX 9 15 14 16 10 17 12 18 11 19 15 20 13 21
REMARK H PARENT 18 10
ROOT
ATOM      1  C   UNL     1      44.915 131.173  17.622  1.00  0.00     0.045 A 
ATOM      2  C   UNL     1      45.865 130.723  18.572  1.00  0.00     0.015 A 
ATOM      3  C   UNL     1      45.600 130.790  19.956  1.00  0.00     0.012 A 
ATOM      4  C   UNL     1      44.380 131.312  20.439  1.00  0.00     0.014 A 
ATOM      5  C   UNL     1      43.454 131.739  19.480  1.00  0.00     0.030 A 
ATOM      6  C   UNL     1      42.202 132.305  19.589  1.00  0.00     0.114 A 
ATOM      7  N   UNL     1      41.756 132.550  18.338  1.00  0.00    -0.284 N 
ATOM      8  N   UNL     1      42.662 132.174  17.445  1.00  0.00    -0.175 NA
ATOM      9  C   UNL     1      43.708 131.678  18.133  1.00  0.00     0.103 A 
ATOM     10  H   UNL     1      40.837 132.979  18.093  1.00  0.00     0.189 HD
ENDROOT
BRANCH   1  11
ATOM     11  C   UNL     1      45.182 131.111  16.159  1.00  0.00     0.162 C 
ATOM     12  C   UNL     1      44.862 129.889  15.351  1.00  0.00     0.093 C 
ATOM     13  O   UNL     1      45.687 132.103  15.567  1.00  0.00    -0.294 OA
ENDBRANCH   1  11
BRANCH   4  14
ATOM     14  C   UNL     1      44.082 131.361  21.888  1.00  0.00     0.107 A 
ATOM     15  N   UNL     1      44.788 132.212  22.683  1.00  0.00    -0.253 NA
ATOM     16  C   UNL     1      43.086 130.548  22.462  1.00  0.00     0.152 A 
ATOM     17  C   UNL     1      44.563 132.309  24.018  1.00  0.00     0.112 A 
ATOM     18  C   UNL     1      42.826 130.641  23.840  1.00  0.00    -0.012 A 
ATOM     19  C   UNL     1      43.580 131.525  24.622  1.00  0.00     0.026 A 
ATOM     20  F   UNL     1      42.407 129.647  21.705  1.00  0.00    -0.204 F 
ATOM     21  C   UNL     1      41.791 129.760  24.476  1.00  0.00     0.047 C 
ENDBRANCH   4  14
TORSDOF 2
ENDMDL
MODEL 9
REMARK VINA RESULT:      -7.1      2.642      6.204
REMARK SMILES CC(=O)c1ccc(-c2nccc(C)c2F)c2c[nH]nc12
REMARK SMILES IDX 4 1 5 2 6 3 7 4 16 5 17 6 18 7 19 8 20 9 2 11 1 12 3 13 8 14
REMARK SMILES IDX 9 15 14 16 10 17 12 18 11 19 15 20 13 21
REMARK H PARENT 18 10
ROOT
ATOM      1  C   UNL     1      44.891 131.174  17.102  1.00  0.00     0.045 A 
ATOM      2  C   UNL     1      45.836 130.674  18.031  1.00  0.00     0.015 A 
ATOM      3  C   UNL     1      45.572 130.685  19.417  1.00  0.00     0.012 A 
ATOM      4  C   UNL     1      44.357 131.196  19.922  1.00  0.00     0.014 A 
ATOM      5  C   UNL     1      43.435 131.673  18.983  1.00  0.00     0.030 A 
ATOM      6  C   UNL     1      42.188 132.245  19.116  1.00  0.00     0.114 A 
ATOM      7  N   UNL     1      41.745 132.548  17.877  1.00  0.00    -0.284 N 
ATOM      8  N   UNL     1      42.648 132.203  16.968  1.00  0.00    -0.175 NA
ATOM      9  C   UNL     1      43.689 131.668  17.635  1.00  0.00     0.103 A 
ATOM     10  H   UNL     1      40.830 132.996  17.651  1.00  0.00     0.189 HD
ENDROOT
BRANCH   1  11
ATOM     11  C   UNL     1      45.158 131.173  15.637  1.00  0.00     0.162 C 
ATOM     12  C   UNL     1      46.475 131.621  15.076  1.00  0.00     0.093 C 
ATOM     13  O   UNL     1      44.267 130.785  14.834  1.00  0.00    -0.294 OA
ENDBRANCH   1  11
BRANCH   4  14
ATOM     14  C   UNL     1      44.059 131.186  21.372  1.00  0.00     0.107 A 
ATOM     15  N   UNL     1      43.058 130.389  21.840  1.00  0.00    -0.253 NA
ATOM     16  C   UNL     1      44.787 131.982  22.278  1.00  0.00     0.152 A 
ATOM     17  C   UNL     1      42.736 130.330  23.157  1.00  0.00     0.112 A 
ATOM     18  C   UNL     1      44.481 131.927  23.648  1.00  0.00    -0.012 A 
ATOM     19  C   UNL     1      43.439 131.098  24.085  1.00  0.00     0.026 A 
ATOM     20  F   UNL     1      45.750 132.831  21.833  1.00  0.00    -0.204 F 
ATOM     21  C   UNL     1      45.223 132.791  24.625  1.00  0.00     0.047 C 
ENDBRANCH   4  14
TORSDOF 2
ENDMDL


