MODEL 1
REMARK VINA RESULT:     -10.4      0.000      0.000
REMARK SMILES Cc1cc(Cl)ccc1C(=O)[N-][C@H]1CC12CCC2
REMARK SMILES IDX 9 1 10 2 8 3 2 4 3 5 4 6 7 7 6 8 1 9 5 10 11 11 12 12 13 13
REMARK SMILES IDX 14 14 15 15 17 16 16 17
REMARK H PARENT
ROOT
ATOM      1  C   UNL     1      44.440 131.511  17.361  1.00  0.00     0.082 C 
ATOM      2  O   UNL     1      43.411 131.680  16.650  1.00  0.00    -0.315 OA
ENDROOT
BRANCH   1   3
ATOM      3  C   UNL     1      44.313 131.475  18.841  1.00  0.00     0.002 A 
ATOM      4  C   UNL     1      43.120 131.838  19.526  1.00  0.00    -0.040 A 
ATOM      5  C   UNL     1      43.069 131.728  20.927  1.00  0.00     0.024 A 
ATOM      6  C   UNL     1      44.184 131.301  21.651  1.00  0.00     0.041 A 
ATOM      7  C   UNL     1      45.429 131.062  19.594  1.00  0.00     0.012 A 
ATOM      8  C   UNL     1      45.363 130.975  20.985  1.00  0.00     0.021 A 
ATOM      9  C   UNL     1      41.899 132.348  18.804  1.00  0.00     0.045 C 
ATOM     10  Cl  UNL     1      44.101 131.179  23.400  1.00  0.00    -0.084 Cl
ENDBRANCH   1   3
BRANCH   1  11
ATOM     11  N   UNL     1      45.719 131.406  16.733  1.00  0.00    -0.646 NA
BRANCH  11  12
ATOM     12  C   UNL     1      46.268 130.138  16.276  1.00  0.00    -0.100 C 
ATOM     13  C   UNL     1      45.449 129.476  15.161  1.00  0.00    -0.010 C 
ATOM     14  C   UNL     1      46.753 130.202  14.851  1.00  0.00    -0.044 C 
ATOM     15  C   UNL     1      47.829 129.419  14.156  1.00  0.00     0.006 C 
ATOM     16  C   UNL     1      46.704 131.304  13.832  1.00  0.00     0.006 C 
ATOM     17  C   UNL     1      47.812 130.530  13.086  1.00  0.00     0.001 C 
ENDBRANCH  11  12
ENDBRANCH   1  11
TORSDOF 3
ENDMDL
MODEL 2
REMARK VINA RESULT:      -9.3      0.647      1.761
REMARK SMILES Cc1cc(Cl)ccc1C(=O)[N-][C@H]1CC12CCC2
REMARK SMILES IDX 9 1 10 2 8 3 2 4 3 5 4 6 7 7 6 8 1 9 5 10 11 11 12 12 13 13
REMARK SMILES IDX 14 14 15 15 17 16 16 17
REMARK H PARENT
ROOT
ATOM      1  C   UNL     1      44.373 131.492  17.476  1.00  0.00     0.082 C 
ATOM      2  O   UNL     1      43.498 131.664  16.582  1.00  0.00    -0.315 OA
ENDROOT
BRANCH   1   3
ATOM      3  C   UNL     1      43.986 131.571  18.908  1.00  0.00     0.002 A 
ATOM      4  C   UNL     1      44.812 131.088  19.962  1.00  0.00    -0.040 A 
ATOM      5  C   UNL     1      44.391 131.247  21.295  1.00  0.00     0.024 A 
ATOM      6  C   UNL     1      43.162 131.840  21.590  1.00  0.00     0.041 A 
ATOM      7  C   UNL     1      42.744 132.151  19.230  1.00  0.00     0.012 A 
ATOM      8  C   UNL     1      42.337 132.284  20.559  1.00  0.00     0.021 A 
ATOM      9  C   UNL     1      46.128 130.401  19.705  1.00  0.00     0.045 C 
ATOM     10  Cl  UNL     1      42.652 132.020  23.260  1.00  0.00    -0.084 Cl
ENDBRANCH   1   3
BRANCH   1  11
ATOM     11  N   UNL     1      45.733 131.275  17.096  1.00  0.00    -0.646 NA
BRANCH  11  12
ATOM     12  C   UNL     1      46.189 130.037  16.482  1.00  0.00    -0.100 C 
ATOM     13  C   UNL     1      45.293 129.550  15.336  1.00  0.00    -0.010 C 
ATOM     14  C   UNL     1      46.627 130.232  15.053  1.00  0.00    -0.044 C 
ATOM     15  C   UNL     1      47.629 129.471  14.235  1.00  0.00     0.006 C 
ATOM     16  C   UNL     1      46.609 131.441  14.163  1.00  0.00     0.006 C 
ATOM     17  C   UNL     1      47.642 130.694  13.293  1.00  0.00     0.001 C 
ENDBRANCH  11  12
ENDBRANCH   1  11
TORSDOF 3
ENDMDL
MODEL 3
REMARK VINA RESULT:      -9.1      1.464      1.660
REMARK SMILES Cc1cc(Cl)ccc1C(=O)[N-][C@H]1CC12CCC2
REMARK SMILES IDX 9 1 10 2 8 3 2 4 3 5 4 6 7 7 6 8 1 9 5 10 11 11 12 12 13 13
REMARK SMILES IDX 14 14 15 15 17 16 16 17
REMARK H PARENT
ROOT
ATOM      1  C   UNL     1      44.986 131.156  18.386  1.00  0.00     0.082 C 
ATOM      2  O   UNL     1      46.071 130.517  18.304  1.00  0.00    -0.315 OA
ENDROOT
BRANCH   1   3
ATOM      3  C   UNL     1      44.358 131.371  19.715  1.00  0.00     0.002 A 
ATOM      4  C   UNL     1      43.019 131.829  19.875  1.00  0.00    -0.040 A 
ATOM      5  C   UNL     1      42.486 131.958  21.170  1.00  0.00     0.024 A 
ATOM      6  C   UNL     1      43.264 131.676  22.294  1.00  0.00     0.041 A 
ATOM      7  C   UNL     1      45.127 131.109  20.864  1.00  0.00     0.012 A 
ATOM      8  C   UNL     1      44.584 131.259  22.141  1.00  0.00     0.021 A 
ATOM      9  C   UNL     1      42.144 132.190  18.703  1.00  0.00     0.045 C 
ATOM     10  Cl  UNL     1      42.582 131.853  23.902  1.00  0.00    -0.084 Cl
ENDBRANCH   1   3
BRANCH   1  11
ATOM     11  N   UNL     1      44.351 131.620  17.193  1.00  0.00    -0.646 NA
BRANCH  11  12
ATOM     12  C   UNL     1      44.267 130.815  15.984  1.00  0.00    -0.100 C 
ATOM     13  C   UNL     1      43.955 131.627  14.721  1.00  0.00    -0.010 C 
ATOM     14  C   UNL     1      45.368 131.130  15.005  1.00  0.00    -0.044 C 
ATOM     15  C   UNL     1      46.017 130.265  13.963  1.00  0.00     0.006 C 
ATOM     16  C   UNL     1      46.466 132.154  15.038  1.00  0.00     0.006 C 
ATOM     17  C   UNL     1      47.168 131.293  13.967  1.00  0.00     0.001 C 
ENDBRANCH  11  12
ENDBRANCH   1  11
TORSDOF 3
ENDMDL
MODEL 4
REMARK VINA RESULT:      -8.9      1.704      2.082
REMARK SMILES Cc1cc(Cl)ccc1C(=O)[N-][C@H]1CC12CCC2
REMARK SMILES IDX 9 1 10 2 8 3 2 4 3 5 4 6 7 7 6 8 1 9 5 10 11 11 12 12 13 13
REMARK SMILES IDX 14 14 15 15 17 16 16 17
REMARK H PARENT
ROOT
ATOM      1  C   UNL     1      45.510 130.680  18.560  1.00  0.00     0.082 C 
ATOM      2  O   UNL     1      46.193 129.914  19.295  1.00  0.00    -0.315 OA
ENDROOT
BRANCH   1   3
ATOM      3  C   UNL     1      44.331 131.384  19.125  1.00  0.00     0.002 A 
ATOM      4  C   UNL     1      43.247 131.846  18.327  1.00  0.00    -0.040 A 
ATOM      5  C   UNL     1      42.145 132.460  18.950  1.00  0.00     0.024 A 
ATOM      6  C   UNL     1      42.121 132.651  20.332  1.00  0.00     0.041 A 
ATOM      7  C   UNL     1      44.290 131.602  20.516  1.00  0.00     0.012 A 
ATOM      8  C   UNL     1      43.195 132.228  21.112  1.00  0.00     0.021 A 
ATOM      9  C   UNL     1      43.234 131.709  16.826  1.00  0.00     0.045 C 
ATOM     10  Cl  UNL     1      40.740 133.427  21.088  1.00  0.00    -0.084 Cl
ENDBRANCH   1   3
BRANCH   1  11
ATOM     11  N   UNL     1      45.852 130.818  17.179  1.00  0.00    -0.646 NA
BRANCH  11  12
ATOM     12  C   UNL     1      46.378 129.716  16.386  1.00  0.00    -0.100 C 
ATOM     13  C   UNL     1      45.450 129.275  15.249  1.00  0.00    -0.010 C 
ATOM     14  C   UNL     1      46.685 130.124  14.968  1.00  0.00    -0.044 C 
ATOM     15  C   UNL     1      47.691 129.577  13.998  1.00  0.00     0.006 C 
ATOM     16  C   UNL     1      46.480 131.421  14.239  1.00  0.00     0.006 C 
ATOM     17  C   UNL     1      47.511 130.896  13.218  1.00  0.00     0.001 C 
ENDBRANCH  11  12
ENDBRANCH   1  11
TORSDOF 3
ENDMDL
MODEL 5
REMARK VINA RESULT:      -8.8      1.693      2.621
REMARK SMILES Cc1cc(Cl)ccc1C(=O)[N-][C@H]1CC12CCC2
REMARK SMILES IDX 9 1 10 2 8 3 2 4 3 5 4 6 7 7 6 8 1 9 5 10 11 11 12 12 13 13
REMARK SMILES IDX 14 14 15 15 17 16 16 17
REMARK H PARENT
ROOT
ATOM      1  C   UNL     1      45.089 130.652  17.226  1.00  0.00     0.082 C 
ATOM      2  O   UNL     1      46.205 130.231  17.637  1.00  0.00    -0.315 OA
ENDROOT
BRANCH   1   3
ATOM      3  C   UNL     1      44.149 131.295  18.179  1.00  0.00     0.002 A 
ATOM      4  C   UNL     1      44.454 131.494  19.555  1.00  0.00    -0.040 A 
ATOM      5  C   UNL     1      43.527 132.158  20.378  1.00  0.00     0.024 A 
ATOM      6  C   UNL     1      42.301 132.590  19.868  1.00  0.00     0.041 A 
ATOM      7  C   UNL     1      42.900 131.727  17.692  1.00  0.00     0.012 A 
ATOM      8  C   UNL     1      41.986 132.369  18.530  1.00  0.00     0.021 A 
ATOM      9  C   UNL     1      45.741 131.011  20.173  1.00  0.00     0.045 C 
ATOM     10  Cl  UNL     1      41.154 133.408  20.915  1.00  0.00    -0.084 Cl
ENDBRANCH   1   3
BRANCH   1  11
ATOM     11  N   UNL     1      44.725 130.458  15.858  1.00  0.00    -0.646 NA
BRANCH  11  12
ATOM     12  C   UNL     1      45.200 131.323  14.788  1.00  0.00    -0.100 C 
ATOM     13  C   UNL     1      46.468 132.107  15.146  1.00  0.00    -0.010 C 
ATOM     14  C   UNL     1      46.533 130.881  14.242  1.00  0.00    -0.044 C 
ATOM     15  C   UNL     1      47.130 131.063  12.877  1.00  0.00     0.006 C 
ATOM     16  C   UNL     1      47.458 129.771  14.651  1.00  0.00     0.006 C 
ATOM     17  C   UNL     1      48.100 129.925  13.256  1.00  0.00     0.001 C 
ENDBRANCH  11  12
ENDBRANCH   1  11
TORSDOF 3
ENDMDL
MODEL 6
REMARK VINA RESULT:      -8.8      1.080      1.469
REMARK SMILES Cc1cc(Cl)ccc1C(=O)[N-][C@H]1CC12CCC2
REMARK SMILES IDX 9 1 10 2 8 3 2 4 3 5 4 6 7 7 6 8 1 9 5 10 11 11 12 12 13 13
REMARK SMILES IDX 14 14 15 15 17 16 16 17
REMARK H PARENT
ROOT
ATOM      1  C   UNL     1      43.828 131.439  16.460  1.00  0.00     0.082 C 
ATOM      2  O   UNL     1      42.879 132.123  15.985  1.00  0.00    -0.315 OA
ENDROOT
BRANCH   1   3
ATOM      3  C   UNL     1      44.048 131.405  17.928  1.00  0.00     0.002 A 
ATOM      4  C   UNL     1      43.053 131.790  18.871  1.00  0.00    -0.040 A 
ATOM      5  C   UNL     1      43.327 131.680  20.246  1.00  0.00     0.024 A 
ATOM      6  C   UNL     1      44.572 131.231  20.692  1.00  0.00     0.041 A 
ATOM      7  C   UNL     1      45.300 130.970  18.403  1.00  0.00     0.012 A 
ATOM      8  C   UNL     1      45.558 130.883  19.772  1.00  0.00     0.021 A 
ATOM      9  C   UNL     1      41.708 132.323  18.451  1.00  0.00     0.045 C 
ATOM     10  Cl  UNL     1      44.896 131.110  22.413  1.00  0.00    -0.084 Cl
ENDBRANCH   1   3
BRANCH   1  11
ATOM     11  N   UNL     1      44.707 130.746  15.571  1.00  0.00    -0.646 NA
BRANCH  11  12
ATOM     12  C   UNL     1      45.395 131.408  14.472  1.00  0.00    -0.100 C 
ATOM     13  C   UNL     1      46.706 132.088  14.884  1.00  0.00    -0.010 C 
ATOM     14  C   UNL     1      46.713 130.755  14.144  1.00  0.00    -0.044 C 
ATOM     15  C   UNL     1      47.466 130.692  12.847  1.00  0.00     0.006 C 
ATOM     16  C   UNL     1      47.445 129.612  14.786  1.00  0.00     0.006 C 
ATOM     17  C   UNL     1      48.243 129.513  13.469  1.00  0.00     0.001 C 
ENDBRANCH  11  12
ENDBRANCH   1  11
TORSDOF 3
ENDMDL
MODEL 7
REMARK VINA RESULT:      -8.6      1.025      2.098
REMARK SMILES Cc1cc(Cl)ccc1C(=O)[N-][C@H]1CC12CCC2
REMARK SMILES IDX 9 1 10 2 8 3 2 4 3 5 4 6 7 7 6 8 1 9 5 10 11 11 12 12 13 13
REMARK SMILES IDX 14 14 15 15 17 16 16 17
REMARK H PARENT
ROOT
ATOM      1  C   UNL     1      43.451 131.582  17.532  1.00  0.00     0.082 C 
ATOM      2  O   UNL     1      42.458 132.199  17.054  1.00  0.00    -0.315 OA
ENDROOT
BRANCH   1   3
ATOM      3  C   UNL     1      43.657 131.547  19.002  1.00  0.00     0.002 A 
ATOM      4  C   UNL     1      44.861 131.087  19.606  1.00  0.00    -0.040 A 
ATOM      5  C   UNL     1      44.992 131.135  21.006  1.00  0.00     0.024 A 
ATOM      6  C   UNL     1      43.944 131.594  21.806  1.00  0.00     0.041 A 
ATOM      7  C   UNL     1      42.609 131.992  19.831  1.00  0.00     0.012 A 
ATOM      8  C   UNL     1      42.753 132.015  21.219  1.00  0.00     0.021 A 
ATOM      9  C   UNL     1      46.010 130.539  18.799  1.00  0.00     0.045 C 
ATOM     10  Cl  UNL     1      44.124 131.636  23.551  1.00  0.00    -0.084 Cl
ENDBRANCH   1   3
BRANCH   1  11
ATOM     11  N   UNL     1      44.390 130.969  16.646  1.00  0.00    -0.646 NA
BRANCH  11  12
ATOM     12  C   UNL     1      44.808 131.585  15.395  1.00  0.00    -0.100 C 
ATOM     13  C   UNL     1      46.137 132.343  15.494  1.00  0.00    -0.010 C 
ATOM     14  C   UNL     1      46.066 130.966  14.843  1.00  0.00    -0.044 C 
ATOM     15  C   UNL     1      46.547 130.849  13.426  1.00  0.00     0.006 C 
ATOM     16  C   UNL     1      46.972 129.898  15.385  1.00  0.00     0.006 C 
ATOM     17  C   UNL     1      47.494 129.745  13.941  1.00  0.00     0.001 C 
ENDBRANCH  11  12
ENDBRANCH   1  11
TORSDOF 3
ENDMDL
MODEL 8
REMARK VINA RESULT:      -8.6      1.270      2.137
REMARK SMILES Cc1cc(Cl)ccc1C(=O)[N-][C@H]1CC12CCC2
REMARK SMILES IDX 9 1 10 2 8 3 2 4 3 5 4 6 7 7 6 8 1 9 5 10 11 11 12 12 13 13
REMARK SMILES IDX 14 14 15 15 17 16 16 17
REMARK H PARENT
ROOT
ATOM      1  C   UNL     1      43.264 131.850  18.166  1.00  0.00     0.082 C 
ATOM      2  O   UNL     1      42.095 132.131  17.783  1.00  0.00    -0.315 OA
ENDROOT
BRANCH   1   3
ATOM      3  C   UNL     1      43.540 131.668  19.615  1.00  0.00     0.002 A 
ATOM      4  C   UNL     1      44.737 131.076  20.108  1.00  0.00    -0.040 A 
ATOM      5  C   UNL     1      44.940 130.988  21.497  1.00  0.00     0.024 A 
ATOM      6  C   UNL     1      43.969 131.443  22.391  1.00  0.00     0.041 A 
ATOM      7  C   UNL     1      42.569 132.105  20.536  1.00  0.00     0.012 A 
ATOM      8  C   UNL     1      42.783 131.994  21.911  1.00  0.00     0.021 A 
ATOM      9  C   UNL     1      45.802 130.528  19.194  1.00  0.00     0.045 C 
ATOM     10  Cl  UNL     1      44.239 131.315  24.121  1.00  0.00    -0.084 Cl
ENDBRANCH   1   3
BRANCH   1  11
ATOM     11  N   UNL     1      44.316 131.759  17.204  1.00  0.00    -0.646 NA
BRANCH  11  12
ATOM     12  C   UNL     1      44.256 130.866  16.056  1.00  0.00    -0.100 C 
ATOM     13  C   UNL     1      43.947 131.578  14.735  1.00  0.00    -0.010 C 
ATOM     14  C   UNL     1      45.363 131.125  15.068  1.00  0.00    -0.044 C 
ATOM     15  C   UNL     1      46.035 130.196  14.099  1.00  0.00     0.006 C 
ATOM     16  C   UNL     1      46.446 132.165  15.036  1.00  0.00     0.006 C 
ATOM     17  C   UNL     1      47.171 131.239  14.037  1.00  0.00     0.001 C 
ENDBRANCH  11  12
ENDBRANCH   1  11
TORSDOF 3
ENDMDL
MODEL 9
REMARK VINA RESULT:      -8.5      1.526      2.361
REMARK SMILES Cc1cc(Cl)ccc1C(=O)[N-][C@H]1CC12CCC2
REMARK SMILES IDX 9 1 10 2 8 3 2 4 3 5 4 6 7 7 6 8 1 9 5 10 11 11 12 12 13 13
REMARK SMILES IDX 14 14 15 15 17 16 16 17
REMARK H PARENT
ROOT
ATOM      1  C   UNL     1      44.786 131.281  18.123  1.00  0.00     0.082 C 
ATOM      2  O   UNL     1      45.946 130.792  18.027  1.00  0.00    -0.315 OA
ENDROOT
BRANCH   1   3
ATOM      3  C   UNL     1      44.166 131.445  19.463  1.00  0.00     0.002 A 
ATOM      4  C   UNL     1      44.738 130.915  20.653  1.00  0.00    -0.040 A 
ATOM      5  C   UNL     1      44.111 131.160  21.888  1.00  0.00     0.024 A 
ATOM      6  C   UNL     1      42.920 131.886  21.952  1.00  0.00     0.041 A 
ATOM      7  C   UNL     1      42.956 132.160  19.552  1.00  0.00     0.012 A 
ATOM      8  C   UNL     1      42.341 132.379  20.786  1.00  0.00     0.021 A 
ATOM      9  C   UNL     1      45.998 130.088  20.643  1.00  0.00     0.045 C 
ATOM     10  Cl  UNL     1      42.149 132.172  23.503  1.00  0.00    -0.084 Cl
ENDBRANCH   1   3
BRANCH   1  11
ATOM     11  N   UNL     1      44.066 131.622  16.937  1.00  0.00    -0.646 NA
BRANCH  11  12
ATOM     12  C   UNL     1      44.120 130.815  15.726  1.00  0.00    -0.100 C 
ATOM     13  C   UNL     1      43.919 131.621  14.438  1.00  0.00    -0.010 C 
ATOM     14  C   UNL     1      45.307 131.154  14.862  1.00  0.00    -0.044 C 
ATOM     15  C   UNL     1      46.074 130.303  13.892  1.00  0.00     0.006 C 
ATOM     16  C   UNL     1      46.374 132.201  15.003  1.00  0.00     0.006 C 
ATOM     17  C   UNL     1      47.197 131.355  14.008  1.00  0.00     0.001 C 
ENDBRANCH  11  12
ENDBRANCH   1  11
TORSDOF 3
ENDMDL


