MODEL 1
REMARK VINA RESULT:      -8.1      0.000      0.000
REMARK SMILES C=Cc1cc(C2=CC=C[C@@]3(F)N=CO[C@@]23O)cc(O)c1F
REMARK SMILES IDX 6 1 7 2 8 3 9 4 10 5 11 6 12 7 13 8 14 9 15 10 5 11 3 12
REMARK SMILES IDX 4 13 20 14 18 15 17 16 21 17 2 18 1 19 19 20 16 22
REMARK H PARENT 19 21 16 23
ROOT
ATOM      1  C   UNL     1      45.366 130.794  16.951  1.00  0.00     0.037 C 
ATOM      2  C   UNL     1      46.055 129.644  17.008  1.00  0.00     0.011 C 
ATOM      3  C   UNL     1      46.920 129.192  15.916  1.00  0.00     0.002 C 
ATOM      4  C   UNL     1      47.105 129.920  14.819  1.00  0.00     0.045 C 
ATOM      5  C   UNL     1      46.414 131.234  14.582  1.00  0.00     0.291 C 
ATOM      6  F   UNL     1      47.377 132.209  14.381  1.00  0.00    -0.205 F 
ATOM      7  N   UNL     1      45.602 131.112  13.379  1.00  0.00    -0.208 NA
ATOM      8  C   UNL     1      44.363 131.274  13.678  1.00  0.00     0.304 C 
ATOM      9  O   UNL     1      44.150 131.544  15.013  1.00  0.00    -0.442 OA
ATOM     10  C   UNL     1      45.390 131.659  15.692  1.00  0.00     0.295 C 
ENDROOT
BRANCH   1  11
ATOM     11  C   UNL     1      44.598 131.241  18.148  1.00  0.00    -0.011 A 
ATOM     12  C   UNL     1      44.349 131.428  20.579  1.00  0.00     0.014 A 
ATOM     13  C   UNL     1      45.085 131.017  19.448  1.00  0.00     0.020 A 
ATOM     14  C   UNL     1      43.099 132.044  20.391  1.00  0.00     0.172 A 
ATOM     15  C   UNL     1      42.604 132.267  19.103  1.00  0.00     0.152 A 
ATOM     16  C   UNL     1      43.351 131.871  17.988  1.00  0.00     0.058 A 
ATOM     17  F   UNL     1      42.361 132.443  21.459  1.00  0.00    -0.202 F 
BRANCH  12  18
ATOM     18  C   UNL     1      44.839 131.198  21.962  1.00  0.00     0.003 C 
ATOM     19  C   UNL     1      44.357 130.257  22.775  1.00  0.00     0.009 C 
ENDBRANCH  12  18
BRANCH  15  20
ATOM     20  O   UNL     1      41.366 132.884  18.940  1.00  0.00    -0.505 OA
ATOM     21  H   UNL     1      40.629 132.457  18.390  1.00  0.00     0.293 HD
ENDBRANCH  15  20
ENDBRANCH   1  11
BRANCH  10  22
ATOM     22  O   UNL     1      45.577 133.010  16.042  1.00  0.00    -0.348 OA
ATOM     23  H   UNL     1      44.694 133.458  15.975  1.00  0.00     0.215 HD
ENDBRANCH  10  22
TORSDOF 4
ENDMDL
MODEL 2
REMARK VINA RESULT:      -7.2      1.422      2.178
REMARK SMILES C=Cc1cc(C2=CC=C[C@@]3(F)N=CO[C@@]23O)cc(O)c1F
REMARK SMILES IDX 6 1 7 2 8 3 9 4 10 5 11 6 12 7 13 8 14 9 15 10 5 11 3 12
REMARK SMILES IDX 4 13 20 14 18 15 17 16 21 17 2 18 1 19 19 20 16 22
REMARK H PARENT 19 21 16 23
ROOT
ATOM      1  C   UNL     1      45.414 130.680  17.140  1.00  0.00     0.037 C 
ATOM      2  C   UNL     1      46.123 129.544  17.050  1.00  0.00     0.011 C 
ATOM      3  C   UNL     1      46.883 129.186  15.850  1.00  0.00     0.002 C 
ATOM      4  C   UNL     1      46.948 129.990  14.794  1.00  0.00     0.045 C 
ATOM      5  C   UNL     1      46.218 131.302  14.716  1.00  0.00     0.291 C 
ATOM      6  F   UNL     1      47.142 132.309  14.491  1.00  0.00    -0.205 F 
ATOM      7  N   UNL     1      45.294 131.244  13.592  1.00  0.00    -0.208 NA
ATOM      8  C   UNL     1      44.088 131.358  14.021  1.00  0.00     0.304 C 
ATOM      9  O   UNL     1      44.003 131.533  15.386  1.00  0.00    -0.442 OA
ATOM     10  C   UNL     1      45.301 131.629  15.948  1.00  0.00     0.295 C 
ENDROOT
BRANCH   1  11
ATOM     11  C   UNL     1      44.760 131.029  18.433  1.00  0.00    -0.011 A 
ATOM     12  C   UNL     1      42.954 132.107  19.692  1.00  0.00     0.014 A 
ATOM     13  C   UNL     1      43.562 131.766  18.466  1.00  0.00     0.020 A 
ATOM     14  C   UNL     1      43.578 131.724  20.892  1.00  0.00     0.172 A 
ATOM     15  C   UNL     1      44.772 130.995  20.870  1.00  0.00     0.152 A 
ATOM     16  C   UNL     1      45.357 130.648  19.648  1.00  0.00     0.058 A 
ATOM     17  F   UNL     1      43.024 132.045  22.089  1.00  0.00    -0.202 F 
BRANCH  12  18
ATOM     18  C   UNL     1      41.693 132.889  19.753  1.00  0.00     0.003 C 
ATOM     19  C   UNL     1      41.201 133.422  20.871  1.00  0.00     0.009 C 
ENDBRANCH  12  18
BRANCH  15  20
ATOM     20  O   UNL     1      45.370 130.622  22.071  1.00  0.00    -0.505 OA
ATOM     21  H   UNL     1      45.386 129.655  22.377  1.00  0.00     0.293 HD
ENDBRANCH  15  20
ENDBRANCH   1  11
BRANCH  10  22
ATOM     22  O   UNL     1      45.502 132.956  16.371  1.00  0.00    -0.348 OA
ATOM     23  H   UNL     1      46.356 132.980  16.877  1.00  0.00     0.215 HD
ENDBRANCH  10  22
TORSDOF 4
ENDMDL
MODEL 3
REMARK VINA RESULT:      -6.9      3.061      6.632
REMARK SMILES C=Cc1cc(C2=CC=C[C@@]3(F)N=CO[C@@]23O)cc(O)c1F
REMARK SMILES IDX 6 1 7 2 8 3 9 4 10 5 11 6 12 7 13 8 14 9 15 10 5 11 3 12
REMARK SMILES IDX 4 13 20 14 18 15 17 16 21 17 2 18 1 19 19 20 16 22
REMARK H PARENT 19 21 16 23
ROOT
ATOM      1  C   UNL     1      44.070 131.350  19.674  1.00  0.00     0.037 C 
ATOM      2  C   UNL     1      42.842 131.860  19.852  1.00  0.00     0.011 C 
ATOM      3  C   UNL     1      42.305 132.171  21.179  1.00  0.00     0.002 C 
ATOM      4  C   UNL     1      43.024 132.004  22.284  1.00  0.00     0.045 C 
ATOM      5  C   UNL     1      44.419 131.443  22.277  1.00  0.00     0.291 C 
ATOM      6  F   UNL     1      45.269 132.364  22.866  1.00  0.00    -0.205 F 
ATOM      7  N   UNL     1      44.423 130.219  23.068  1.00  0.00    -0.208 NA
ATOM      8  C   UNL     1      44.733 129.223  22.317  1.00  0.00     0.304 C 
ATOM      9  O   UNL     1      45.003 129.580  21.013  1.00  0.00    -0.442 OA
ATOM     10  C   UNL     1      44.949 130.990  20.871  1.00  0.00     0.295 C 
ENDROOT
BRANCH   1  11
ATOM     11  C   UNL     1      44.588 131.168  18.288  1.00  0.00    -0.011 A 
ATOM     12  C   UNL     1      44.382 131.506  15.870  1.00  0.00     0.014 A 
ATOM     13  C   UNL     1      43.897 131.693  17.181  1.00  0.00     0.020 A 
ATOM     14  C   UNL     1      45.557 130.758  15.677  1.00  0.00     0.172 A 
ATOM     15  C   UNL     1      46.248 130.229  16.771  1.00  0.00     0.152 A 
ATOM     16  C   UNL     1      45.768 130.435  18.069  1.00  0.00     0.058 A 
ATOM     17  F   UNL     1      46.044 130.552  14.427  1.00  0.00    -0.202 F 
BRANCH  12  18
ATOM     18  C   UNL     1      43.668 132.045  14.684  1.00  0.00     0.003 C 
ATOM     19  C   UNL     1      43.096 131.284  13.750  1.00  0.00     0.009 C 
ENDBRANCH  12  18
BRANCH  15  20
ATOM     20  O   UNL     1      47.413 129.496  16.558  1.00  0.00    -0.505 OA
ATOM     21  H   UNL     1      47.660 128.708  17.148  1.00  0.00     0.293 HD
ENDBRANCH  15  20
ENDBRANCH   1  11
BRANCH  10  22
ATOM     22  O   UNL     1      46.258 131.463  20.663  1.00  0.00    -0.348 OA
ATOM     23  H   UNL     1      46.641 131.675  21.555  1.00  0.00     0.215 HD
ENDBRANCH  10  22
TORSDOF 4
ENDMDL
MODEL 4
REMARK VINA RESULT:      -6.6      2.403      6.124
REMARK SMILES C=Cc1cc(C2=CC=C[C@@]3(F)N=CO[C@@]23O)cc(O)c1F
REMARK SMILES IDX 6 1 7 2 8 3 9 4 10 5 11 6 12 7 13 8 14 9 15 10 5 11 3 12
REMARK SMILES IDX 4 13 20 14 18 15 17 16 21 17 2 18 1 19 19 20 16 22
REMARK H PARENT 19 21 16 23
ROOT
ATOM      1  C   UNL     1      44.447 131.499  18.765  1.00  0.00     0.037 C 
ATOM      2  C   UNL     1      45.524 131.569  19.562  1.00  0.00     0.011 C 
ATOM      3  C   UNL     1      45.416 131.637  21.022  1.00  0.00     0.002 C 
ATOM      4  C   UNL     1      44.242 131.591  21.643  1.00  0.00     0.045 C 
ATOM      5  C   UNL     1      42.931 131.513  20.911  1.00  0.00     0.291 C 
ATOM      6  F   UNL     1      42.256 130.381  21.334  1.00  0.00    -0.205 F 
ATOM      7  N   UNL     1      42.146 132.691  21.255  1.00  0.00    -0.208 NA
ATOM      8  C   UNL     1      41.934 133.390  20.198  1.00  0.00     0.304 C 
ATOM      9  O   UNL     1      42.464 132.833  19.054  1.00  0.00    -0.442 OA
ATOM     10  C   UNL     1      43.036 131.569  19.346  1.00  0.00     0.295 C 
ENDROOT
BRANCH   1  11
ATOM     11  C   UNL     1      44.640 131.317  17.298  1.00  0.00    -0.011 A 
ATOM     12  C   UNL     1      46.001 130.579  15.398  1.00  0.00     0.014 A 
ATOM     13  C   UNL     1      45.815 130.736  16.787  1.00  0.00     0.020 A 
ATOM     14  C   UNL     1      45.004 131.039  14.520  1.00  0.00     0.172 A 
ATOM     15  C   UNL     1      43.834 131.622  15.018  1.00  0.00     0.152 A 
ATOM     16  C   UNL     1      43.653 131.757  16.398  1.00  0.00     0.058 A 
ATOM     17  F   UNL     1      45.157 130.911  13.177  1.00  0.00    -0.202 F 
BRANCH  12  18
ATOM     18  C   UNL     1      47.235 129.974  14.834  1.00  0.00     0.003 C 
ATOM     19  C   UNL     1      47.742 130.292  13.642  1.00  0.00     0.009 C 
ENDBRANCH  12  18
BRANCH  15  20
ATOM     20  O   UNL     1      42.857 132.066  14.130  1.00  0.00    -0.505 OA
ATOM     21  H   UNL     1      42.269 131.416  13.620  1.00  0.00     0.293 HD
ENDBRANCH  15  20
ENDBRANCH   1  11
BRANCH  10  22
ATOM     22  O   UNL     1      42.228 130.574  18.764  1.00  0.00    -0.348 OA
ATOM     23  H   UNL     1      41.320 130.959  18.651  1.00  0.00     0.215 HD
ENDBRANCH  10  22
TORSDOF 4
ENDMDL
MODEL 5
REMARK VINA RESULT:      -6.5      2.745      6.151
REMARK SMILES C=Cc1cc(C2=CC=C[C@@]3(F)N=CO[C@@]23O)cc(O)c1F
REMARK SMILES IDX 6 1 7 2 8 3 9 4 10 5 11 6 12 7 13 8 14 9 15 10 5 11 3 12
REMARK SMILES IDX 4 13 20 14 18 15 17 16 21 17 2 18 1 19 19 20 16 22
REMARK H PARENT 19 21 16 23
ROOT
ATOM      1  C   UNL     1      44.214 131.334  18.804  1.00  0.00     0.037 C 
ATOM      2  C   UNL     1      43.004 131.823  19.115  1.00  0.00     0.011 C 
ATOM      3  C   UNL     1      42.604 132.108  20.495  1.00  0.00     0.002 C 
ATOM      4  C   UNL     1      43.435 131.937  21.518  1.00  0.00     0.045 C 
ATOM      5  C   UNL     1      44.830 131.397  21.358  1.00  0.00     0.291 C 
ATOM      6  F   UNL     1      45.723 132.324  21.869  1.00  0.00    -0.205 F 
ATOM      7  N   UNL     1      44.932 130.163  22.125  1.00  0.00    -0.208 NA
ATOM      8  C   UNL     1      45.177 129.183  21.332  1.00  0.00     0.304 C 
ATOM      9  O   UNL     1      45.305 129.561  20.012  1.00  0.00    -0.442 OA
ATOM     10  C   UNL     1      45.217 130.972  19.897  1.00  0.00     0.295 C 
ENDROOT
BRANCH   1  11
ATOM     11  C   UNL     1      44.588 131.178  17.369  1.00  0.00    -0.011 A 
ATOM     12  C   UNL     1      46.182 130.490  15.640  1.00  0.00     0.014 A 
ATOM     13  C   UNL     1      45.826 130.622  16.998  1.00  0.00     0.020 A 
ATOM     14  C   UNL     1      45.292 130.949  14.654  1.00  0.00     0.172 A 
ATOM     15  C   UNL     1      44.062 131.507  15.013  1.00  0.00     0.152 A 
ATOM     16  C   UNL     1      43.711 131.618  16.362  1.00  0.00     0.058 A 
ATOM     17  F   UNL     1      45.610 130.845  13.338  1.00  0.00    -0.202 F 
BRANCH  12  18
ATOM     18  C   UNL     1      47.486 129.912  15.223  1.00  0.00     0.003 C 
ATOM     19  C   UNL     1      47.724 129.412  14.010  1.00  0.00     0.009 C 
ENDBRANCH  12  18
BRANCH  15  20
ATOM     20  O   UNL     1      43.192 131.951  14.018  1.00  0.00    -0.505 OA
ATOM     21  H   UNL     1      43.396 132.776  13.465  1.00  0.00     0.293 HD
ENDBRANCH  15  20
ENDBRANCH   1  11
BRANCH  10  22
ATOM     22  O   UNL     1      46.491 131.467  19.563  1.00  0.00    -0.348 OA
ATOM     23  H   UNL     1      47.157 130.782  19.836  1.00  0.00     0.215 HD
ENDBRANCH  10  22
TORSDOF 4
ENDMDL
MODEL 6
REMARK VINA RESULT:      -5.7      3.530      6.880
REMARK SMILES C=Cc1cc(C2=CC=C[C@@]3(F)N=CO[C@@]23O)cc(O)c1F
REMARK SMILES IDX 6 1 7 2 8 3 9 4 10 5 11 6 12 7 13 8 14 9 15 10 5 11 3 12
REMARK SMILES IDX 4 13 20 14 18 15 17 16 21 17 2 18 1 19 19 20 16 22
REMARK H PARENT 19 21 16 23
ROOT
ATOM      1  C   UNL     1      43.215 131.569  21.683  1.00  0.00     0.037 C 
ATOM      2  C   UNL     1      42.099 132.026  22.272  1.00  0.00     0.011 C 
ATOM      3  C   UNL     1      41.958 132.109  23.728  1.00  0.00     0.002 C 
ATOM      4  C   UNL     1      42.947 131.776  24.550  1.00  0.00     0.045 C 
ATOM      5  C   UNL     1      44.269 131.244  24.068  1.00  0.00     0.291 C 
ATOM      6  F   UNL     1      45.275 132.071  24.538  1.00  0.00    -0.205 F 
ATOM      7  N   UNL     1      44.452 129.909  24.620  1.00  0.00    -0.208 NA
ATOM      8  C   UNL     1      44.514 129.053  23.664  1.00  0.00     0.304 C 
ATOM      9  O   UNL     1      44.425 129.620  22.410  1.00  0.00    -0.442 OA
ATOM     10  C   UNL     1      44.377 131.033  22.516  1.00  0.00     0.295 C 
ENDROOT
BRANCH   1  11
ATOM     11  C   UNL     1      43.325 131.622  20.197  1.00  0.00    -0.011 A 
ATOM     12  C   UNL     1      44.589 131.228  18.134  1.00  0.00     0.014 A 
ATOM     13  C   UNL     1      44.481 131.164  19.538  1.00  0.00     0.020 A 
ATOM     14  C   UNL     1      43.532 131.787  17.394  1.00  0.00     0.172 A 
ATOM     15  C   UNL     1      42.381 132.249  18.040  1.00  0.00     0.152 A 
ATOM     16  C   UNL     1      42.277 132.164  19.432  1.00  0.00     0.058 A 
ATOM     17  F   UNL     1      43.608 131.872  16.041  1.00  0.00    -0.202 F 
BRANCH  12  18
ATOM     18  C   UNL     1      45.801 130.757  17.416  1.00  0.00     0.003 C 
ATOM     19  C   UNL     1      45.781 130.218  16.196  1.00  0.00     0.009 C 
ENDBRANCH  12  18
BRANCH  15  20
ATOM     20  O   UNL     1      41.343 132.794  17.287  1.00  0.00    -0.505 OA
ATOM     21  H   UNL     1      40.663 132.206  16.816  1.00  0.00     0.293 HD
ENDBRANCH  15  20
ENDBRANCH   1  11
BRANCH  10  22
ATOM     22  O   UNL     1      45.593 131.553  22.033  1.00  0.00    -0.348 OA
ATOM     23  H   UNL     1      46.322 131.161  22.582  1.00  0.00     0.215 HD
ENDBRANCH  10  22
TORSDOF 4
ENDMDL
MODEL 7
REMARK VINA RESULT:      -5.6      0.946      1.121
REMARK SMILES C=Cc1cc(C2=CC=C[C@@]3(F)N=CO[C@@]23O)cc(O)c1F
REMARK SMILES IDX 6 1 7 2 8 3 9 4 10 5 11 6 12 7 13 8 14 9 15 10 5 11 3 12
REMARK SMILES IDX 4 13 20 14 18 15 17 16 21 17 2 18 1 19 19 20 16 22
REMARK H PARENT 19 21 16 23
ROOT
ATOM      1  C   UNL     1      45.208 130.798  16.962  1.00  0.00     0.037 C 
ATOM      2  C   UNL     1      45.647 129.533  16.884  1.00  0.00     0.011 C 
ATOM      3  C   UNL     1      46.234 128.979  15.662  1.00  0.00     0.002 C 
ATOM      4  C   UNL     1      46.404 129.715  14.568  1.00  0.00     0.045 C 
ATOM      5  C   UNL     1      45.972 131.152  14.473  1.00  0.00     0.291 C 
ATOM      6  F   UNL     1      47.075 131.925  14.152  1.00  0.00    -0.205 F 
ATOM      7  N   UNL     1      44.987 131.263  13.405  1.00  0.00    -0.208 NA
ATOM      8  C   UNL     1      43.864 131.651  13.894  1.00  0.00     0.304 C 
ATOM      9  O   UNL     1      43.906 131.883  15.253  1.00  0.00    -0.442 OA
ATOM     10  C   UNL     1      45.227 131.711  15.737  1.00  0.00     0.295 C 
ENDROOT
BRANCH   1  11
ATOM     11  C   UNL     1      44.729 131.322  18.273  1.00  0.00    -0.011 A 
ATOM     12  C   UNL     1      45.153 131.966  20.600  1.00  0.00     0.014 A 
ATOM     13  C   UNL     1      45.612 131.484  19.357  1.00  0.00     0.020 A 
ATOM     14  C   UNL     1      43.787 132.257  20.755  1.00  0.00     0.172 A 
ATOM     15  C   UNL     1      42.900 132.096  19.686  1.00  0.00     0.152 A 
ATOM     16  C   UNL     1      43.370 131.634  18.452  1.00  0.00     0.058 A 
ATOM     17  F   UNL     1      43.311 132.714  21.942  1.00  0.00    -0.202 F 
BRANCH  12  18
ATOM     18  C   UNL     1      46.064 132.139  21.760  1.00  0.00     0.003 C 
ATOM     19  C   UNL     1      46.955 133.125  21.866  1.00  0.00     0.009 C 
ENDBRANCH  12  18
BRANCH  15  20
ATOM     20  O   UNL     1      41.551 132.396  19.861  1.00  0.00    -0.505 OA
ATOM     21  H   UNL     1      40.824 131.734  19.613  1.00  0.00     0.293 HD
ENDBRANCH  15  20
ENDBRANCH   1  11
BRANCH  10  22
ATOM     22  O   UNL     1      45.737 132.975  16.089  1.00  0.00    -0.348 OA
ATOM     23  H   UNL     1      45.007 133.635  15.960  1.00  0.00     0.215 HD
ENDBRANCH  10  22
TORSDOF 4
ENDMDL
MODEL 8
REMARK VINA RESULT:      -5.6      1.438      2.217
REMARK SMILES C=Cc1cc(C2=CC=C[C@@]3(F)N=CO[C@@]23O)cc(O)c1F
REMARK SMILES IDX 6 1 7 2 8 3 9 4 10 5 11 6 12 7 13 8 14 9 15 10 5 11 3 12
REMARK SMILES IDX 4 13 20 14 18 15 17 16 21 17 2 18 1 19 19 20 16 22
REMARK H PARENT 19 21 16 23
ROOT
ATOM      1  C   UNL     1      43.877 131.525  16.558  1.00  0.00     0.037 C 
ATOM      2  C   UNL     1      42.924 131.831  15.664  1.00  0.00     0.011 C 
ATOM      3  C   UNL     1      43.079 131.569  14.231  1.00  0.00     0.002 C 
ATOM      4  C   UNL     1      44.160 130.973  13.739  1.00  0.00     0.045 C 
ATOM      5  C   UNL     1      45.328 130.561  14.591  1.00  0.00     0.291 C 
ATOM      6  F   UNL     1      45.531 129.200  14.435  1.00  0.00    -0.205 F 
ATOM      7  N   UNL     1      46.509 131.274  14.123  1.00  0.00    -0.208 NA
ATOM      8  C   UNL     1      46.949 132.037  15.059  1.00  0.00     0.304 C 
ATOM      9  O   UNL     1      46.224 131.950  16.228  1.00  0.00    -0.442 OA
ATOM     10  C   UNL     1      45.220 130.955  16.107  1.00  0.00     0.295 C 
ENDROOT
BRANCH   1  11
ATOM     11  C   UNL     1      43.600 131.717  18.010  1.00  0.00    -0.011 A 
ATOM     12  C   UNL     1      44.196 131.374  20.362  1.00  0.00     0.014 A 
ATOM     13  C   UNL     1      44.469 131.203  18.990  1.00  0.00     0.020 A 
ATOM     14  C   UNL     1      43.021 132.043  20.746  1.00  0.00     0.172 A 
ATOM     15  C   UNL     1      42.148 132.553  19.780  1.00  0.00     0.152 A 
ATOM     16  C   UNL     1      42.438 132.394  18.421  1.00  0.00     0.058 A 
ATOM     17  F   UNL     1      42.724 132.215  22.060  1.00  0.00    -0.202 F 
BRANCH  12  18
ATOM     18  C   UNL     1      45.095 130.835  21.415  1.00  0.00     0.003 C 
ATOM     19  C   UNL     1      44.804 129.778  22.174  1.00  0.00     0.009 C 
ENDBRANCH  12  18
BRANCH  15  20
ATOM     20  O   UNL     1      40.992 133.218  20.182  1.00  0.00    -0.505 OA
ATOM     21  H   UNL     1      40.882 133.566  21.129  1.00  0.00     0.293 HD
ENDBRANCH  15  20
ENDBRANCH   1  11
BRANCH  10  22
ATOM     22  O   UNL     1      45.577 129.866  16.924  1.00  0.00    -0.348 OA
ATOM     23  H   UNL     1      45.197 129.048  16.511  1.00  0.00     0.215 HD
ENDBRANCH  10  22
TORSDOF 4
ENDMDL
MODEL 9
REMARK VINA RESULT:      -5.4      2.098      3.057
REMARK SMILES C=Cc1cc(C2=CC=C[C@@]3(F)N=CO[C@@]23O)cc(O)c1F
REMARK SMILES IDX 6 1 7 2 8 3 9 4 10 5 11 6 12 7 13 8 14 9 15 10 5 11 3 12
REMARK SMILES IDX 4 13 20 14 18 15 17 16 21 17 2 18 1 19 19 20 16 22
REMARK H PARENT 19 21 16 23
ROOT
ATOM      1  C   UNL     1      44.434 131.322  16.614  1.00  0.00     0.037 C 
ATOM      2  C   UNL     1      43.346 131.757  15.961  1.00  0.00     0.011 C 
ATOM      3  C   UNL     1      43.186 131.603  14.513  1.00  0.00     0.002 C 
ATOM      4  C   UNL     1      44.095 130.984  13.768  1.00  0.00     0.045 C 
ATOM      5  C   UNL     1      45.377 130.433  14.328  1.00  0.00     0.291 C 
ATOM      6  F   UNL     1      45.439 129.080  14.043  1.00  0.00    -0.205 F 
ATOM      7  N   UNL     1      46.489 131.109  13.673  1.00  0.00    -0.208 NA
ATOM      8  C   UNL     1      47.167 131.766  14.545  1.00  0.00     0.304 C 
ATOM      9  O   UNL     1      46.690 131.628  15.832  1.00  0.00    -0.442 OA
ATOM     10  C   UNL     1      45.610 130.709  15.856  1.00  0.00     0.295 C 
ENDROOT
BRANCH   1  11
ATOM     11  C   UNL     1      44.473 131.412  18.102  1.00  0.00    -0.011 A 
ATOM     12  C   UNL     1      43.392 131.931  20.239  1.00  0.00     0.014 A 
ATOM     13  C   UNL     1      43.348 131.833  18.833  1.00  0.00     0.020 A 
ATOM     14  C   UNL     1      44.592 131.629  20.906  1.00  0.00     0.172 A 
ATOM     15  C   UNL     1      45.717 131.214  20.188  1.00  0.00     0.152 A 
ATOM     16  C   UNL     1      45.657 131.104  18.795  1.00  0.00     0.058 A 
ATOM     17  F   UNL     1      44.670 131.723  22.258  1.00  0.00    -0.202 F 
BRANCH  12  18
ATOM     18  C   UNL     1      42.219 132.379  21.033  1.00  0.00     0.003 C 
ATOM     19  C   UNL     1      41.360 133.316  20.629  1.00  0.00     0.009 C 
ENDBRANCH  12  18
BRANCH  15  20
ATOM     20  O   UNL     1      46.895 130.914  20.869  1.00  0.00    -0.505 OA
ATOM     21  H   UNL     1      47.730 130.612  20.378  1.00  0.00     0.293 HD
ENDBRANCH  15  20
ENDBRANCH   1  11
BRANCH  10  22
ATOM     22  O   UNL     1      46.042 129.538  16.506  1.00  0.00    -0.348 OA
ATOM     23  H   UNL     1      46.651 129.814  17.240  1.00  0.00     0.215 HD
ENDBRANCH  10  22
TORSDOF 4
ENDMDL


