MODEL 1
REMARK VINA RESULT:      -9.9      0.000      0.000
REMARK SMILES Cn1cc2cc(F)c(-c3ccc4[nH]ccc4c3)c(F)c2n1
REMARK SMILES IDX 1 1 2 2 3 3 4 4 5 5 6 6 7 7 8 8 18 9 19 10 20 11 21 12 9 13
REMARK SMILES IDX 10 14 17 15 11 16 16 17 12 18 15 19 13 20 14 21
REMARK H PARENT 13 22
ROOT
ATOM      1  C   UNL     1      43.806 131.293  24.136  1.00  0.00     0.173 C 
ATOM      2  N   UNL     1      43.821 131.422  22.686  1.00  0.00    -0.274 N 
ATOM      3  C   UNL     1      42.747 131.708  21.912  1.00  0.00     0.117 A 
ATOM      4  C   UNL     1      43.172 131.666  20.606  1.00  0.00     0.026 A 
ATOM      5  C   UNL     1      42.505 131.870  19.404  1.00  0.00     0.052 A 
ATOM      6  C   UNL     1      43.246 131.736  18.214  1.00  0.00     0.134 A 
ATOM      7  F   UNL     1      42.624 131.962  17.029  1.00  0.00    -0.206 F 
ATOM      8  C   UNL     1      44.630 131.400  18.253  1.00  0.00     0.056 A 
ATOM      9  C   UNL     1      45.264 131.200  19.505  1.00  0.00     0.162 A 
ATOM     10  F   UNL     1      46.573 130.847  19.592  1.00  0.00    -0.204 F 
ATOM     11  C   UNL     1      44.499 131.344  20.658  1.00  0.00     0.129 A 
ATOM     12  N   UNL     1      44.892 131.186  21.935  1.00  0.00    -0.170 NA
ENDROOT
BRANCH   8  13
ATOM     13  C   UNL     1      45.400 131.258  16.996  1.00  0.00    -0.012 A 
ATOM     14  C   UNL     1      45.579 132.373  16.135  1.00  0.00     0.011 A 
ATOM     15  C   UNL     1      45.961 130.008  16.645  1.00  0.00     0.019 A 
ATOM     16  C   UNL     1      46.307 132.249  14.939  1.00  0.00     0.027 A 
ATOM     17  C   UNL     1      46.677 129.922  15.453  1.00  0.00    -0.000 A 
ATOM     18  C   UNL     1      46.844 131.003  14.630  1.00  0.00     0.045 A 
ATOM     19  C   UNL     1      47.324 128.856  14.870  1.00  0.00     0.028 A 
ATOM     20  N   UNL     1      47.569 130.671  13.549  1.00  0.00    -0.361 N 
ATOM     21  C   UNL     1      47.864 129.359  13.691  1.00  0.00     0.083 A 
ATOM     22  H   UNL     1      47.848 131.294  12.759  1.00  0.00     0.166 HD
ENDBRANCH   8  13
TORSDOF 1
ENDMDL
MODEL 2
REMARK VINA RESULT:      -9.7      0.845      1.498
REMARK SMILES Cn1cc2cc(F)c(-c3ccc4[nH]ccc4c3)c(F)c2n1
REMARK SMILES IDX 1 1 2 2 3 3 4 4 5 5 6 6 7 7 8 8 18 9 19 10 20 11 21 12 9 13
REMARK SMILES IDX 10 14 17 15 11 16 16 17 12 18 15 19 13 20 14 21
REMARK H PARENT 13 22
ROOT
ATOM      1  C   UNL     1      43.363 131.815  23.636  1.00  0.00     0.173 C 
ATOM      2  N   UNL     1      43.483 131.785  22.185  1.00  0.00    -0.274 N 
ATOM      3  C   UNL     1      42.532 132.187  21.310  1.00  0.00     0.117 A 
ATOM      4  C   UNL     1      43.012 131.927  20.048  1.00  0.00     0.026 A 
ATOM      5  C   UNL     1      42.467 132.126  18.786  1.00  0.00     0.052 A 
ATOM      6  C   UNL     1      43.231 131.727  17.673  1.00  0.00     0.134 A 
ATOM      7  F   UNL     1      42.733 131.941  16.429  1.00  0.00    -0.206 F 
ATOM      8  C   UNL     1      44.517 131.138  17.847  1.00  0.00     0.056 A 
ATOM      9  C   UNL     1      45.029 130.955  19.156  1.00  0.00     0.162 A 
ATOM     10  F   UNL     1      46.234 130.369  19.374  1.00  0.00    -0.204 F 
ATOM     11  C   UNL     1      44.244 131.364  20.230  1.00  0.00     0.129 A 
ATOM     12  N   UNL     1      44.527 131.269  21.542  1.00  0.00    -0.170 NA
ENDROOT
BRANCH   8  13
ATOM     13  C   UNL     1      45.312 130.719  16.670  1.00  0.00    -0.012 A 
ATOM     14  C   UNL     1      45.433 129.343  16.340  1.00  0.00     0.011 A 
ATOM     15  C   UNL     1      45.959 131.689  15.869  1.00  0.00     0.019 A 
ATOM     16  C   UNL     1      46.186 128.935  15.225  1.00  0.00     0.027 A 
ATOM     17  C   UNL     1      46.696 131.248  14.773  1.00  0.00    -0.000 A 
ATOM     18  C   UNL     1      46.806 129.920  14.461  1.00  0.00     0.045 A 
ATOM     19  C   UNL     1      47.414 131.953  13.833  1.00  0.00     0.028 A 
ATOM     20  N   UNL     1      47.563 129.748  13.365  1.00  0.00    -0.361 N 
ATOM     21  C   UNL     1      47.938 130.989  12.978  1.00  0.00     0.083 A 
ATOM     22  H   UNL     1      47.814 128.845  12.904  1.00  0.00     0.166 HD
ENDBRANCH   8  13
TORSDOF 1
ENDMDL
MODEL 3
REMARK VINA RESULT:      -8.8      1.290      6.677
REMARK SMILES Cn1cc2cc(F)c(-c3ccc4[nH]ccc4c3)c(F)c2n1
REMARK SMILES IDX 1 1 2 2 3 3 4 4 5 5 6 6 7 7 8 8 18 9 19 10 20 11 21 12 9 13
REMARK SMILES IDX 10 14 17 15 11 16 16 17 12 18 15 19 13 20 14 21
REMARK H PARENT 13 22
ROOT
ATOM      1  C   UNL     1      48.700 129.408  13.361  1.00  0.00     0.173 C 
ATOM      2  N   UNL     1      47.541 129.875  14.108  1.00  0.00    -0.274 N 
ATOM      3  C   UNL     1      46.452 130.475  13.573  1.00  0.00     0.117 A 
ATOM      4  C   UNL     1      45.630 130.820  14.619  1.00  0.00     0.026 A 
ATOM      5  C   UNL     1      44.397 131.458  14.662  1.00  0.00     0.052 A 
ATOM      6  C   UNL     1      43.817 131.678  15.926  1.00  0.00     0.134 A 
ATOM      7  F   UNL     1      42.598 132.270  15.991  1.00  0.00    -0.206 F 
ATOM      8  C   UNL     1      44.483 131.260  17.114  1.00  0.00     0.056 A 
ATOM      9  C   UNL     1      45.742 130.614  17.017  1.00  0.00     0.162 A 
ATOM     10  F   UNL     1      46.430 130.227  18.122  1.00  0.00    -0.204 F 
ATOM     11  C   UNL     1      46.281 130.414  15.750  1.00  0.00     0.129 A 
ATOM     12  N   UNL     1      47.457 129.842  15.434  1.00  0.00    -0.170 NA
ENDROOT
BRANCH   8  13
ATOM     13  C   UNL     1      43.868 131.498  18.439  1.00  0.00    -0.012 A 
ATOM     14  C   UNL     1      42.558 132.039  18.535  1.00  0.00     0.011 A 
ATOM     15  C   UNL     1      44.583 131.189  19.620  1.00  0.00     0.019 A 
ATOM     16  C   UNL     1      41.965 132.270  19.788  1.00  0.00     0.027 A 
ATOM     17  C   UNL     1      43.964 131.431  20.844  1.00  0.00    -0.000 A 
ATOM     18  C   UNL     1      42.701 131.952  20.926  1.00  0.00     0.045 A 
ATOM     19  C   UNL     1      44.410 131.228  22.130  1.00  0.00     0.028 A 
ATOM     20  N   UNL     1      42.325 132.091  22.208  1.00  0.00    -0.361 N 
ATOM     21  C   UNL     1      43.367 131.649  22.948  1.00  0.00     0.083 A 
ATOM     22  H   UNL     1      41.416 132.462  22.564  1.00  0.00     0.166 HD
ENDBRANCH   8  13
TORSDOF 1
ENDMDL
MODEL 4
REMARK VINA RESULT:      -7.8      1.468      2.787
REMARK SMILES Cn1cc2cc(F)c(-c3ccc4[nH]ccc4c3)c(F)c2n1
REMARK SMILES IDX 1 1 2 2 3 3 4 4 5 5 6 6 7 7 8 8 18 9 19 10 20 11 21 12 9 13
REMARK SMILES IDX 10 14 17 15 11 16 16 17 12 18 15 19 13 20 14 21
REMARK H PARENT 13 22
ROOT
ATOM      1  C   UNL     1      40.552 133.592  21.586  1.00  0.00     0.173 C 
ATOM      2  N   UNL     1      41.657 132.894  20.945  1.00  0.00    -0.274 N 
ATOM      3  C   UNL     1      42.731 132.371  21.582  1.00  0.00     0.117 A 
ATOM      4  C   UNL     1      43.566 131.868  20.613  1.00  0.00     0.026 A 
ATOM      5  C   UNL     1      44.799 131.230  20.687  1.00  0.00     0.052 A 
ATOM      6  C   UNL     1      45.409 130.844  19.479  1.00  0.00     0.134 A 
ATOM      7  F   UNL     1      46.598 130.191  19.527  1.00  0.00    -0.206 F 
ATOM      8  C   UNL     1      44.777 131.106  18.229  1.00  0.00     0.056 A 
ATOM      9  C   UNL     1      43.520 131.761  18.207  1.00  0.00     0.162 A 
ATOM     10  F   UNL     1      42.893 132.062  17.040  1.00  0.00    -0.204 F 
ATOM     11  C   UNL     1      42.948 132.125  19.423  1.00  0.00     0.129 A 
ATOM     12  N   UNL     1      41.781 132.763  19.628  1.00  0.00    -0.170 NA
ENDROOT
BRANCH   8  13
ATOM     13  C   UNL     1      45.428 130.699  16.963  1.00  0.00    -0.012 A 
ATOM     14  C   UNL     1      45.469 129.331  16.585  1.00  0.00     0.011 A 
ATOM     15  C   UNL     1      46.015 131.673  16.122  1.00  0.00     0.019 A 
ATOM     16  C   UNL     1      46.086 128.934  15.385  1.00  0.00     0.027 A 
ATOM     17  C   UNL     1      46.616 131.244  14.941  1.00  0.00    -0.000 A 
ATOM     18  C   UNL     1      46.651 129.923  14.585  1.00  0.00     0.045 A 
ATOM     19  C   UNL     1      47.251 131.955  13.948  1.00  0.00     0.028 A 
ATOM     20  N   UNL     1      47.280 129.762  13.410  1.00  0.00    -0.361 N 
ATOM     21  C   UNL     1      47.650 131.002  13.016  1.00  0.00     0.083 A 
ATOM     22  H   UNL     1      47.452 128.866  12.901  1.00  0.00     0.166 HD
ENDBRANCH   8  13
TORSDOF 1
ENDMDL
MODEL 5
REMARK VINA RESULT:      -7.6      1.266      2.000
REMARK SMILES Cn1cc2cc(F)c(-c3ccc4[nH]ccc4c3)c(F)c2n1
REMARK SMILES IDX 1 1 2 2 3 3 4 4 5 5 6 6 7 7 8 8 18 9 19 10 20 11 21 12 9 13
REMARK SMILES IDX 10 14 17 15 11 16 16 17 12 18 15 19 13 20 14 21
REMARK H PARENT 13 22
ROOT
ATOM      1  C   UNL     1      42.224 132.383  22.468  1.00  0.00     0.173 C 
ATOM      2  N   UNL     1      42.653 132.232  21.085  1.00  0.00    -0.274 N 
ATOM      3  C   UNL     1      41.915 132.548  19.994  1.00  0.00     0.117 A 
ATOM      4  C   UNL     1      42.653 132.188  18.892  1.00  0.00     0.026 A 
ATOM      5  C   UNL     1      42.393 132.273  17.530  1.00  0.00     0.052 A 
ATOM      6  C   UNL     1      43.376 131.791  16.645  1.00  0.00     0.134 A 
ATOM      7  F   UNL     1      43.158 131.894  15.309  1.00  0.00    -0.206 F 
ATOM      8  C   UNL     1      44.590 131.234  17.140  1.00  0.00     0.056 A 
ATOM      9  C   UNL     1      44.808 131.168  18.540  1.00  0.00     0.162 A 
ATOM     10  F   UNL     1      45.934 130.616  19.060  1.00  0.00    -0.204 F 
ATOM     11  C   UNL     1      43.813 131.657  19.382  1.00  0.00     0.129 A 
ATOM     12  N   UNL     1      43.807 131.677  20.727  1.00  0.00    -0.170 NA
ENDROOT
BRANCH   8  13
ATOM     13  C   UNL     1      45.617 130.727  16.202  1.00  0.00    -0.012 A 
ATOM     14  C   UNL     1      46.194 129.444  16.395  1.00  0.00     0.011 A 
ATOM     15  C   UNL     1      46.030 131.520  15.106  1.00  0.00     0.019 A 
ATOM     16  C   UNL     1      47.171 128.953  15.510  1.00  0.00     0.027 A 
ATOM     17  C   UNL     1      46.999 131.002  14.250  1.00  0.00    -0.000 A 
ATOM     18  C   UNL     1      47.550 129.764  14.444  1.00  0.00     0.045 A 
ATOM     19  C   UNL     1      47.579 131.538  13.122  1.00  0.00     0.028 A 
ATOM     20  N   UNL     1      48.454 129.489  13.490  1.00  0.00    -0.361 N 
ATOM     21  C   UNL     1      48.476 130.572  12.679  1.00  0.00     0.083 A 
ATOM     22  H   UNL     1      49.025 128.621  13.391  1.00  0.00     0.166 HD
ENDBRANCH   8  13
TORSDOF 1
ENDMDL
MODEL 6
REMARK VINA RESULT:      -7.3      1.523      6.714
REMARK SMILES Cn1cc2cc(F)c(-c3ccc4[nH]ccc4c3)c(F)c2n1
REMARK SMILES IDX 1 1 2 2 3 3 4 4 5 5 6 6 7 7 8 8 18 9 19 10 20 11 21 12 9 13
REMARK SMILES IDX 10 14 17 15 11 16 16 17 12 18 15 19 13 20 14 21
REMARK H PARENT 13 22
ROOT
ATOM      1  C   UNL     1      46.957 131.022  13.793  1.00  0.00     0.173 C 
ATOM      2  N   UNL     1      46.047 131.116  14.925  1.00  0.00    -0.274 N 
ATOM      3  C   UNL     1      44.768 131.556  14.870  1.00  0.00     0.117 A 
ATOM      4  C   UNL     1      44.288 131.556  16.158  1.00  0.00     0.026 A 
ATOM      5  C   UNL     1      43.056 131.911  16.692  1.00  0.00     0.052 A 
ATOM      6  C   UNL     1      42.891 131.805  18.085  1.00  0.00     0.134 A 
ATOM      7  F   UNL     1      41.685 132.116  18.626  1.00  0.00    -0.206 F 
ATOM      8  C   UNL     1      43.959 131.350  18.911  1.00  0.00     0.056 A 
ATOM      9  C   UNL     1      45.199 131.001  18.319  1.00  0.00     0.162 A 
ATOM     10  F   UNL     1      46.256 130.593  19.067  1.00  0.00    -0.204 F 
ATOM     11  C   UNL     1      45.321 131.118  16.937  1.00  0.00     0.129 A 
ATOM     12  N   UNL     1      46.402 130.857  16.180  1.00  0.00    -0.170 NA
ENDROOT
BRANCH   8  13
ATOM     13  C   UNL     1      43.778 131.244  20.377  1.00  0.00    -0.012 A 
ATOM     14  C   UNL     1      42.978 132.191  21.071  1.00  0.00     0.011 A 
ATOM     15  C   UNL     1      44.403 130.199  21.096  1.00  0.00     0.019 A 
ATOM     16  C   UNL     1      42.800 132.100  22.462  1.00  0.00     0.027 A 
ATOM     17  C   UNL     1      44.204 130.139  22.473  1.00  0.00    -0.000 A 
ATOM     18  C   UNL     1      43.431 131.056  23.133  1.00  0.00     0.045 A 
ATOM     19  C   UNL     1      44.676 129.248  23.410  1.00  0.00     0.028 A 
ATOM     20  N   UNL     1      43.391 130.788  24.448  1.00  0.00    -0.361 N 
ATOM     21  C   UNL     1      44.151 129.683  24.623  1.00  0.00     0.083 A 
ATOM     22  H   UNL     1      42.880 131.319  25.187  1.00  0.00     0.166 HD
ENDBRANCH   8  13
TORSDOF 1
ENDMDL
MODEL 7
REMARK VINA RESULT:      -7.1      1.224      6.828
REMARK SMILES Cn1cc2cc(F)c(-c3ccc4[nH]ccc4c3)c(F)c2n1
REMARK SMILES IDX 1 1 2 2 3 3 4 4 5 5 6 6 7 7 8 8 18 9 19 10 20 11 21 12 9 13
REMARK SMILES IDX 10 14 17 15 11 16 16 17 12 18 15 19 13 20 14 21
REMARK H PARENT 13 22
ROOT
ATOM      1  C   UNL     1      48.284 129.663  12.857  1.00  0.00     0.173 C 
ATOM      2  N   UNL     1      47.307 130.047  13.865  1.00  0.00    -0.274 N 
ATOM      3  C   UNL     1      46.157 130.721  13.627  1.00  0.00     0.117 A 
ATOM      4  C   UNL     1      45.563 130.944  14.847  1.00  0.00     0.026 A 
ATOM      5  C   UNL     1      44.384 131.585  15.204  1.00  0.00     0.052 A 
ATOM      6  C   UNL     1      44.065 131.654  16.573  1.00  0.00     0.134 A 
ATOM      7  F   UNL     1      42.902 132.247  16.944  1.00  0.00    -0.206 F 
ATOM      8  C   UNL     1      44.931 131.083  17.550  1.00  0.00     0.056 A 
ATOM      9  C   UNL     1      46.124 130.441  17.136  1.00  0.00     0.162 A 
ATOM     10  F   UNL     1      46.997 129.911  18.031  1.00  0.00    -0.204 F 
ATOM     11  C   UNL     1      46.403 130.392  15.773  1.00  0.00     0.129 A 
ATOM     12  N   UNL     1      47.476 129.850  15.169  1.00  0.00    -0.170 NA
ENDROOT
BRANCH   8  13
ATOM     13  C   UNL     1      44.589 131.163  18.989  1.00  0.00    -0.012 A 
ATOM     14  C   UNL     1      45.450 130.593  19.964  1.00  0.00     0.011 A 
ATOM     15  C   UNL     1      43.398 131.806  19.401  1.00  0.00     0.019 A 
ATOM     16  C   UNL     1      45.134 130.662  21.332  1.00  0.00     0.027 A 
ATOM     17  C   UNL     1      43.118 131.856  20.764  1.00  0.00    -0.000 A 
ATOM     18  C   UNL     1      43.954 131.304  21.697  1.00  0.00     0.045 A 
ATOM     19  C   UNL     1      42.054 132.410  21.441  1.00  0.00     0.028 A 
ATOM     20  N   UNL     1      43.470 131.482  22.936  1.00  0.00    -0.361 N 
ATOM     21  C   UNL     1      42.308 132.157  22.786  1.00  0.00     0.083 A 
ATOM     22  H   UNL     1      43.899 131.166  23.835  1.00  0.00     0.166 HD
ENDBRANCH   8  13
TORSDOF 1
ENDMDL
MODEL 8
REMARK VINA RESULT:      -7.1      1.283      2.281
REMARK SMILES Cn1cc2cc(F)c(-c3ccc4[nH]ccc4c3)c(F)c2n1
REMARK SMILES IDX 1 1 2 2 3 3 4 4 5 5 6 6 7 7 8 8 18 9 19 10 20 11 21 12 9 13
REMARK SMILES IDX 10 14 17 15 11 16 16 17 12 18 15 19 13 20 14 21
REMARK H PARENT 13 22
ROOT
ATOM      1  C   UNL     1      41.688 132.220  23.850  1.00  0.00     0.173 C 
ATOM      2  N   UNL     1      42.561 131.820  22.756  1.00  0.00    -0.274 N 
ATOM      3  C   UNL     1      43.768 131.223  22.892  1.00  0.00     0.117 A 
ATOM      4  C   UNL     1      44.291 131.083  21.628  1.00  0.00     0.026 A 
ATOM      5  C   UNL     1      45.489 130.548  21.171  1.00  0.00     0.052 A 
ATOM      6  C   UNL     1      45.729 130.571  19.784  1.00  0.00     0.134 A 
ATOM      7  F   UNL     1      46.878 130.026  19.311  1.00  0.00    -0.206 F 
ATOM      8  C   UNL     1      44.770 131.128  18.890  1.00  0.00     0.056 A 
ATOM      9  C   UNL     1      43.563 131.663  19.406  1.00  0.00     0.162 A 
ATOM     10  F   UNL     1      42.633 132.234  18.597  1.00  0.00    -0.204 F 
ATOM     11  C   UNL     1      43.362 131.620  20.782  1.00  0.00     0.129 A 
ATOM     12  N   UNL     1      42.306 132.080  21.477  1.00  0.00    -0.170 NA
ENDROOT
BRANCH   8  13
ATOM     13  C   UNL     1      45.032 131.151  17.432  1.00  0.00    -0.012 A 
ATOM     14  C   UNL     1      44.151 131.837  16.556  1.00  0.00     0.011 A 
ATOM     15  C   UNL     1      46.163 130.485  16.905  1.00  0.00     0.019 A 
ATOM     16  C   UNL     1      44.390 131.864  15.170  1.00  0.00     0.027 A 
ATOM     17  C   UNL     1      46.369 130.533  15.528  1.00  0.00    -0.000 A 
ATOM     18  C   UNL     1      45.514 131.197  14.691  1.00  0.00     0.045 A 
ATOM     19  C   UNL     1      47.368 129.989  14.751  1.00  0.00     0.028 A 
ATOM     20  N   UNL     1      45.925 131.101  13.416  1.00  0.00    -0.361 N 
ATOM     21  C   UNL     1      47.058 130.363  13.447  1.00  0.00     0.083 A 
ATOM     22  H   UNL     1      45.467 131.510  12.571  1.00  0.00     0.166 HD
ENDBRANCH   8  13
TORSDOF 1
ENDMDL


