MODEL 1
REMARK VINA RESULT:      -6.4      0.000      0.000
REMARK SMILES CC(C)(C)COC(=O)N(c1ccc2cc[nH]c2c1)c1c(O)c(-n2[nH+]c3ccccc3[nH+]2)cc2cnoc12
REMARK SMILES IDX 7 1 8 2 6 3 5 4 2 5 1 6 3 7 4 8 9 9 10 10 11 11 18 12 12 13
REMARK SMILES IDX 17 14 13 15 16 16 14 17 15 18 19 20 37 21 20 22 36 23 33 24
REMARK SMILES IDX 22 25 35 26 34 27 32 28 21 29 23 31 24 32 31 33 25 34 30 35
REMARK SMILES IDX 26 36 29 37 27 38 28 39
REMARK H PARENT 16 19 21 30 24 40 31 41
ROOT
ATOM      1  C   UNL     1      45.680 132.298  22.176  1.00  0.00     0.419 C 
ATOM      2  O   UNL     1      45.305 132.713  23.308  1.00  0.00    -0.224 OA
ENDROOT
BRANCH   1   3
ATOM      3  O   UNL     1      46.799 132.861  21.555  1.00  0.00    -0.448 OA
BRANCH   3   4
ATOM      4  C   UNL     1      48.044 133.042  22.221  1.00  0.00     0.241 C 
BRANCH   4   5
ATOM      5  C   UNL     1      48.224 134.516  22.649  1.00  0.00    -0.004 C 
ATOM      6  C   UNL     1      47.551 135.449  21.621  1.00  0.00     0.014 C 
ATOM      7  C   UNL     1      47.569 134.725  24.029  1.00  0.00     0.014 C 
ATOM      8  C   UNL     1      49.726 134.857  22.747  1.00  0.00     0.014 C 
ENDBRANCH   4   5
ENDBRANCH   3   4
ENDBRANCH   1   3
BRANCH   1   9
ATOM      9  N   UNL     1      44.956 131.247  21.518  1.00  0.00    -0.239 N 
BRANCH   9  10
ATOM     10  C   UNL     1      44.548 130.084  22.249  1.00  0.00     0.055 A 
ATOM     11  C   UNL     1      43.607 130.211  23.301  1.00  0.00     0.027 A 
ATOM     12  C   UNL     1      45.087 128.819  21.925  1.00  0.00     0.053 A 
ATOM     13  C   UNL     1      43.201 129.082  24.034  1.00  0.00     0.012 A 
ATOM     14  C   UNL     1      44.655 127.718  22.664  1.00  0.00     0.047 A 
ATOM     15  C   UNL     1      43.748 127.848  23.685  1.00  0.00    -0.000 A 
ATOM     16  N   UNL     1      45.024 126.436  22.510  1.00  0.00    -0.361 N 
ATOM     17  C   UNL     1      43.534 126.591  24.205  1.00  0.00     0.028 A 
ATOM     18  C   UNL     1      44.341 125.742  23.451  1.00  0.00     0.083 A 
ATOM     19  H   UNL     1      45.693 126.047  21.809  1.00  0.00     0.166 HD
ENDBRANCH   9  10
BRANCH   9  20
ATOM     20  C   UNL     1      44.524 131.400  20.158  1.00  0.00     0.143 A 
ATOM     21  C   UNL     1      43.250 131.883  19.866  1.00  0.00     0.194 A 
ATOM     22  C   UNL     1      45.389 131.123  19.070  1.00  0.00     0.180 A 
ATOM     23  O   UNL     1      42.287 132.213  20.691  1.00  0.00    -0.354 OA
ATOM     24  C   UNL     1      42.828 132.076  18.589  1.00  0.00     0.047 A 
ATOM     25  C   UNL     1      44.932 131.306  17.728  1.00  0.00     0.212 A 
ATOM     26  N   UNL     1      41.242 132.619  20.021  1.00  0.00    -0.087 NA
ATOM     27  C   UNL     1      41.544 132.546  18.703  1.00  0.00     0.167 A 
ATOM     28  C   UNL     1      43.632 131.803  17.491  1.00  0.00     0.057 A 
BRANCH  22  29
ATOM     29  O   UNL     1      46.696 130.721  19.346  1.00  0.00    -0.504 OA
ATOM     30  H   UNL     1      46.966 130.278  20.214  1.00  0.00     0.293 HD
ENDBRANCH  22  29
BRANCH  25  31
ATOM     31  N   UNL     1      45.773 131.006  16.602  1.00  0.00     0.083 N 
ATOM     32  N   UNL     1      46.033 131.866  15.620  1.00  0.00    -0.062 N 
ATOM     33  N   UNL     1      46.309 129.812  16.356  1.00  0.00    -0.062 N 
ATOM     34  C   UNL     1      46.780 131.198  14.728  1.00  0.00     0.306 A 
ATOM     35  C   UNL     1      46.949 129.924  15.182  1.00  0.00     0.306 A 
ATOM     36  C   UNL     1      47.319 131.635  13.520  1.00  0.00     0.089 A 
ATOM     37  C   UNL     1      47.666 128.969  14.467  1.00  0.00     0.089 A 
ATOM     38  C   UNL     1      48.059 130.698  12.769  1.00  0.00     0.007 A 
ATOM     39  C   UNL     1      48.230 129.372  13.239  1.00  0.00     0.007 A 
ATOM     40  H   UNL     1      45.709 132.858  15.569  1.00  0.00     0.495 HD
ATOM     41  H   UNL     1      46.214 128.959  16.949  1.00  0.00     0.495 HD
ENDBRANCH  25  31
ENDBRANCH   9  20
ENDBRANCH   1   9
TORSDOF 8
ENDMDL


