REMARK SMILES CC(=O)c1ccc([NH2+]c2ccc3[nH]ccc3c2)c2c1CCC2
REMARK SMILES IDX 4 1 5 2 6 3 7 4 18 5 19 6 20 7 21 8 22 9 2 10 1 11 3 12 8 13
REMARK SMILES IDX 9 16 10 17 17 18 11 19 16 20 12 21 15 22 13 23 14 24
REMARK H PARENT 8 14 8 15 13 25
ROOT
ATOM      1  C   UNL     1      -2.585   0.257  -0.608  1.00  0.00     0.021 A 
ATOM      2  C   UNL     1      -2.458   0.132   0.791  1.00  0.00     0.018 A 
ATOM      3  C   UNL     1      -1.546   0.919   1.506  1.00  0.00     0.069 A 
ATOM      4  C   UNL     1      -0.720   1.847   0.846  1.00  0.00     0.138 A 
ATOM      5  C   UNL     1      -0.854   1.970  -0.552  1.00  0.00     0.017 A 
ATOM      6  C   UNL     1      -1.760   1.204  -1.256  1.00  0.00    -0.028 A 
ATOM      7  C   UNL     1      -1.724   1.526  -2.709  1.00  0.00     0.037 C 
ATOM      8  C   UNL     1      -0.582   2.541  -2.855  1.00  0.00     0.010 C 
ATOM      9  C   UNL     1      -0.122   2.912  -1.440  1.00  0.00     0.042 C 
ENDROOT
BRANCH   1  10
ATOM     10  C   UNL     1      -3.564  -0.584  -1.354  1.00  0.00     0.160 C 
ATOM     11  C   UNL     1      -4.158  -1.820  -0.749  1.00  0.00     0.093 C 
ATOM     12  O   UNL     1      -3.940  -0.248  -2.510  1.00  0.00    -0.295 OA
ENDBRANCH   1  10
BRANCH   4  13
ATOM     13  N   UNL     1       0.219   2.646   1.599  1.00  0.00    -0.281 N 
ATOM     14  H   UNL     1       0.626   3.415   1.020  1.00  0.00     0.358 HD
ATOM     15  H   UNL     1      -0.288   3.106   2.391  1.00  0.00     0.358 HD
BRANCH  13  16
ATOM     16  C   UNL     1       1.287   1.815   2.101  1.00  0.00     0.135 A 
ATOM     17  C   UNL     1       2.360   1.435   1.251  1.00  0.00     0.070 A 
ATOM     18  C   UNL     1       1.258   1.346   3.437  1.00  0.00     0.078 A 
ATOM     19  C   UNL     1       3.393   0.604   1.721  1.00  0.00     0.033 A 
ATOM     20  C   UNL     1       2.298   0.526   3.867  1.00  0.00     0.005 A 
ATOM     21  C   UNL     1       3.328   0.167   3.041  1.00  0.00     0.046 A 
ATOM     22  C   UNL     1       2.524  -0.067   5.090  1.00  0.00     0.028 A 
ATOM     23  N   UNL     1       4.200  -0.627   3.683  1.00  0.00    -0.361 N 
ATOM     24  C   UNL     1       3.713  -0.773   4.937  1.00  0.00     0.083 A 
ATOM     25  H   UNL     1       5.075  -1.047   3.297  1.00  0.00     0.166 HD
ENDBRANCH  13  16
ENDBRANCH   4  13
TORSDOF 3


