REMARK SMILES Fc1ccc2cc(-c3ncncc3F)[nH]c2c1
REMARK SMILES IDX 1 1 2 2 3 3 4 4 5 5 6 6 7 7 15 8 16 9 17 10 8 12 9 13 13 14
REMARK SMILES IDX 10 15 12 16 11 17 14 18
REMARK H PARENT 15 11
ROOT
ATOM      1  F   UNL     1       2.785   3.967   1.874  1.00  0.00    -0.207 F 
ATOM      2  C   UNL     1       1.847   3.257   1.200  1.00  0.00     0.125 A 
ATOM      3  C   UNL     1       1.029   3.901   0.244  1.00  0.00     0.040 A 
ATOM      4  C   UNL     1       0.052   3.176  -0.463  1.00  0.00     0.013 A 
ATOM      5  C   UNL     1      -0.075   1.817  -0.186  1.00  0.00     0.000 A 
ATOM      6  C   UNL     1      -0.928   0.871  -0.712  1.00  0.00     0.038 A 
ATOM      7  C   UNL     1      -0.601  -0.323  -0.057  1.00  0.00     0.068 A 
ATOM      8  N   UNL     1       0.406  -0.112   0.828  1.00  0.00    -0.353 N 
ATOM      9  C   UNL     1       0.716   1.191   0.739  1.00  0.00     0.049 A 
ATOM     10  C   UNL     1       1.693   1.881   1.456  1.00  0.00     0.066 A 
ATOM     11  H   UNL     1       0.857  -0.815   1.456  1.00  0.00     0.167 HD
ENDROOT
BRANCH   7  12
ATOM     12  C   UNL     1      -1.222  -1.659  -0.252  1.00  0.00     0.126 A 
ATOM     13  N   UNL     1      -0.752  -2.698   0.493  1.00  0.00    -0.232 NA
ATOM     14  C   UNL     1      -2.269  -1.903  -1.164  1.00  0.00     0.169 A 
ATOM     15  C   UNL     1      -1.263  -3.950   0.377  1.00  0.00     0.222 A 
ATOM     16  C   UNL     1      -2.779  -3.198  -1.266  1.00  0.00     0.154 A 
ATOM     17  N   UNL     1      -2.271  -4.194  -0.498  1.00  0.00    -0.242 NA
ATOM     18  F   UNL     1      -2.798  -0.931  -1.944  1.00  0.00    -0.203 F 
ENDBRANCH   7  12
TORSDOF 1


