REMARK SMILES C=Cc1ccc(-c2cccc3ccoc23)[nH+]c1
REMARK SMILES IDX 3 1 4 2 5 3 6 4 16 5 17 6 2 8 1 9 7 10 8 11 15 12 9 13 14 14
REMARK SMILES IDX 11 15 10 16 13 17 12 18
REMARK H PARENT 16 7
ROOT
ATOM      1  C   UNL     1       1.804   1.005  -2.230  1.00  0.00     0.038 A 
ATOM      2  C   UNL     1       1.456   2.142  -1.490  1.00  0.00     0.021 A 
ATOM      3  C   UNL     1       0.495   2.063  -0.484  1.00  0.00     0.081 A 
ATOM      4  C   UNL     1      -0.131   0.837  -0.216  1.00  0.00     0.214 A 
ATOM      5  N   UNL     1       0.205  -0.260  -0.956  1.00  0.00    -0.210 N 
ATOM      6  C   UNL     1       1.141  -0.203  -1.943  1.00  0.00     0.314 A 
ATOM      7  H   UNL     1      -0.280  -1.171  -0.794  1.00  0.00     0.453 HD
ENDROOT
BRANCH   1   8
ATOM      8  C   UNL     1       2.827   1.132  -3.298  1.00  0.00     0.006 C 
ATOM      9  C   UNL     1       3.461   0.100  -3.857  1.00  0.00     0.009 C 
ENDBRANCH   1   8
BRANCH   4  10
ATOM     10  C   UNL     1      -1.151   0.736   0.856  1.00  0.00     0.089 A 
ATOM     11  C   UNL     1      -2.124   1.746   1.045  1.00  0.00     0.019 A 
ATOM     12  C   UNL     1      -1.193  -0.361   1.728  1.00  0.00     0.147 A 
ATOM     13  C   UNL     1      -3.092   1.633   2.067  1.00  0.00     0.002 A 
ATOM     14  O   UNL     1      -0.391  -1.398   1.763  1.00  0.00    -0.463 OA
ATOM     15  C   UNL     1      -2.136  -0.463   2.716  1.00  0.00     0.021 A 
ATOM     16  C   UNL     1      -3.104   0.515   2.919  1.00  0.00     0.012 A 
ATOM     17  C   UNL     1      -0.787  -2.183   2.749  1.00  0.00     0.196 A 
ATOM     18  C   UNL     1      -1.893  -1.637   3.389  1.00  0.00     0.050 A 
ENDBRANCH   4  10
TORSDOF 2


