MODEL 1
REMARK VINA RESULT:      -6.2      0.000      0.000
REMARK SMILES CO/C(O)=C\[C](C)Oc1ccc([C@H]2O[C@@H]2C(=O)c2ccc(F)cc2)cc1F
REMARK SMILES IDX 8 1 6 2 7 3 5 4 3 5 4 6 2 8 1 9 9 10 10 11 26 12 11 13 25 14
REMARK SMILES IDX 12 15 27 16 13 17 14 18 15 19 16 20 17 21 18 22 19 23 24 24
REMARK SMILES IDX 20 25 23 26 21 27 22 28
REMARK H PARENT 4 7
ROOT
ATOM      1  O   UNL     1      43.362 132.430  22.324  1.00  0.00    -0.476 OA
ENDROOT
BRANCH   1   2
ATOM      2  C   UNL     1      43.333 131.452  23.360  1.00  0.00     0.174 C 
ATOM      3  C   UNL     1      42.129 130.530  23.190  1.00  0.00     0.066 C 
BRANCH   2   4
ATOM      4  C   UNL     1      44.607 130.670  23.345  1.00  0.00     0.113 C 
BRANCH   4   5
ATOM      5  C   UNL     1      44.602 129.339  23.362  1.00  0.00     0.276 C 
BRANCH   5   6
ATOM      6  O   UNL     1      44.960 128.651  22.201  1.00  0.00    -0.481 OA
ATOM      7  H   UNL     1      44.274 128.234  21.585  1.00  0.00     0.296 HD
ENDBRANCH   5   6
BRANCH   5   8
ATOM      8  O   UNL     1      44.241 128.659  24.534  1.00  0.00    -0.469 OA
ATOM      9  C   UNL     1      43.209 127.682  24.590  1.00  0.00     0.282 C 
ENDBRANCH   5   8
ENDBRANCH   4   5
ENDBRANCH   2   4
ENDBRANCH   1   2
BRANCH   1  10
ATOM     10  C   UNL     1      43.317 132.120  20.958  1.00  0.00     0.156 A 
ATOM     11  C   UNL     1      42.125 132.197  20.213  1.00  0.00     0.050 A 
ATOM     12  C   UNL     1      44.501 131.734  20.317  1.00  0.00     0.165 A 
ATOM     13  C   UNL     1      42.122 131.881  18.852  1.00  0.00     0.010 A 
ATOM     14  C   UNL     1      44.497 131.418  18.955  1.00  0.00     0.049 A 
ATOM     15  C   UNL     1      43.306 131.474  18.218  1.00  0.00    -0.013 A 
ATOM     16  F   UNL     1      45.661 131.666  21.018  1.00  0.00    -0.203 F 
BRANCH  15  17
ATOM     17  C   UNL     1      43.318 131.165  16.749  1.00  0.00     0.186 C 
ATOM     18  O   UNL     1      42.999 132.312  15.997  1.00  0.00    -0.356 OA
ATOM     19  C   UNL     1      44.334 131.870  15.926  1.00  0.00     0.224 C 
BRANCH  19  20
ATOM     20  C   UNL     1      44.626 131.270  14.582  1.00  0.00     0.194 C 
ATOM     21  O   UNL     1      43.715 131.282  13.710  1.00  0.00    -0.291 OA
BRANCH  20  22
ATOM     22  C   UNL     1      45.955 130.696  14.250  1.00  0.00     0.021 A 
ATOM     23  C   UNL     1      46.438 129.548  14.908  1.00  0.00     0.015 A 
ATOM     24  C   UNL     1      46.761 131.301  13.266  1.00  0.00     0.015 A 
ATOM     25  C   UNL     1      47.691 129.016  14.584  1.00  0.00     0.040 A 
ATOM     26  C   UNL     1      48.013 130.767  12.947  1.00  0.00     0.040 A 
ATOM     27  C   UNL     1      48.477 129.625  13.603  1.00  0.00     0.123 A 
ATOM     28  F   UNL     1      49.692 129.109  13.292  1.00  0.00    -0.207 F 
ENDBRANCH  20  22
ENDBRANCH  19  20
ENDBRANCH  15  17
ENDBRANCH   1  10
TORSDOF 9
ENDMDL
MODEL 2
REMARK VINA RESULT:      -3.7      1.649      2.254
REMARK SMILES CO/C(O)=C\[C](C)Oc1ccc([C@H]2O[C@@H]2C(=O)c2ccc(F)cc2)cc1F
REMARK SMILES IDX 8 1 6 2 7 3 5 4 3 5 4 6 2 8 1 9 9 10 10 11 26 12 11 13 25 14
REMARK SMILES IDX 12 15 27 16 13 17 14 18 15 19 16 20 17 21 18 22 19 23 24 24
REMARK SMILES IDX 20 25 23 26 21 27 22 28
REMARK H PARENT 4 7
ROOT
ATOM      1  O   UNL     1      41.802 132.272  22.173  1.00  0.00    -0.476 OA
ENDROOT
BRANCH   1   2
ATOM      2  C   UNL     1      42.365 131.929  23.435  1.00  0.00     0.174 C 
ATOM      3  C   UNL     1      41.326 131.238  24.313  1.00  0.00     0.066 C 
BRANCH   2   4
ATOM      4  C   UNL     1      43.556 131.048  23.228  1.00  0.00     0.113 C 
BRANCH   4   5
ATOM      5  C   UNL     1      44.601 131.093  24.052  1.00  0.00     0.276 C 
BRANCH   5   6
ATOM      6  O   UNL     1      45.293 129.912  24.324  1.00  0.00    -0.481 OA
ATOM      7  H   UNL     1      46.100 129.620  23.786  1.00  0.00     0.296 HD
ENDBRANCH   5   6
BRANCH   5   8
ATOM      8  O   UNL     1      44.983 132.315  24.625  1.00  0.00    -0.469 OA
ATOM      9  C   UNL     1      46.164 133.019  24.260  1.00  0.00     0.282 C 
ENDBRANCH   5   8
ENDBRANCH   4   5
ENDBRANCH   2   4
ENDBRANCH   1   2
BRANCH   1  10
ATOM     10  C   UNL     1      42.501 132.193  20.960  1.00  0.00     0.156 A 
ATOM     11  C   UNL     1      43.856 131.814  20.901  1.00  0.00     0.050 A 
ATOM     12  C   UNL     1      41.821 132.489  19.772  1.00  0.00     0.165 A 
ATOM     13  C   UNL     1      44.516 131.745  19.671  1.00  0.00     0.010 A 
ATOM     14  C   UNL     1      42.483 132.420  18.542  1.00  0.00     0.049 A 
ATOM     15  C   UNL     1      43.838 132.064  18.485  1.00  0.00    -0.013 A 
ATOM     16  F   UNL     1      40.512 132.845  19.810  1.00  0.00    -0.203 F 
BRANCH  15  17
ATOM     17  C   UNL     1      44.530 131.961  17.158  1.00  0.00     0.186 C 
ATOM     18  O   UNL     1      45.503 130.942  17.182  1.00  0.00    -0.356 OA
ATOM     19  C   UNL     1      44.353 130.691  16.408  1.00  0.00     0.224 C 
BRANCH  19  20
ATOM     20  C   UNL     1      44.677 130.739  14.944  1.00  0.00     0.194 C 
ATOM     21  O   UNL     1      43.790 131.148  14.147  1.00  0.00    -0.291 OA
BRANCH  20  22
ATOM     22  C   UNL     1      46.013 130.349  14.422  1.00  0.00     0.021 A 
ATOM     23  C   UNL     1      46.665 129.189  14.883  1.00  0.00     0.015 A 
ATOM     24  C   UNL     1      46.653 131.146  13.453  1.00  0.00     0.015 A 
ATOM     25  C   UNL     1      47.921 128.833  14.380  1.00  0.00     0.040 A 
ATOM     26  C   UNL     1      47.910 130.787  12.956  1.00  0.00     0.040 A 
ATOM     27  C   UNL     1      48.542 129.631  13.417  1.00  0.00     0.123 A 
ATOM     28  F   UNL     1      49.761 129.284  12.933  1.00  0.00    -0.207 F 
ENDBRANCH  20  22
ENDBRANCH  19  20
ENDBRANCH  15  17
ENDBRANCH   1  10
TORSDOF 9
ENDMDL
MODEL 3
REMARK VINA RESULT:      -3.7      2.311      3.325
REMARK SMILES CO/C(O)=C\[C](C)Oc1ccc([C@H]2O[C@@H]2C(=O)c2ccc(F)cc2)cc1F
REMARK SMILES IDX 8 1 6 2 7 3 5 4 3 5 4 6 2 8 1 9 9 10 10 11 26 12 11 13 25 14
REMARK SMILES IDX 12 15 27 16 13 17 14 18 15 19 16 20 17 21 18 22 19 23 24 24
REMARK SMILES IDX 20 25 23 26 21 27 22 28
REMARK H PARENT 4 7
ROOT
ATOM      1  O   UNL     1      42.796 128.374  23.914  1.00  0.00    -0.476 OA
ENDROOT
BRANCH   1   2
ATOM      2  C   UNL     1      41.406 128.183  24.162  1.00  0.00     0.174 C 
ATOM      3  C   UNL     1      40.574 128.809  23.047  1.00  0.00     0.066 C 
BRANCH   2   4
ATOM      4  C   UNL     1      41.117 126.720  24.283  1.00  0.00     0.113 C 
BRANCH   4   5
ATOM      5  C   UNL     1      41.965 125.806  23.816  1.00  0.00     0.276 C 
BRANCH   5   6
ATOM      6  O   UNL     1      42.472 125.958  22.525  1.00  0.00    -0.481 OA
ATOM      7  H   UNL     1      43.400 126.322  22.346  1.00  0.00     0.296 HD
ENDBRANCH   5   6
BRANCH   5   8
ATOM      8  O   UNL     1      42.329 124.719  24.624  1.00  0.00    -0.469 OA
ATOM      9  C   UNL     1      42.086 123.363  24.273  1.00  0.00     0.282 C 
ENDBRANCH   5   8
ENDBRANCH   4   5
ENDBRANCH   2   4
ENDBRANCH   1   2
BRANCH   1  10
ATOM     10  C   UNL     1      43.301 129.140  22.854  1.00  0.00     0.156 A 
ATOM     11  C   UNL     1      42.675 130.326  22.424  1.00  0.00     0.050 A 
ATOM     12  C   UNL     1      44.471 128.713  22.215  1.00  0.00     0.165 A 
ATOM     13  C   UNL     1      43.212 131.062  21.364  1.00  0.00     0.010 A 
ATOM     14  C   UNL     1      45.007 129.451  21.154  1.00  0.00     0.049 A 
ATOM     15  C   UNL     1      44.373 130.620  20.712  1.00  0.00    -0.013 A 
ATOM     16  F   UNL     1      45.093 127.579  22.624  1.00  0.00    -0.203 F 
BRANCH  15  17
ATOM     17  C   UNL     1      44.973 131.422  19.595  1.00  0.00     0.186 C 
ATOM     18  O   UNL     1      46.260 130.944  19.276  1.00  0.00    -0.356 OA
ATOM     19  C   UNL     1      45.248 130.699  18.327  1.00  0.00     0.224 C 
BRANCH  19  20
ATOM     20  C   UNL     1      45.443 131.554  17.110  1.00  0.00     0.194 C 
ATOM     21  O   UNL     1      45.030 132.745  17.142  1.00  0.00    -0.291 OA
BRANCH  20  22
ATOM     22  C   UNL     1      46.129 131.045  15.893  1.00  0.00     0.021 A 
ATOM     23  C   UNL     1      46.666 129.744  15.850  1.00  0.00     0.015 A 
ATOM     24  C   UNL     1      46.256 131.868  14.757  1.00  0.00     0.015 A 
ATOM     25  C   UNL     1      47.307 129.277  14.698  1.00  0.00     0.040 A 
ATOM     26  C   UNL     1      46.899 131.397  13.608  1.00  0.00     0.040 A 
ATOM     27  C   UNL     1      47.422 130.103  13.577  1.00  0.00     0.123 A 
ATOM     28  F   UNL     1      48.045 129.648  12.462  1.00  0.00    -0.207 F 
ENDBRANCH  20  22
ENDBRANCH  19  20
ENDBRANCH  15  17
ENDBRANCH   1  10
TORSDOF 9
ENDMDL
MODEL 4
REMARK VINA RESULT:      -3.5      2.515      8.862
REMARK SMILES CO/C(O)=C\[C](C)Oc1ccc([C@H]2O[C@@H]2C(=O)c2ccc(F)cc2)cc1F
REMARK SMILES IDX 8 1 6 2 7 3 5 4 3 5 4 6 2 8 1 9 9 10 10 11 26 12 11 13 25 14
REMARK SMILES IDX 12 15 27 16 13 17 14 18 15 19 16 20 17 21 18 22 19 23 24 24
REMARK SMILES IDX 20 25 23 26 21 27 22 28
REMARK H PARENT 4 7
ROOT
ATOM      1  O   UNL     1      44.354 131.295  15.375  1.00  0.00    -0.476 OA
ENDROOT
BRANCH   1   2
ATOM      2  C   UNL     1      45.072 130.485  14.449  1.00  0.00     0.174 C 
ATOM      3  C   UNL     1      45.110 131.149  13.076  1.00  0.00     0.066 C 
BRANCH   2   4
ATOM      4  C   UNL     1      46.457 130.247  14.962  1.00  0.00     0.113 C 
BRANCH   4   5
ATOM      5  C   UNL     1      47.526 130.647  14.277  1.00  0.00     0.276 C 
BRANCH   5   6
ATOM      6  O   UNL     1      47.541 131.939  13.749  1.00  0.00    -0.481 OA
ATOM      7  H   UNL     1      47.181 132.736  14.258  1.00  0.00     0.296 HD
ENDBRANCH   5   6
BRANCH   5   8
ATOM      8  O   UNL     1      48.606 129.770  14.101  1.00  0.00    -0.469 OA
ATOM      9  C   UNL     1      48.822 129.018  12.913  1.00  0.00     0.282 C 
ENDBRANCH   5   8
ENDBRANCH   4   5
ENDBRANCH   2   4
ENDBRANCH   1   2
BRANCH   1  10
ATOM     10  C   UNL     1      44.480 131.186  16.767  1.00  0.00     0.156 A 
ATOM     11  C   UNL     1      45.632 130.651  17.374  1.00  0.00     0.050 A 
ATOM     12  C   UNL     1      43.429 131.638  17.574  1.00  0.00     0.165 A 
ATOM     13  C   UNL     1      45.719 130.562  18.766  1.00  0.00     0.010 A 
ATOM     14  C   UNL     1      43.517 131.548  18.967  1.00  0.00     0.049 A 
ATOM     15  C   UNL     1      44.655 130.996  19.570  1.00  0.00    -0.013 A 
ATOM     16  F   UNL     1      42.316 132.167  17.006  1.00  0.00    -0.203 F 
BRANCH  15  17
ATOM     17  C   UNL     1      44.755 130.933  21.066  1.00  0.00     0.186 C 
ATOM     18  O   UNL     1      44.422 132.177  21.639  1.00  0.00    -0.356 OA
ATOM     19  C   UNL     1      43.495 131.135  21.829  1.00  0.00     0.224 C 
BRANCH  19  20
ATOM     20  C   UNL     1      43.505 130.667  23.254  1.00  0.00     0.194 C 
ATOM     21  O   UNL     1      43.624 131.529  24.167  1.00  0.00    -0.291 OA
BRANCH  20  22
ATOM     22  C   UNL     1      43.352 129.232  23.611  1.00  0.00     0.021 A 
ATOM     23  C   UNL     1      44.401 128.314  23.406  1.00  0.00     0.015 A 
ATOM     24  C   UNL     1      42.141 128.766  24.159  1.00  0.00     0.015 A 
ATOM     25  C   UNL     1      44.243 126.967  23.748  1.00  0.00     0.040 A 
ATOM     26  C   UNL     1      41.989 127.418  24.498  1.00  0.00     0.040 A 
ATOM     27  C   UNL     1      43.038 126.520  24.295  1.00  0.00     0.123 A 
ATOM     28  F   UNL     1      42.887 125.213  24.625  1.00  0.00    -0.207 F 
ENDBRANCH  20  22
ENDBRANCH  19  20
ENDBRANCH  15  17
ENDBRANCH   1  10
TORSDOF 9
ENDMDL


