REMARK SMILES O/C(=N\c1cc(F)c[nH]/c1=N/c1c[n-]c2nccc-2c1)Nc1ccc(-c2ccccc2)s1
REMARK SMILES IDX 3 1 2 2 21 3 1 5 22 7 32 8 23 9 25 10 24 11 26 12 27 13
REMARK SMILES IDX 31 14 28 15 30 16 29 17 4 18 5 19 10 20 6 21 9 22 8 23 7 24
REMARK SMILES IDX 11 26 12 27 13 28 20 29 14 30 19 31 15 32 18 33 16 34 17 35
REMARK H PARENT 21 4 1 6 9 25
ROOT
ATOM      1  N   UNL     1       0.001  -1.413  -2.532  1.00  0.00    -0.194 NA
ENDROOT
BRANCH   1   2
ATOM      2  C   UNL     1       1.164  -1.109  -3.031  1.00  0.00     0.292 C 
ATOM      3  N   UNL     1       2.045  -0.217  -2.329  1.00  0.00    -0.301 N 
ATOM      4  H   UNL     1       3.037  -0.160  -2.652  1.00  0.00     0.172 HD
BRANCH   2   5
ATOM      5  O   UNL     1       1.602  -1.700  -4.216  1.00  0.00    -0.480 OA
ATOM      6  H   UNL     1       2.513  -1.486  -4.603  1.00  0.00     0.296 HD
ENDBRANCH   2   5
BRANCH   3   7
ATOM      7  C   UNL     1       1.687   0.523  -1.153  1.00  0.00     0.097 A 
ATOM      8  S   UNL     1       0.131   0.930  -0.659  1.00  0.00    -0.118 S 
ATOM      9  C   UNL     1       2.597   1.044  -0.246  1.00  0.00     0.039 A 
ATOM     10  C   UNL     1       0.593   1.749   0.743  1.00  0.00     0.036 A 
ATOM     11  C   UNL     1       1.988   1.720   0.819  1.00  0.00     0.023 A 
BRANCH  10  12
ATOM     12  C   UNL     1      -0.338   2.335   1.740  1.00  0.00    -0.008 A 
ATOM     13  C   UNL     1      -1.710   2.018   1.702  1.00  0.00     0.009 A 
ATOM     14  C   UNL     1       0.129   3.199   2.751  1.00  0.00     0.009 A 
ATOM     15  C   UNL     1      -2.588   2.547   2.652  1.00  0.00     0.001 A 
ATOM     16  C   UNL     1      -0.755   3.726   3.697  1.00  0.00     0.001 A 
ATOM     17  C   UNL     1      -2.112   3.400   3.649  1.00  0.00     0.000 A 
ENDBRANCH  10  12
ENDBRANCH   3   7
ENDBRANCH   1   2
BRANCH   1  18
ATOM     18  C   UNL     1      -0.984  -2.277  -3.125  1.00  0.00     0.114 A 
ATOM     19  C   UNL     1      -1.248  -2.194  -4.504  1.00  0.00     0.073 A 
ATOM     20  C   UNL     1      -1.818  -3.110  -2.323  1.00  0.00     0.156 A 
ATOM     21  C   UNL     1      -2.279  -2.934  -5.073  1.00  0.00     0.141 A 
ATOM     22  N   UNL     1      -2.837  -3.795  -2.922  1.00  0.00    -0.342 N 
ATOM     23  C   UNL     1      -3.071  -3.735  -4.259  1.00  0.00     0.123 A 
ATOM     24  F   UNL     1      -2.530  -2.851  -6.403  1.00  0.00    -0.205 F 
ATOM     25  H   UNL     1      -3.461  -4.402  -2.342  1.00  0.00     0.168 HD
BRANCH  20  26
ATOM     26  N   UNL     1      -1.681  -3.246  -1.029  1.00  0.00    -0.229 NA
BRANCH  26  27
ATOM     27  C   UNL     1      -0.645  -2.767  -0.160  1.00  0.00     0.062 A 
ATOM     28  C   UNL     1       0.709  -3.164  -0.358  1.00  0.00     0.006 A 
ATOM     29  C   UNL     1      -1.000  -2.008   0.973  1.00  0.00     0.036 A 
ATOM     30  N   UNL     1       1.700  -2.760   0.495  1.00  0.00    -0.440 NA
ATOM     31  C   UNL     1       0.022  -1.622   1.825  1.00  0.00    -0.025 A 
ATOM     32  C   UNL     1       1.369  -1.996   1.562  1.00  0.00    -0.052 A 
ATOM     33  C   UNL     1       0.056  -0.875   2.973  1.00  0.00     0.003 A 
ATOM     34  N   UNL     1       2.209  -1.511   2.489  1.00  0.00    -0.442 NA
ATOM     35  C   UNL     1       1.402  -0.827   3.344  1.00  0.00    -0.022 A 
ENDBRANCH  26  27
ENDBRANCH  20  26
ENDBRANCH   1  18
TORSDOF 7


