MODEL 1
REMARK VINA RESULT:      -9.6      0.000      0.000
REMARK SMILES NN(C(=O)N1CCOCC1)c1ccc2cc3ccccc3cc2c1
REMARK SMILES IDX 2 1 1 2 3 5 5 6 6 7 10 8 7 9 9 10 8 11 4 12 11 13 12 14
REMARK SMILES IDX 24 15 13 16 23 17 14 18 22 19 15 20 21 21 16 22 20 23 17 24
REMARK SMILES IDX 19 25 18 26
REMARK H PARENT 1 3 1 4
ROOT
ATOM      1  N   UNL     1      43.903 131.408  22.883  1.00  0.00    -0.230 N 
ENDROOT
BRANCH   1   2
ATOM      2  N   UNL     1      44.921 132.139  23.521  1.00  0.00    -0.239 NA
ATOM      3  H   UNL     1      45.707 131.483  23.708  1.00  0.00     0.144 HD
ATOM      4  H   UNL     1      44.566 132.491  24.438  1.00  0.00     0.144 HD
ENDBRANCH   1   2
BRANCH   1   5
ATOM      5  C   UNL     1      43.054 130.539  23.663  1.00  0.00     0.339 C 
ATOM      6  N   UNL     1      43.403 129.161  23.878  1.00  0.00    -0.319 N 
ATOM      7  C   UNL     1      42.351 128.147  23.961  1.00  0.00     0.150 C 
ATOM      8  C   UNL     1      44.722 128.809  24.409  1.00  0.00     0.150 C 
ATOM      9  C   UNL     1      42.911 126.800  23.491  1.00  0.00     0.181 C 
ATOM     10  C   UNL     1      45.108 127.404  23.931  1.00  0.00     0.181 C 
ATOM     11  O   UNL     1      44.080 126.469  24.215  1.00  0.00    -0.378 OA
ATOM     12  O   UNL     1      41.982 130.989  24.150  1.00  0.00    -0.247 OA
ENDBRANCH   1   5
BRANCH   1  13
ATOM     13  C   UNL     1      43.790 131.482  21.448  1.00  0.00     0.063 A 
ATOM     14  C   UNL     1      42.671 132.095  20.859  1.00  0.00     0.028 A 
ATOM     15  C   UNL     1      44.791 130.947  20.616  1.00  0.00     0.036 A 
ATOM     16  C   UNL     1      42.560 132.197  19.471  1.00  0.00     0.011 A 
ATOM     17  C   UNL     1      44.697 131.063  19.221  1.00  0.00    -0.016 A 
ATOM     18  C   UNL     1      43.570 131.691  18.643  1.00  0.00    -0.018 A 
ATOM     19  C   UNL     1      45.718 130.563  18.397  1.00  0.00     0.017 A 
ATOM     20  C   UNL     1      43.475 131.809  17.249  1.00  0.00     0.017 A 
ATOM     21  C   UNL     1      45.626 130.688  17.002  1.00  0.00    -0.018 A 
ATOM     22  C   UNL     1      44.495 131.314  16.424  1.00  0.00    -0.018 A 
ATOM     23  C   UNL     1      46.649 130.203  16.173  1.00  0.00     0.009 A 
ATOM     24  C   UNL     1      44.409 131.442  15.029  1.00  0.00     0.009 A 
ATOM     25  C   UNL     1      46.552 130.337  14.786  1.00  0.00     0.001 A 
ATOM     26  C   UNL     1      45.436 130.956  14.216  1.00  0.00     0.001 A 
ENDBRANCH   1  13
TORSDOF 3
ENDMDL
MODEL 2
REMARK VINA RESULT:      -6.9      0.778      1.873
REMARK SMILES NN(C(=O)N1CCOCC1)c1ccc2cc3ccccc3cc2c1
REMARK SMILES IDX 2 1 1 2 3 5 5 6 6 7 10 8 7 9 9 10 8 11 4 12 11 13 12 14
REMARK SMILES IDX 24 15 13 16 23 17 14 18 22 19 15 20 21 21 16 22 20 23 17 24
REMARK SMILES IDX 19 25 18 26
REMARK H PARENT 1 3 1 4
ROOT
ATOM      1  N   UNL     1      43.875 131.382  22.705  1.00  0.00    -0.230 N 
ENDROOT
BRANCH   1   2
ATOM      2  N   UNL     1      44.444 132.386  23.507  1.00  0.00    -0.239 NA
ATOM      3  H   UNL     1      44.280 132.121  24.501  1.00  0.00     0.144 HD
ATOM      4  H   UNL     1      43.951 133.289  23.326  1.00  0.00     0.144 HD
ENDBRANCH   1   2
BRANCH   1   5
ATOM      5  C   UNL     1      42.813 130.560  23.235  1.00  0.00     0.339 C 
ATOM      6  N   UNL     1      43.065 129.212  23.665  1.00  0.00    -0.319 N 
ATOM      7  C   UNL     1      42.037 128.185  23.485  1.00  0.00     0.150 C 
ATOM      8  C   UNL     1      44.138 128.931  24.622  1.00  0.00     0.150 C 
ATOM      9  C   UNL     1      42.711 126.817  23.334  1.00  0.00     0.181 C 
ATOM     10  C   UNL     1      44.650 127.500  24.412  1.00  0.00     0.181 C 
ATOM     11  O   UNL     1      43.580 126.570  24.423  1.00  0.00    -0.378 OA
ATOM     12  O   UNL     1      41.644 131.025  23.310  1.00  0.00    -0.247 OA
ENDBRANCH   1   5
BRANCH   1  13
ATOM     13  C   UNL     1      44.428 131.143  21.394  1.00  0.00     0.063 A 
ATOM     14  C   UNL     1      45.637 130.443  21.255  1.00  0.00     0.028 A 
ATOM     15  C   UNL     1      43.769 131.602  20.238  1.00  0.00     0.036 A 
ATOM     16  C   UNL     1      46.171 130.182  19.992  1.00  0.00     0.011 A 
ATOM     17  C   UNL     1      44.288 131.328  18.964  1.00  0.00    -0.016 A 
ATOM     18  C   UNL     1      45.501 130.613  18.840  1.00  0.00    -0.018 A 
ATOM     19  C   UNL     1      43.606 131.754  17.813  1.00  0.00     0.017 A 
ATOM     20  C   UNL     1      46.022 130.337  17.567  1.00  0.00     0.017 A 
ATOM     21  C   UNL     1      44.123 131.469  16.540  1.00  0.00    -0.018 A 
ATOM     22  C   UNL     1      45.340 130.758  16.416  1.00  0.00    -0.018 A 
ATOM     23  C   UNL     1      43.439 131.880  15.385  1.00  0.00     0.009 A 
ATOM     24  C   UNL     1      45.851 130.471  15.140  1.00  0.00     0.009 A 
ATOM     25  C   UNL     1      43.959 131.589  14.120  1.00  0.00     0.001 A 
ATOM     26  C   UNL     1      45.160 130.884  13.999  1.00  0.00     0.001 A 
ENDBRANCH   1  13
TORSDOF 3
ENDMDL


