MODEL 1
REMARK VINA RESULT:      -5.8      0.000      0.000
REMARK SMILES [H]/N=c1\[nH]c(C(=O)N2N[C@@H](C)O[C@H]2c2ccc3cc(C)[nH]c3c2)cs1
REMARK SMILES IDX 6 1 7 2 5 3 3 4 25 5 4 6 24 7 2 9 1 10 8 11 9 12 13 13 10 14
REMARK SMILES IDX 12 15 11 17 14 18 15 19 23 20 16 21 22 22 17 23 21 24 18 25
REMARK SMILES IDX 19 26 20 28
REMARK H PARENT 4 8 9 16 21 27
ROOT
ATOM      1  C   UNL     1      44.602 128.433  23.079  1.00  0.00     0.288 C 
ATOM      2  O   UNL     1      45.722 128.116  22.597  1.00  0.00    -0.266 OA
ENDROOT
BRANCH   1   3
ATOM      3  C   UNL     1      43.619 127.370  23.369  1.00  0.00     0.118 A 
ATOM      4  C   UNL     1      42.914 125.253  23.657  1.00  0.00     0.179 A 
ATOM      5  S   UNL     1      41.540 126.137  24.032  1.00  0.00    -0.105 S 
ATOM      6  N   UNL     1      43.953 126.049  23.327  1.00  0.00    -0.327 N 
ATOM      7  C   UNL     1      42.298 127.617  23.756  1.00  0.00     0.100 A 
ATOM      8  H   UNL     1      44.900 125.692  23.065  1.00  0.00     0.169 HD
BRANCH   4   9
ATOM      9  N   UNL     1      42.980 123.961  23.686  1.00  0.00    -0.275 NA
ATOM     10  H   UNL     1      43.894 123.462  23.614  1.00  0.00     0.190 HD
ENDBRANCH   4   9
ENDBRANCH   1   3
BRANCH   1  11
ATOM     11  N   UNL     1      44.312 129.818  23.340  1.00  0.00    -0.237 N 
ATOM     12  N   UNL     1      44.680 130.465  24.514  1.00  0.00    -0.201 NA
ATOM     13  C   UNL     1      43.476 130.644  22.506  1.00  0.00     0.267 C 
ATOM     14  C   UNL     1      43.996 131.757  24.411  1.00  0.00     0.204 C 
ATOM     15  O   UNL     1      43.387 131.893  23.138  1.00  0.00    -0.333 OA
ATOM     16  H   UNL     1      44.262 129.929  25.311  1.00  0.00     0.151 HD
ATOM     17  C   UNL     1      45.000 132.884  24.622  1.00  0.00     0.058 C 
BRANCH  13  18
ATOM     18  C   UNL     1      44.078 130.808  21.132  1.00  0.00     0.005 A 
ATOM     19  C   UNL     1      45.463 130.574  20.930  1.00  0.00     0.009 A 
ATOM     20  C   UNL     1      43.263 131.179  20.037  1.00  0.00     0.035 A 
ATOM     21  C   UNL     1      46.036 130.718  19.653  1.00  0.00     0.011 A 
ATOM     22  C   UNL     1      43.863 131.310  18.786  1.00  0.00     0.046 A 
ATOM     23  C   UNL     1      45.203 131.087  18.603  1.00  0.00    -0.000 A 
ATOM     24  N   UNL     1      43.274 131.664  17.633  1.00  0.00    -0.359 N 
ATOM     25  C   UNL     1      45.482 131.309  17.272  1.00  0.00     0.031 A 
ATOM     26  C   UNL     1      44.258 131.654  16.703  1.00  0.00     0.013 A 
ATOM     27  H   UNL     1      42.269 131.906  17.486  1.00  0.00     0.166 HD
ATOM     28  C   UNL     1      44.057 132.057  15.279  1.00  0.00     0.064 C 
ENDBRANCH  13  18
ENDBRANCH   1  11
TORSDOF 4
ENDMDL
MODEL 2
REMARK VINA RESULT:      -5.7      2.535      6.409
REMARK SMILES [H]/N=c1\[nH]c(C(=O)N2N[C@@H](C)O[C@H]2c2ccc3cc(C)[nH]c3c2)cs1
REMARK SMILES IDX 6 1 7 2 5 3 3 4 25 5 4 6 24 7 2 9 1 10 8 11 9 12 13 13 10 14
REMARK SMILES IDX 12 15 11 17 14 18 15 19 23 20 16 21 22 22 17 23 21 24 18 25
REMARK SMILES IDX 19 26 20 28
REMARK H PARENT 4 8 9 16 21 27
ROOT
ATOM      1  C   UNL     1      45.039 130.563  20.851  1.00  0.00     0.288 C 
ATOM      2  O   UNL     1      46.108 129.898  20.795  1.00  0.00    -0.266 OA
ENDROOT
BRANCH   1   3
ATOM      3  C   UNL     1      44.435 131.055  19.597  1.00  0.00     0.118 A 
ATOM      4  C   UNL     1      42.868 132.057  18.332  1.00  0.00     0.179 A 
ATOM      5  S   UNL     1      44.059 131.705  17.206  1.00  0.00    -0.105 S 
ATOM      6  N   UNL     1      43.213 131.657  19.574  1.00  0.00    -0.327 N 
ATOM      7  C   UNL     1      45.071 130.997  18.353  1.00  0.00     0.100 A 
ATOM      8  H   UNL     1      42.608 131.789  20.417  1.00  0.00     0.169 HD
BRANCH   4   9
ATOM      9  N   UNL     1      41.753 132.650  18.052  1.00  0.00    -0.275 NA
ATOM     10  H   UNL     1      41.233 132.442  17.171  1.00  0.00     0.190 HD
ENDBRANCH   4   9
ENDBRANCH   1   3
BRANCH   1  11
ATOM     11  N   UNL     1      44.434 130.821  22.131  1.00  0.00    -0.237 N 
ATOM     12  N   UNL     1      43.598 131.904  22.374  1.00  0.00    -0.201 NA
ATOM     13  C   UNL     1      44.748 130.098  23.338  1.00  0.00     0.267 C 
ATOM     14  C   UNL     1      43.415 131.865  23.828  1.00  0.00     0.204 C 
ATOM     15  O   UNL     1      44.006 130.696  24.368  1.00  0.00    -0.333 OA
ATOM     16  H   UNL     1      44.130 132.772  22.128  1.00  0.00     0.151 HD
ATOM     17  C   UNL     1      41.927 131.885  24.156  1.00  0.00     0.058 C 
BRANCH  13  18
ATOM     18  C   UNL     1      44.364 128.644  23.211  1.00  0.00     0.005 A 
ATOM     19  C   UNL     1      43.022 128.240  23.437  1.00  0.00     0.009 A 
ATOM     20  C   UNL     1      45.334 127.679  22.850  1.00  0.00     0.035 A 
ATOM     21  C   UNL     1      42.649 126.889  23.316  1.00  0.00     0.011 A 
ATOM     22  C   UNL     1      44.930 126.351  22.737  1.00  0.00     0.046 A 
ATOM     23  C   UNL     1      43.633 125.971  22.963  1.00  0.00    -0.000 A 
ATOM     24  N   UNL     1      45.692 125.292  22.423  1.00  0.00    -0.359 N 
ATOM     25  C   UNL     1      43.564 124.606  22.785  1.00  0.00     0.031 A 
ATOM     26  C   UNL     1      44.858 124.225  22.441  1.00  0.00     0.013 A 
ATOM     27  H   UNL     1      46.716 125.289  22.218  1.00  0.00     0.166 HD
ATOM     28  C   UNL     1      45.306 122.819  22.213  1.00  0.00     0.064 C 
ENDBRANCH  13  18
ENDBRANCH   1  11
TORSDOF 4
ENDMDL
MODEL 3
REMARK VINA RESULT:      -5.1      2.905      6.852
REMARK SMILES [H]/N=c1\[nH]c(C(=O)N2N[C@@H](C)O[C@H]2c2ccc3cc(C)[nH]c3c2)cs1
REMARK SMILES IDX 6 1 7 2 5 3 3 4 25 5 4 6 24 7 2 9 1 10 8 11 9 12 13 13 10 14
REMARK SMILES IDX 12 15 11 17 14 18 15 19 23 20 16 21 22 22 17 23 21 24 18 25
REMARK SMILES IDX 19 26 20 28
REMARK H PARENT 4 8 9 16 21 27
ROOT
ATOM      1  C   UNL     1      45.277 130.942  19.504  1.00  0.00     0.288 C 
ATOM      2  O   UNL     1      46.128 130.454  20.295  1.00  0.00    -0.266 OA
ENDROOT
BRANCH   1   3
ATOM      3  C   UNL     1      45.484 130.796  18.049  1.00  0.00     0.118 A 
ATOM      4  C   UNL     1      45.533 131.480  15.907  1.00  0.00     0.179 A 
ATOM      5  S   UNL     1      46.108 129.909  15.789  1.00  0.00    -0.105 S 
ATOM      6  N   UNL     1      45.247 131.819  17.182  1.00  0.00    -0.327 N 
ATOM      7  C   UNL     1      45.984 129.636  17.448  1.00  0.00     0.100 A 
ATOM      8  H   UNL     1      44.881 132.756  17.466  1.00  0.00     0.169 HD
BRANCH   4   9
ATOM      9  N   UNL     1      45.386 132.279  14.900  1.00  0.00    -0.275 NA
ATOM     10  H   UNL     1      45.744 132.031  13.952  1.00  0.00     0.190 HD
ENDBRANCH   4   9
ENDBRANCH   1   3
BRANCH   1  11
ATOM     11  N   UNL     1      44.126 131.621  20.037  1.00  0.00    -0.237 N 
ATOM     12  N   UNL     1      43.199 132.286  19.243  1.00  0.00    -0.201 NA
ATOM     13  C   UNL     1      43.888 131.836  21.441  1.00  0.00     0.267 C 
ATOM     14  C   UNL     1      42.359 132.982  20.222  1.00  0.00     0.204 C 
ATOM     15  O   UNL     1      42.710 132.591  21.539  1.00  0.00    -0.333 OA
ATOM     16  H   UNL     1      43.721 133.000  18.683  1.00  0.00     0.151 HD
ATOM     17  C   UNL     1      40.894 132.652  19.964  1.00  0.00     0.058 C 
BRANCH  13  18
ATOM     18  C   UNL     1      43.714 130.524  22.166  1.00  0.00     0.005 A 
ATOM     19  C   UNL     1      42.469 130.205  22.769  1.00  0.00     0.009 A 
ATOM     20  C   UNL     1      44.781 129.598  22.233  1.00  0.00     0.035 A 
ATOM     21  C   UNL     1      42.290 128.982  23.443  1.00  0.00     0.011 A 
ATOM     22  C   UNL     1      44.569 128.396  22.905  1.00  0.00     0.046 A 
ATOM     23  C   UNL     1      43.365 128.101  23.489  1.00  0.00    -0.000 A 
ATOM     24  N   UNL     1      45.450 127.401  23.092  1.00  0.00    -0.359 N 
ATOM     25  C   UNL     1      43.483 126.860  24.077  1.00  0.00     0.031 A 
ATOM     26  C   UNL     1      44.785 126.456  23.799  1.00  0.00     0.013 A 
ATOM     27  H   UNL     1      46.443 127.367  22.770  1.00  0.00     0.166 HD
ATOM     28  C   UNL     1      45.415 125.193  24.289  1.00  0.00     0.064 C 
ENDBRANCH  13  18
ENDBRANCH   1  11
TORSDOF 4
ENDMDL
MODEL 4
REMARK VINA RESULT:      -5.0      3.024      6.618
REMARK SMILES [H]/N=c1\[nH]c(C(=O)N2N[C@@H](C)O[C@H]2c2ccc3cc(C)[nH]c3c2)cs1
REMARK SMILES IDX 6 1 7 2 5 3 3 4 25 5 4 6 24 7 2 9 1 10 8 11 9 12 13 13 10 14
REMARK SMILES IDX 12 15 11 17 14 18 15 19 23 20 16 21 22 22 17 23 21 24 18 25
REMARK SMILES IDX 19 26 20 28
REMARK H PARENT 4 8 9 16 21 27
ROOT
ATOM      1  C   UNL     1      45.402 130.779  19.397  1.00  0.00     0.288 C 
ATOM      2  O   UNL     1      46.283 130.226  20.107  1.00  0.00    -0.266 OA
ENDROOT
BRANCH   1   3
ATOM      3  C   UNL     1      45.507 130.692  17.926  1.00  0.00     0.118 A 
ATOM      4  C   UNL     1      45.775 129.654  15.949  1.00  0.00     0.179 A 
ATOM      5  S   UNL     1      45.476 131.236  15.480  1.00  0.00    -0.105 S 
ATOM      6  N   UNL     1      45.752 129.512  17.291  1.00  0.00    -0.327 N 
ATOM      7  C   UNL     1      45.314 131.779  17.067  1.00  0.00     0.100 A 
ATOM      8  H   UNL     1      45.911 128.603  17.782  1.00  0.00     0.169 HD
BRANCH   4   9
ATOM      9  N   UNL     1      45.994 128.680  15.126  1.00  0.00    -0.275 NA
ATOM     10  H   UNL     1      46.962 128.425  14.831  1.00  0.00     0.190 HD
ENDBRANCH   4   9
ENDBRANCH   1   3
BRANCH   1  11
ATOM     11  N   UNL     1      44.316 131.475  20.034  1.00  0.00    -0.237 N 
ATOM     12  N   UNL     1      43.371 132.217  19.335  1.00  0.00    -0.201 NA
ATOM     13  C   UNL     1      44.174 131.626  21.460  1.00  0.00     0.267 C 
ATOM     14  C   UNL     1      42.624 132.894  20.398  1.00  0.00     0.204 C 
ATOM     15  O   UNL     1      43.037 132.422  21.670  1.00  0.00    -0.333 OA
ATOM     16  H   UNL     1      43.888 132.938  18.779  1.00  0.00     0.151 HD
ATOM     17  C   UNL     1      41.133 132.638  20.218  1.00  0.00     0.058 C 
BRANCH  13  18
ATOM     18  C   UNL     1      43.987 130.286  22.129  1.00  0.00     0.005 A 
ATOM     19  C   UNL     1      42.781 129.997  22.820  1.00  0.00     0.009 A 
ATOM     20  C   UNL     1      45.003 129.304  22.055  1.00  0.00     0.035 A 
ATOM     21  C   UNL     1      42.591 128.750  23.442  1.00  0.00     0.011 A 
ATOM     22  C   UNL     1      44.781 128.079  22.680  1.00  0.00     0.046 A 
ATOM     23  C   UNL     1      43.616 127.813  23.350  1.00  0.00    -0.000 A 
ATOM     24  N   UNL     1      45.618 127.031  22.739  1.00  0.00    -0.359 N 
ATOM     25  C   UNL     1      43.713 126.537  23.860  1.00  0.00     0.031 A 
ATOM     26  C   UNL     1      44.963 126.083  23.450  1.00  0.00     0.013 A 
ATOM     27  H   UNL     1      46.577 126.965  22.331  1.00  0.00     0.166 HD
ATOM     28  C   UNL     1      45.560 124.764  23.818  1.00  0.00     0.064 C 
ENDBRANCH  13  18
ENDBRANCH   1  11
TORSDOF 4
ENDMDL
MODEL 5
REMARK VINA RESULT:      -4.8      1.785      2.209
REMARK SMILES [H]/N=c1\[nH]c(C(=O)N2N[C@@H](C)O[C@H]2c2ccc3cc(C)[nH]c3c2)cs1
REMARK SMILES IDX 6 1 7 2 5 3 3 4 25 5 4 6 24 7 2 9 1 10 8 11 9 12 13 13 10 14
REMARK SMILES IDX 12 15 11 17 14 18 15 19 23 20 16 21 22 22 17 23 21 24 18 25
REMARK SMILES IDX 19 26 20 28
REMARK H PARENT 4 8 9 16 21 27
ROOT
ATOM      1  C   UNL     1      42.860 129.207  23.208  1.00  0.00     0.288 C 
ATOM      2  O   UNL     1      41.682 129.158  22.764  1.00  0.00    -0.266 OA
ENDROOT
BRANCH   1   3
ATOM      3  C   UNL     1      43.580 127.944  23.468  1.00  0.00     0.118 A 
ATOM      4  C   UNL     1      45.077 126.316  23.057  1.00  0.00     0.179 A 
ATOM      5  S   UNL     1      44.446 125.849  24.538  1.00  0.00    -0.105 S 
ATOM      6  N   UNL     1      44.523 127.463  22.610  1.00  0.00    -0.327 N 
ATOM      7  C   UNL     1      43.403 127.171  24.620  1.00  0.00     0.100 A 
ATOM      8  H   UNL     1      44.784 127.922  21.708  1.00  0.00     0.169 HD
BRANCH   4   9
ATOM      9  N   UNL     1      45.993 125.664  22.418  1.00  0.00    -0.275 NA
ATOM     10  H   UNL     1      46.677 126.152  21.798  1.00  0.00     0.190 HD
ENDBRANCH   4   9
ENDBRANCH   1   3
BRANCH   1  11
ATOM     11  N   UNL     1      43.474 130.486  23.443  1.00  0.00    -0.237 N 
ATOM     12  N   UNL     1      44.392 130.715  24.462  1.00  0.00    -0.201 NA
ATOM     13  C   UNL     1      43.094 131.704  22.774  1.00  0.00     0.267 C 
ATOM     14  C   UNL     1      44.560 132.171  24.439  1.00  0.00     0.204 C 
ATOM     15  O   UNL     1      43.873 132.730  23.332  1.00  0.00    -0.333 OA
ATOM     16  H   UNL     1      43.932 130.446  25.363  1.00  0.00     0.151 HD
ATOM     17  C   UNL     1      46.042 132.512  24.347  1.00  0.00     0.058 C 
BRANCH  13  18
ATOM     18  C   UNL     1      43.362 131.611  21.291  1.00  0.00     0.005 A 
ATOM     19  C   UNL     1      42.343 131.947  20.362  1.00  0.00     0.009 A 
ATOM     20  C   UNL     1      44.633 131.208  20.820  1.00  0.00     0.035 A 
ATOM     21  C   UNL     1      42.580 131.871  18.978  1.00  0.00     0.011 A 
ATOM     22  C   UNL     1      44.834 131.146  19.442  1.00  0.00     0.046 A 
ATOM     23  C   UNL     1      43.841 131.467  18.554  1.00  0.00    -0.000 A 
ATOM     24  N   UNL     1      45.953 130.776  18.799  1.00  0.00    -0.359 N 
ATOM     25  C   UNL     1      44.349 131.293  17.285  1.00  0.00     0.031 A 
ATOM     26  C   UNL     1      45.662 130.875  17.480  1.00  0.00     0.013 A 
ATOM     27  H   UNL     1      46.854 130.466  19.225  1.00  0.00     0.166 HD
ATOM     28  C   UNL     1      46.610 130.489  16.391  1.00  0.00     0.064 C 
ENDBRANCH  13  18
ENDBRANCH   1  11
TORSDOF 4
ENDMDL
MODEL 6
REMARK VINA RESULT:      -4.6      3.118      6.972
REMARK SMILES [H]/N=c1\[nH]c(C(=O)N2N[C@@H](C)O[C@H]2c2ccc3cc(C)[nH]c3c2)cs1
REMARK SMILES IDX 6 1 7 2 5 3 3 4 25 5 4 6 24 7 2 9 1 10 8 11 9 12 13 13 10 14
REMARK SMILES IDX 12 15 11 17 14 18 15 19 23 20 16 21 22 22 17 23 21 24 18 25
REMARK SMILES IDX 19 26 20 28
REMARK H PARENT 4 8 9 16 21 27
ROOT
ATOM      1  C   UNL     1      45.564 131.160  18.707  1.00  0.00     0.288 C 
ATOM      2  O   UNL     1      46.478 131.075  19.570  1.00  0.00    -0.266 OA
ENDROOT
BRANCH   1   3
ATOM      3  C   UNL     1      45.853 130.762  17.315  1.00  0.00     0.118 A 
ATOM      4  C   UNL     1      46.399 131.097  15.159  1.00  0.00     0.179 A 
ATOM      5  S   UNL     1      46.319 129.425  15.246  1.00  0.00    -0.105 S 
ATOM      6  N   UNL     1      46.133 131.679  16.347  1.00  0.00    -0.327 N 
ATOM      7  C   UNL     1      45.919 129.433  16.884  1.00  0.00     0.100 A 
ATOM      8  H   UNL     1      46.135 132.713  16.503  1.00  0.00     0.169 HD
BRANCH   4   9
ATOM      9  N   UNL     1      46.687 131.758  14.084  1.00  0.00    -0.275 NA
ATOM     10  H   UNL     1      46.470 132.775  13.996  1.00  0.00     0.190 HD
ENDBRANCH   4   9
ENDBRANCH   1   3
BRANCH   1  11
ATOM     11  N   UNL     1      44.264 131.634  19.101  1.00  0.00    -0.237 N 
ATOM     12  N   UNL     1      43.197 131.753  18.218  1.00  0.00    -0.201 NA
ATOM     13  C   UNL     1      43.960 132.192  20.394  1.00  0.00     0.267 C 
ATOM     14  C   UNL     1      42.186 132.461  19.008  1.00  0.00     0.204 C 
ATOM     15  O   UNL     1      42.617 132.597  20.352  1.00  0.00    -0.333 OA
ATOM     16  H   UNL     1      43.506 132.376  17.435  1.00  0.00     0.151 HD
ATOM     17  C   UNL     1      40.873 131.689  18.967  1.00  0.00     0.058 C 
BRANCH  13  18
ATOM     18  C   UNL     1      44.149 131.165  21.483  1.00  0.00     0.005 A 
ATOM     19  C   UNL     1      43.778 131.469  22.819  1.00  0.00     0.009 A 
ATOM     20  C   UNL     1      44.678 129.890  21.177  1.00  0.00     0.035 A 
ATOM     21  C   UNL     1      43.942 130.519  23.844  1.00  0.00     0.011 A 
ATOM     22  C   UNL     1      44.825 128.972  22.215  1.00  0.00     0.046 A 
ATOM     23  C   UNL     1      44.469 129.278  23.503  1.00  0.00    -0.000 A 
ATOM     24  N   UNL     1      45.318 127.726  22.137  1.00  0.00    -0.359 N 
ATOM     25  C   UNL     1      44.748 128.177  24.283  1.00  0.00     0.031 A 
ATOM     26  C   UNL     1      45.261 127.233  23.397  1.00  0.00     0.013 A 
ATOM     27  H   UNL     1      45.679 127.241  21.285  1.00  0.00     0.166 HD
ATOM     28  C   UNL     1      45.778 125.886  23.783  1.00  0.00     0.064 C 
ENDBRANCH  13  18
ENDBRANCH   1  11
TORSDOF 4
ENDMDL
MODEL 7
REMARK VINA RESULT:      -4.4      3.224      6.709
REMARK SMILES [H]/N=c1\[nH]c(C(=O)N2N[C@@H](C)O[C@H]2c2ccc3cc(C)[nH]c3c2)cs1
REMARK SMILES IDX 6 1 7 2 5 3 3 4 25 5 4 6 24 7 2 9 1 10 8 11 9 12 13 13 10 14
REMARK SMILES IDX 12 15 11 17 14 18 15 19 23 20 16 21 22 22 17 23 21 24 18 25
REMARK SMILES IDX 19 26 20 28
REMARK H PARENT 4 8 9 16 21 27
ROOT
ATOM      1  C   UNL     1      45.420 131.362  18.758  1.00  0.00     0.288 C 
ATOM      2  O   UNL     1      46.374 131.309  19.580  1.00  0.00    -0.266 OA
ENDROOT
BRANCH   1   3
ATOM      3  C   UNL     1      45.665 130.985  17.351  1.00  0.00     0.118 A 
ATOM      4  C   UNL     1      45.919 129.567  15.624  1.00  0.00     0.179 A 
ATOM      5  S   UNL     1      46.023 131.061  14.871  1.00  0.00    -0.105 S 
ATOM      6  N   UNL     1      45.719 129.683  16.953  1.00  0.00    -0.327 N 
ATOM      7  C   UNL     1      45.807 131.910  16.312  1.00  0.00     0.100 A 
ATOM      8  H   UNL     1      45.622 128.868  17.601  1.00  0.00     0.169 HD
BRANCH   4   9
ATOM      9  N   UNL     1      46.011 128.433  15.007  1.00  0.00    -0.275 NA
ATOM     10  H   UNL     1      46.157 127.541  15.529  1.00  0.00     0.190 HD
ENDBRANCH   4   9
ENDBRANCH   1   3
BRANCH   1  11
ATOM     11  N   UNL     1      44.121 131.782  19.210  1.00  0.00    -0.237 N 
ATOM     12  N   UNL     1      43.026 131.914  18.364  1.00  0.00    -0.201 NA
ATOM     13  C   UNL     1      43.841 132.271  20.536  1.00  0.00     0.267 C 
ATOM     14  C   UNL     1      42.021 132.557  19.215  1.00  0.00     0.204 C 
ATOM     15  O   UNL     1      42.488 132.641  20.552  1.00  0.00    -0.333 OA
ATOM     16  H   UNL     1      43.295 132.581  17.604  1.00  0.00     0.151 HD
ATOM     17  C   UNL     1      40.727 131.753  19.175  1.00  0.00     0.058 C 
BRANCH  13  18
ATOM     18  C   UNL     1      44.088 131.199  21.569  1.00  0.00     0.005 A 
ATOM     19  C   UNL     1      43.792 131.447  22.935  1.00  0.00     0.009 A 
ATOM     20  C   UNL     1      44.598 129.938  21.181  1.00  0.00     0.035 A 
ATOM     21  C   UNL     1      44.011 130.455  23.909  1.00  0.00     0.011 A 
ATOM     22  C   UNL     1      44.800 128.978  22.171  1.00  0.00     0.046 A 
ATOM     23  C   UNL     1      44.517 129.230  23.487  1.00  0.00    -0.000 A 
ATOM     24  N   UNL     1      45.286 127.736  22.013  1.00  0.00    -0.359 N 
ATOM     25  C   UNL     1      44.836 128.097  24.204  1.00  0.00     0.031 A 
ATOM     26  C   UNL     1      45.298 127.191  23.253  1.00  0.00     0.013 A 
ATOM     27  H   UNL     1      45.598 127.288  21.123  1.00  0.00     0.166 HD
ATOM     28  C   UNL     1      45.833 125.829  23.554  1.00  0.00     0.064 C 
ENDBRANCH  13  18
ENDBRANCH   1  11
TORSDOF 4
ENDMDL
MODEL 8
REMARK VINA RESULT:      -4.1      2.665      3.964
REMARK SMILES [H]/N=c1\[nH]c(C(=O)N2N[C@@H](C)O[C@H]2c2ccc3cc(C)[nH]c3c2)cs1
REMARK SMILES IDX 6 1 7 2 5 3 3 4 25 5 4 6 24 7 2 9 1 10 8 11 9 12 13 13 10 14
REMARK SMILES IDX 12 15 11 17 14 18 15 19 23 20 16 21 22 22 17 23 21 24 18 25
REMARK SMILES IDX 19 26 20 28
REMARK H PARENT 4 8 9 16 21 27
ROOT
ATOM      1  C   UNL     1      45.250 130.605  20.655  1.00  0.00     0.288 C 
ATOM      2  O   UNL     1      46.375 131.038  20.290  1.00  0.00    -0.266 OA
ENDROOT
BRANCH   1   3
ATOM      3  C   UNL     1      45.190 129.431  21.548  1.00  0.00     0.118 A 
ATOM      4  C   UNL     1      45.685 127.344  22.227  1.00  0.00     0.179 A 
ATOM      5  S   UNL     1      44.733 127.908  23.486  1.00  0.00    -0.105 S 
ATOM      6  N   UNL     1      45.849 128.273  21.262  1.00  0.00    -0.327 N 
ATOM      7  C   UNL     1      44.508 129.417  22.770  1.00  0.00     0.100 A 
ATOM      8  H   UNL     1      46.413 128.119  20.395  1.00  0.00     0.169 HD
BRANCH   4   9
ATOM      9  N   UNL     1      46.208 126.162  22.183  1.00  0.00    -0.275 NA
ATOM     10  H   UNL     1      47.086 125.976  21.650  1.00  0.00     0.190 HD
ENDBRANCH   4   9
ENDBRANCH   1   3
BRANCH   1  11
ATOM     11  N   UNL     1      44.057 131.266  20.198  1.00  0.00    -0.237 N 
ATOM     12  N   UNL     1      43.438 132.293  20.902  1.00  0.00    -0.201 NA
ATOM     13  C   UNL     1      43.277 130.843  19.063  1.00  0.00     0.267 C 
ATOM     14  C   UNL     1      42.181 132.487  20.174  1.00  0.00     0.204 C 
ATOM     15  O   UNL     1      42.166 131.697  18.997  1.00  0.00    -0.333 OA
ATOM     16  H   UNL     1      43.217 131.928  21.858  1.00  0.00     0.151 HD
ATOM     17  C   UNL     1      42.027 133.958  19.805  1.00  0.00     0.058 C 
BRANCH  13  18
ATOM     18  C   UNL     1      44.078 130.948  17.789  1.00  0.00     0.005 A 
ATOM     19  C   UNL     1      43.707 131.888  16.792  1.00  0.00     0.009 A 
ATOM     20  C   UNL     1      45.210 130.125  17.588  1.00  0.00     0.035 A 
ATOM     21  C   UNL     1      44.448 132.001  15.601  1.00  0.00     0.011 A 
ATOM     22  C   UNL     1      45.923 130.264  16.399  1.00  0.00     0.046 A 
ATOM     23  C   UNL     1      45.553 131.171  15.440  1.00  0.00    -0.000 A 
ATOM     24  N   UNL     1      47.008 129.574  16.013  1.00  0.00    -0.359 N 
ATOM     25  C   UNL     1      46.442 131.054  14.394  1.00  0.00     0.031 A 
ATOM     26  C   UNL     1      47.334 130.062  14.793  1.00  0.00     0.013 A 
ATOM     27  H   UNL     1      47.492 128.813  16.539  1.00  0.00     0.166 HD
ATOM     28  C   UNL     1      48.451 129.526  13.958  1.00  0.00     0.064 C 
ENDBRANCH  13  18
ENDBRANCH   1  11
TORSDOF 4
ENDMDL
MODEL 9
REMARK VINA RESULT:      -4.0      4.155      7.432
REMARK SMILES [H]/N=c1\[nH]c(C(=O)N2N[C@@H](C)O[C@H]2c2ccc3cc(C)[nH]c3c2)cs1
REMARK SMILES IDX 6 1 7 2 5 3 3 4 25 5 4 6 24 7 2 9 1 10 8 11 9 12 13 13 10 14
REMARK SMILES IDX 12 15 11 17 14 18 15 19 23 20 16 21 22 22 17 23 21 24 18 25
REMARK SMILES IDX 19 26 20 28
REMARK H PARENT 4 8 9 16 21 27
ROOT
ATOM      1  C   UNL     1      45.114 127.241  23.513  1.00  0.00     0.288 C 
ATOM      2  O   UNL     1      46.099 127.122  24.290  1.00  0.00    -0.266 OA
ENDROOT
BRANCH   1   3
ATOM      3  C   UNL     1      44.894 128.530  22.828  1.00  0.00     0.118 A 
ATOM      4  C   UNL     1      45.195 130.075  21.221  1.00  0.00     0.179 A 
ATOM      5  S   UNL     1      43.991 130.770  22.157  1.00  0.00    -0.105 S 
ATOM      6  N   UNL     1      45.575 128.871  21.698  1.00  0.00    -0.327 N 
ATOM      7  C   UNL     1      43.948 129.476  23.236  1.00  0.00     0.100 A 
ATOM      8  H   UNL     1      46.310 128.274  21.254  1.00  0.00     0.169 HD
BRANCH   4   9
ATOM      9  N   UNL     1      45.700 130.619  20.161  1.00  0.00    -0.275 NA
ATOM     10  H   UNL     1      45.998 131.619  20.153  1.00  0.00     0.190 HD
ENDBRANCH   4   9
ENDBRANCH   1   3
BRANCH   1  11
ATOM     11  N   UNL     1      44.235 126.120  23.311  1.00  0.00    -0.237 N 
ATOM     12  N   UNL     1      43.034 126.210  22.617  1.00  0.00    -0.201 NA
ATOM     13  C   UNL     1      44.405 124.832  23.933  1.00  0.00     0.267 C 
ATOM     14  C   UNL     1      42.410 124.906  22.858  1.00  0.00     0.204 C 
ATOM     15  O   UNL     1      43.310 124.047  23.540  1.00  0.00    -0.333 OA
ATOM     16  H   UNL     1      42.456 126.947  23.085  1.00  0.00     0.151 HD
ATOM     17  C   UNL     1      42.011 124.277  21.529  1.00  0.00     0.058 C 
BRANCH  13  18
ATOM     18  C   UNL     1      45.688 124.179  23.480  1.00  0.00     0.005 A 
ATOM     19  C   UNL     1      46.152 123.001  24.122  1.00  0.00     0.009 A 
ATOM     20  C   UNL     1      46.425 124.725  22.403  1.00  0.00     0.035 A 
ATOM     21  C   UNL     1      47.342 122.378  23.705  1.00  0.00     0.011 A 
ATOM     22  C   UNL     1      47.598 124.081  22.015  1.00  0.00     0.046 A 
ATOM     23  C   UNL     1      48.040 122.948  22.646  1.00  0.00    -0.000 A 
ATOM     24  N   UNL     1      48.441 124.445  21.036  1.00  0.00    -0.359 N 
ATOM     25  C   UNL     1      49.219 122.570  22.041  1.00  0.00     0.031 A 
ATOM     26  C   UNL     1      49.427 123.517  21.042  1.00  0.00     0.013 A 
ATOM     27  H   UNL     1      48.360 125.275  20.408  1.00  0.00     0.166 HD
ATOM     28  C   UNL     1      50.624 123.574  20.150  1.00  0.00     0.064 C 
ENDBRANCH  13  18
ENDBRANCH   1  11
TORSDOF 4
ENDMDL


