REMARK SMILES CC(=O)N1CNC[C@H](F)[C@H]1c1cc2ccc(F)cc2[nH]1
REMARK SMILES IDX 4 1 5 2 6 3 7 4 8 5 9 6 10 7 2 9 1 10 3 11 11 12 12 13 20 14
REMARK SMILES IDX 13 15 19 16 14 17 18 18 15 19 16 20 17 22
REMARK H PARENT 6 8 20 21
ROOT
ATOM      1  N   UNL     1      -0.435  -1.970   1.189  1.00  0.00    -0.319 N 
ATOM      2  C   UNL     1       0.812  -2.708   1.478  1.00  0.00     0.205 C 
ATOM      3  N   UNL     1       1.700  -1.930   2.348  1.00  0.00    -0.297 NA
ATOM      4  C   UNL     1       1.991  -0.629   1.746  1.00  0.00     0.123 C 
ATOM      5  C   UNL     1       0.709   0.192   1.672  1.00  0.00     0.209 C 
ATOM      6  F   UNL     1       0.227   0.392   2.956  1.00  0.00    -0.243 F 
ATOM      7  C   UNL     1      -0.361  -0.534   0.834  1.00  0.00     0.168 C 
ATOM      8  H   UNL     1       2.603  -2.452   2.432  1.00  0.00     0.124 HD
ENDROOT
BRANCH   1   9
ATOM      9  C   UNL     1      -1.655  -2.720   0.962  1.00  0.00     0.221 C 
ATOM     10  C   UNL     1      -2.947  -2.044   0.610  1.00  0.00     0.114 C 
ATOM     11  O   UNL     1      -1.650  -3.977   1.059  1.00  0.00    -0.275 OA
ENDBRANCH   1   9
BRANCH   7  12
ATOM     12  C   UNL     1      -0.127  -0.333  -0.648  1.00  0.00     0.042 A 
ATOM     13  C   UNL     1       0.122  -1.330  -1.597  1.00  0.00     0.034 A 
ATOM     14  N   UNL     1      -0.177   0.885  -1.241  1.00  0.00    -0.356 N 
ATOM     15  C   UNL     1       0.233  -0.664  -2.796  1.00  0.00    -0.000 A 
ATOM     16  C   UNL     1       0.048   0.669  -2.547  1.00  0.00     0.049 A 
ATOM     17  C   UNL     1       0.472  -1.146  -4.082  1.00  0.00     0.013 A 
ATOM     18  C   UNL     1       0.090   1.619  -3.567  1.00  0.00     0.065 A 
ATOM     19  C   UNL     1       0.522  -0.212  -5.133  1.00  0.00     0.040 A 
ATOM     20  C   UNL     1       0.332   1.165  -4.878  1.00  0.00     0.125 A 
ATOM     21  H   UNL     1      -0.365   1.803  -0.781  1.00  0.00     0.166 HD
ATOM     22  F   UNL     1       0.382   2.054  -5.900  1.00  0.00    -0.207 F 
ENDBRANCH   7  12
TORSDOF 2


