MODEL 1
REMARK VINA RESULT:      -9.4      0.000      0.000
REMARK SMILES Cc1ccc(Nc2cccc(N=[N+]=[N-])c2[O-])cc1F
REMARK SMILES IDX 9 1 10 2 11 3 15 4 16 5 7 6 8 7 12 8 13 9 14 10 6 11 5 13
REMARK SMILES IDX 4 14 17 15 3 16 18 17 2 18 19 19 1 20
REMARK H PARENT 6 12
ROOT
ATOM      1  C   UNL     1      45.740 130.938  20.463  1.00  0.00     0.003 A 
ATOM      2  C   UNL     1      44.695 131.279  21.323  1.00  0.00     0.010 A 
ATOM      3  C   UNL     1      43.470 131.730  20.814  1.00  0.00     0.032 A 
ATOM      4  C   UNL     1      43.302 131.839  19.414  1.00  0.00    -0.075 A 
ATOM      5  O   UNL     1      42.078 132.224  18.873  1.00  0.00    -0.871 OA
ATOM      6  C   UNL     1      44.373 131.530  18.549  1.00  0.00     0.031 A 
ATOM      7  C   UNL     1      45.578 131.057  19.083  1.00  0.00     0.025 A 
ENDROOT
BRANCH   3   8
ATOM      8  N   UNL     1      42.432 132.051  21.756  1.00  0.00    -0.061 NA
BRANCH   8   9
ATOM      9  N   UNL     1      42.558 131.922  22.974  1.00  0.00     0.005 N 
ATOM     10  N   UNL     1      42.691 131.798  24.190  1.00  0.00    -0.003 NA
ENDBRANCH   8   9
ENDBRANCH   3   8
BRANCH   6  11
ATOM     11  N   UNL     1      44.234 131.632  17.122  1.00  0.00    -0.356 N 
ATOM     12  H   UNL     1      43.358 132.063  16.750  1.00  0.00     0.166 HD
BRANCH  11  13
ATOM     13  C   UNL     1      45.173 131.086  16.179  1.00  0.00     0.041 A 
ATOM     14  C   UNL     1      45.332 129.695  16.091  1.00  0.00     0.026 A 
ATOM     15  C   UNL     1      45.978 131.918  15.380  1.00  0.00     0.065 A 
ATOM     16  C   UNL     1      46.252 129.142  15.197  1.00  0.00     0.008 A 
ATOM     17  C   UNL     1      46.898 131.366  14.483  1.00  0.00     0.128 A 
ATOM     18  C   UNL     1      47.029 129.972  14.375  1.00  0.00    -0.015 A 
ATOM     19  F   UNL     1      47.667 132.191  13.728  1.00  0.00    -0.207 F 
ATOM     20  C   UNL     1      48.037 129.377  13.434  1.00  0.00     0.047 C 
ENDBRANCH  11  13
ENDBRANCH   6  11
TORSDOF 4
ENDMDL
MODEL 2
REMARK VINA RESULT:      -9.0      1.095      1.555
REMARK SMILES Cc1ccc(Nc2cccc(N=[N+]=[N-])c2[O-])cc1F
REMARK SMILES IDX 9 1 10 2 11 3 15 4 16 5 7 6 8 7 12 8 13 9 14 10 6 11 5 13
REMARK SMILES IDX 4 14 17 15 3 16 18 17 2 18 19 19 1 20
REMARK H PARENT 6 12
ROOT
ATOM      1  C   UNL     1      45.743 130.974  20.684  1.00  0.00     0.003 A 
ATOM      2  C   UNL     1      44.749 131.277  21.615  1.00  0.00     0.010 A 
ATOM      3  C   UNL     1      43.491 131.730  21.195  1.00  0.00     0.032 A 
ATOM      4  C   UNL     1      43.239 131.880  19.810  1.00  0.00    -0.075 A 
ATOM      5  O   UNL     1      41.982 132.268  19.356  1.00  0.00    -0.871 OA
ATOM      6  C   UNL     1      44.259 131.610  18.874  1.00  0.00     0.031 A 
ATOM      7  C   UNL     1      45.498 131.134  19.321  1.00  0.00     0.025 A 
ENDROOT
BRANCH   3   8
ATOM      8  N   UNL     1      42.508 132.009  22.206  1.00  0.00    -0.061 NA
BRANCH   8   9
ATOM      9  N   UNL     1      42.717 131.869  23.411  1.00  0.00     0.005 N 
ATOM     10  N   UNL     1      42.920 131.723  24.615  1.00  0.00    -0.003 NA
ENDBRANCH   8   9
ENDBRANCH   3   8
BRANCH   6  11
ATOM     11  N   UNL     1      44.035 131.754  17.462  1.00  0.00    -0.356 N 
ATOM     12  H   UNL     1      43.099 132.103  17.154  1.00  0.00     0.166 HD
BRANCH  11  13
ATOM     13  C   UNL     1      44.975 131.352  16.450  1.00  0.00     0.041 A 
ATOM     14  C   UNL     1      45.711 132.331  15.766  1.00  0.00     0.026 A 
ATOM     15  C   UNL     1      45.133 130.002  16.091  1.00  0.00     0.065 A 
ATOM     16  C   UNL     1      46.615 131.967  14.765  1.00  0.00     0.008 A 
ATOM     17  C   UNL     1      46.039 129.636  15.089  1.00  0.00     0.128 A 
ATOM     18  C   UNL     1      46.798 130.617  14.431  1.00  0.00    -0.015 A 
ATOM     19  F   UNL     1      46.168 128.326  14.757  1.00  0.00    -0.207 F 
ATOM     20  C   UNL     1      47.749 130.230  13.335  1.00  0.00     0.047 C 
ENDBRANCH  11  13
ENDBRANCH   6  11
TORSDOF 4
ENDMDL
MODEL 3
REMARK VINA RESULT:      -8.3      1.635      2.342
REMARK SMILES Cc1ccc(Nc2cccc(N=[N+]=[N-])c2[O-])cc1F
REMARK SMILES IDX 9 1 10 2 11 3 15 4 16 5 7 6 8 7 12 8 13 9 14 10 6 11 5 13
REMARK SMILES IDX 4 14 17 15 3 16 18 17 2 18 19 19 1 20
REMARK H PARENT 6 12
ROOT
ATOM      1  C   UNL     1      42.146 132.272  18.339  1.00  0.00     0.003 A 
ATOM      2  C   UNL     1      41.939 132.446  19.708  1.00  0.00     0.010 A 
ATOM      3  C   UNL     1      42.914 132.050  20.633  1.00  0.00     0.032 A 
ATOM      4  C   UNL     1      44.115 131.467  20.165  1.00  0.00    -0.075 A 
ATOM      5  O   UNL     1      45.129 131.119  21.052  1.00  0.00    -0.871 OA
ATOM      6  C   UNL     1      44.305 131.258  18.782  1.00  0.00     0.031 A 
ATOM      7  C   UNL     1      43.325 131.687  17.877  1.00  0.00     0.025 A 
ENDROOT
BRANCH   3   8
ATOM      8  N   UNL     1      42.641 132.272  22.027  1.00  0.00    -0.061 NA
BRANCH   8   9
ATOM      9  N   UNL     1      42.709 131.386  22.881  1.00  0.00     0.005 N 
ATOM     10  N   UNL     1      42.768 130.502  23.733  1.00  0.00    -0.003 NA
ENDBRANCH   8   9
ENDBRANCH   3   8
BRANCH   6  11
ATOM     11  N   UNL     1      45.512 130.667  18.275  1.00  0.00    -0.356 N 
ATOM     12  H   UNL     1      46.150 130.204  18.961  1.00  0.00     0.166 HD
BRANCH  11  13
ATOM     13  C   UNL     1      45.945 130.764  16.906  1.00  0.00     0.041 A 
ATOM     14  C   UNL     1      45.873 132.000  16.247  1.00  0.00     0.026 A 
ATOM     15  C   UNL     1      46.388 129.634  16.196  1.00  0.00     0.065 A 
ATOM     16  C   UNL     1      46.270 132.115  14.912  1.00  0.00     0.008 A 
ATOM     17  C   UNL     1      46.787 129.748  14.860  1.00  0.00     0.128 A 
ATOM     18  C   UNL     1      46.745 130.994  14.214  1.00  0.00    -0.015 A 
ATOM     19  F   UNL     1      47.204 128.641  14.195  1.00  0.00    -0.207 F 
ATOM     20  C   UNL     1      47.144 131.113  12.771  1.00  0.00     0.047 C 
ENDBRANCH  11  13
ENDBRANCH   6  11
TORSDOF 4
ENDMDL
MODEL 4
REMARK VINA RESULT:      -7.8      1.762      2.228
REMARK SMILES Cc1ccc(Nc2cccc(N=[N+]=[N-])c2[O-])cc1F
REMARK SMILES IDX 9 1 10 2 11 3 15 4 16 5 7 6 8 7 12 8 13 9 14 10 6 11 5 13
REMARK SMILES IDX 4 14 17 15 3 16 18 17 2 18 19 19 1 20
REMARK H PARENT 6 12
ROOT
ATOM      1  C   UNL     1      41.785 132.362  19.640  1.00  0.00     0.003 A 
ATOM      2  C   UNL     1      42.793 131.984  20.529  1.00  0.00     0.010 A 
ATOM      3  C   UNL     1      44.028 131.525  20.054  1.00  0.00     0.032 A 
ATOM      4  C   UNL     1      44.246 131.446  18.659  1.00  0.00    -0.075 A 
ATOM      5  O   UNL     1      45.482 131.054  18.154  1.00  0.00    -0.871 OA
ATOM      6  C   UNL     1      43.212 131.794  17.763  1.00  0.00     0.031 A 
ATOM      7  C   UNL     1      41.996 132.274  18.264  1.00  0.00     0.025 A 
ENDROOT
BRANCH   3   8
ATOM      8  N   UNL     1      45.026 131.165  21.025  1.00  0.00    -0.061 NA
BRANCH   8   9
ATOM      9  N   UNL     1      44.992 130.121  21.678  1.00  0.00     0.005 N 
ATOM     10  N   UNL     1      44.965 129.080  22.331  1.00  0.00    -0.003 NA
ENDBRANCH   8   9
ENDBRANCH   3   8
BRANCH   6  11
ATOM     11  N   UNL     1      43.401 131.723  16.340  1.00  0.00    -0.356 N 
ATOM     12  H   UNL     1      42.616 132.047  15.731  1.00  0.00     0.166 HD
BRANCH  11  13
ATOM     13  C   UNL     1      44.555 131.142  15.707  1.00  0.00     0.041 A 
ATOM     14  C   UNL     1      44.715 129.749  15.714  1.00  0.00     0.026 A 
ATOM     15  C   UNL     1      45.555 131.942  15.127  1.00  0.00     0.065 A 
ATOM     16  C   UNL     1      45.836 129.161  15.123  1.00  0.00     0.008 A 
ATOM     17  C   UNL     1      46.677 131.356  14.533  1.00  0.00     0.128 A 
ATOM     18  C   UNL     1      46.817 129.959  14.513  1.00  0.00    -0.015 A 
ATOM     19  F   UNL     1      47.631 132.152  13.986  1.00  0.00    -0.207 F 
ATOM     20  C   UNL     1      48.035 129.328  13.903  1.00  0.00     0.047 C 
ENDBRANCH  11  13
ENDBRANCH   6  11
TORSDOF 4
ENDMDL
MODEL 5
REMARK VINA RESULT:      -7.7      0.686      1.008
REMARK SMILES Cc1ccc(Nc2cccc(N=[N+]=[N-])c2[O-])cc1F
REMARK SMILES IDX 9 1 10 2 11 3 15 4 16 5 7 6 8 7 12 8 13 9 14 10 6 11 5 13
REMARK SMILES IDX 4 14 17 15 3 16 18 17 2 18 19 19 1 20
REMARK H PARENT 6 12
ROOT
ATOM      1  C   UNL     1      45.848 130.761  20.462  1.00  0.00     0.003 A 
ATOM      2  C   UNL     1      44.768 131.054  21.296  1.00  0.00     0.010 A 
ATOM      3  C   UNL     1      43.572 131.553  20.765  1.00  0.00     0.032 A 
ATOM      4  C   UNL     1      43.469 131.761  19.369  1.00  0.00    -0.075 A 
ATOM      5  O   UNL     1      42.275 132.197  18.802  1.00  0.00    -0.871 OA
ATOM      6  C   UNL     1      44.576 131.499  18.534  1.00  0.00     0.031 A 
ATOM      7  C   UNL     1      45.751 130.976  19.088  1.00  0.00     0.025 A 
ENDROOT
BRANCH   3   8
ATOM      8  N   UNL     1      42.494 131.820  21.679  1.00  0.00    -0.061 NA
BRANCH   8   9
ATOM      9  N   UNL     1      41.670 132.719  21.511  1.00  0.00     0.005 N 
ATOM     10  N   UNL     1      40.842 133.612  21.338  1.00  0.00    -0.003 NA
ENDBRANCH   8   9
ENDBRANCH   3   8
BRANCH   6  11
ATOM     11  N   UNL     1      44.504 131.701  17.113  1.00  0.00    -0.356 N 
ATOM     12  H   UNL     1      43.692 132.246  16.742  1.00  0.00     0.166 HD
BRANCH  11  13
ATOM     13  C   UNL     1      45.415 131.115  16.167  1.00  0.00     0.041 A 
ATOM     14  C   UNL     1      45.626 129.728  16.182  1.00  0.00     0.026 A 
ATOM     15  C   UNL     1      46.144 131.908  15.263  1.00  0.00     0.065 A 
ATOM     16  C   UNL     1      46.521 129.138  15.286  1.00  0.00     0.008 A 
ATOM     17  C   UNL     1      47.039 131.318  14.364  1.00  0.00     0.128 A 
ATOM     18  C   UNL     1      47.221 129.926  14.360  1.00  0.00    -0.015 A 
ATOM     19  F   UNL     1      47.735 132.107  13.506  1.00  0.00    -0.207 F 
ATOM     20  C   UNL     1      48.204 129.293  13.417  1.00  0.00     0.047 C 
ENDBRANCH  11  13
ENDBRANCH   6  11
TORSDOF 4
ENDMDL
MODEL 6
REMARK VINA RESULT:      -7.6      1.550      1.815
REMARK SMILES Cc1ccc(Nc2cccc(N=[N+]=[N-])c2[O-])cc1F
REMARK SMILES IDX 9 1 10 2 11 3 15 4 16 5 7 6 8 7 12 8 13 9 14 10 6 11 5 13
REMARK SMILES IDX 4 14 17 15 3 16 18 17 2 18 19 19 1 20
REMARK H PARENT 6 12
ROOT
ATOM      1  C   UNL     1      45.608 130.406  20.697  1.00  0.00     0.003 A 
ATOM      2  C   UNL     1      44.855 130.708  21.832  1.00  0.00     0.010 A 
ATOM      3  C   UNL     1      43.659 131.430  21.723  1.00  0.00     0.032 A 
ATOM      4  C   UNL     1      43.220 131.853  20.446  1.00  0.00    -0.075 A 
ATOM      5  O   UNL     1      42.007 132.517  20.295  1.00  0.00    -0.871 OA
ATOM      6  C   UNL     1      44.004 131.578  19.305  1.00  0.00     0.031 A 
ATOM      7  C   UNL     1      45.182 130.832  19.439  1.00  0.00     0.025 A 
ENDROOT
BRANCH   3   8
ATOM      8  N   UNL     1      42.925 131.695  22.931  1.00  0.00    -0.061 NA
BRANCH   8   9
ATOM      9  N   UNL     1      42.531 130.811  23.693  1.00  0.00     0.005 N 
ATOM     10  N   UNL     1      42.129 129.929  24.450  1.00  0.00    -0.003 NA
ENDBRANCH   8   9
ENDBRANCH   3   8
BRANCH   6  11
ATOM     11  N   UNL     1      43.587 131.995  17.995  1.00  0.00    -0.356 N 
ATOM     12  H   UNL     1      42.662 132.474  17.910  1.00  0.00     0.166 HD
BRANCH  11  13
ATOM     13  C   UNL     1      44.311 131.702  16.786  1.00  0.00     0.041 A 
ATOM     14  C   UNL     1      45.710 131.629  16.822  1.00  0.00     0.026 A 
ATOM     15  C   UNL     1      43.648 131.543  15.556  1.00  0.00     0.065 A 
ATOM     16  C   UNL     1      46.437 131.366  15.658  1.00  0.00     0.008 A 
ATOM     17  C   UNL     1      44.374 131.278  14.389  1.00  0.00     0.128 A 
ATOM     18  C   UNL     1      45.773 131.172  14.436  1.00  0.00    -0.015 A 
ATOM     19  F   UNL     1      43.711 131.134  13.213  1.00  0.00    -0.207 F 
ATOM     20  C   UNL     1      46.556 130.918  13.181  1.00  0.00     0.047 C 
ENDBRANCH  11  13
ENDBRANCH   6  11
TORSDOF 4
ENDMDL
MODEL 7
REMARK VINA RESULT:      -7.4      2.101      2.488
REMARK SMILES Cc1ccc(Nc2cccc(N=[N+]=[N-])c2[O-])cc1F
REMARK SMILES IDX 9 1 10 2 11 3 15 4 16 5 7 6 8 7 12 8 13 9 14 10 6 11 5 13
REMARK SMILES IDX 4 14 17 15 3 16 18 17 2 18 19 19 1 20
REMARK H PARENT 6 12
ROOT
ATOM      1  C   UNL     1      42.489 132.334  19.803  1.00  0.00     0.003 A 
ATOM      2  C   UNL     1      43.627 132.120  20.581  1.00  0.00     0.010 A 
ATOM      3  C   UNL     1      44.813 131.655  19.998  1.00  0.00     0.032 A 
ATOM      4  C   UNL     1      44.846 131.401  18.606  1.00  0.00    -0.075 A 
ATOM      5  O   UNL     1      46.024 130.998  17.985  1.00  0.00    -0.871 OA
ATOM      6  C   UNL     1      43.682 131.583  17.829  1.00  0.00     0.031 A 
ATOM      7  C   UNL     1      42.517 132.073  18.433  1.00  0.00     0.025 A 
ENDROOT
BRANCH   3   8
ATOM      8  N   UNL     1      45.952 131.469  20.855  1.00  0.00    -0.061 NA
BRANCH   8   9
ATOM      9  N   UNL     1      46.676 132.392  21.231  1.00  0.00     0.005 N 
ATOM     10  N   UNL     1      47.393 133.319  21.604  1.00  0.00    -0.003 NA
ENDBRANCH   8   9
ENDBRANCH   3   8
BRANCH   6  11
ATOM     11  N   UNL     1      43.682 131.333  16.414  1.00  0.00    -0.356 N 
ATOM     12  H   UNL     1      42.771 131.419  15.907  1.00  0.00     0.166 HD
BRANCH  11  13
ATOM     13  C   UNL     1      44.827 130.873  15.675  1.00  0.00     0.041 A 
ATOM     14  C   UNL     1      45.107 129.500  15.623  1.00  0.00     0.026 A 
ATOM     15  C   UNL     1      45.706 131.774  15.049  1.00  0.00     0.065 A 
ATOM     16  C   UNL     1      46.224 129.030  14.928  1.00  0.00     0.008 A 
ATOM     17  C   UNL     1      46.825 131.305  14.351  1.00  0.00     0.128 A 
ATOM     18  C   UNL     1      47.082 129.927  14.274  1.00  0.00    -0.015 A 
ATOM     19  F   UNL     1      47.660 132.197  13.761  1.00  0.00    -0.207 F 
ATOM     20  C   UNL     1      48.298 129.423  13.551  1.00  0.00     0.047 C 
ENDBRANCH  11  13
ENDBRANCH   6  11
TORSDOF 4
ENDMDL
MODEL 8
REMARK VINA RESULT:      -7.3      1.775      2.388
REMARK SMILES Cc1ccc(Nc2cccc(N=[N+]=[N-])c2[O-])cc1F
REMARK SMILES IDX 9 1 10 2 11 3 15 4 16 5 7 6 8 7 12 8 13 9 14 10 6 11 5 13
REMARK SMILES IDX 4 14 17 15 3 16 18 17 2 18 19 19 1 20
REMARK H PARENT 6 12
ROOT
ATOM      1  C   UNL     1      42.947 131.980  18.331  1.00  0.00     0.003 A 
ATOM      2  C   UNL     1      43.026 132.228  19.702  1.00  0.00     0.010 A 
ATOM      3  C   UNL     1      44.110 131.753  20.452  1.00  0.00     0.032 A 
ATOM      4  C   UNL     1      45.128 131.014  19.803  1.00  0.00    -0.075 A 
ATOM      5  O   UNL     1      46.249 130.582  20.505  1.00  0.00    -0.871 OA
ATOM      6  C   UNL     1      45.025 130.733  18.424  1.00  0.00     0.031 A 
ATOM      7  C   UNL     1      43.944 131.242  17.694  1.00  0.00     0.025 A 
ENDROOT
BRANCH   3   8
ATOM      8  N   UNL     1      44.136 132.057  21.857  1.00  0.00    -0.061 NA
BRANCH   8   9
ATOM      9  N   UNL     1      43.167 131.905  22.601  1.00  0.00     0.005 N 
ATOM     10  N   UNL     1      42.203 131.748  23.350  1.00  0.00    -0.003 NA
ENDBRANCH   8   9
ENDBRANCH   3   8
BRANCH   6  11
ATOM     11  N   UNL     1      46.041 129.985  17.737  1.00  0.00    -0.356 N 
ATOM     12  H   UNL     1      46.546 129.245  18.276  1.00  0.00     0.166 HD
BRANCH  11  13
ATOM     13  C   UNL     1      46.476 130.259  16.393  1.00  0.00     0.041 A 
ATOM     14  C   UNL     1      46.180 131.501  15.813  1.00  0.00     0.026 A 
ATOM     15  C   UNL     1      47.144 129.288  15.626  1.00  0.00     0.065 A 
ATOM     16  C   UNL     1      46.574 131.783  14.503  1.00  0.00     0.008 A 
ATOM     17  C   UNL     1      47.540 129.569  14.315  1.00  0.00     0.128 A 
ATOM     18  C   UNL     1      47.271 130.826  13.750  1.00  0.00    -0.015 A 
ATOM     19  F   UNL     1      48.178 128.612  13.594  1.00  0.00    -0.207 F 
ATOM     20  C   UNL     1      47.669 131.120  12.333  1.00  0.00     0.047 C 
ENDBRANCH  11  13
ENDBRANCH   6  11
TORSDOF 4
ENDMDL
MODEL 9
REMARK VINA RESULT:      -7.2      1.947      2.575
REMARK SMILES Cc1ccc(Nc2cccc(N=[N+]=[N-])c2[O-])cc1F
REMARK SMILES IDX 9 1 10 2 11 3 15 4 16 5 7 6 8 7 12 8 13 9 14 10 6 11 5 13
REMARK SMILES IDX 4 14 17 15 3 16 18 17 2 18 19 19 1 20
REMARK H PARENT 6 12
ROOT
ATOM      1  C   UNL     1      41.962 132.518  19.899  1.00  0.00     0.003 A 
ATOM      2  C   UNL     1      42.933 132.012  20.764  1.00  0.00     0.010 A 
ATOM      3  C   UNL     1      44.114 131.450  20.262  1.00  0.00     0.032 A 
ATOM      4  C   UNL     1      44.313 131.397  18.862  1.00  0.00    -0.075 A 
ATOM      5  O   UNL     1      45.500 130.902  18.331  1.00  0.00    -0.871 OA
ATOM      6  C   UNL     1      43.313 131.875  17.989  1.00  0.00     0.031 A 
ATOM      7  C   UNL     1      42.153 132.456  18.518  1.00  0.00     0.025 A 
ENDROOT
BRANCH   3   8
ATOM      8  N   UNL     1      45.078 130.960  21.210  1.00  0.00    -0.061 NA
BRANCH   8   9
ATOM      9  N   UNL     1      44.784 130.247  22.170  1.00  0.00     0.005 N 
ATOM     10  N   UNL     1      44.494 129.530  23.125  1.00  0.00    -0.003 NA
ENDBRANCH   8   9
ENDBRANCH   3   8
BRANCH   6  11
ATOM     11  N   UNL     1      43.483 131.834  16.563  1.00  0.00    -0.356 N 
ATOM     12  H   UNL     1      42.679 132.142  15.970  1.00  0.00     0.166 HD
BRANCH  11  13
ATOM     13  C   UNL     1      44.646 131.301  15.903  1.00  0.00     0.041 A 
ATOM     14  C   UNL     1      45.579 132.181  15.335  1.00  0.00     0.026 A 
ATOM     15  C   UNL     1      44.840 129.915  15.767  1.00  0.00     0.065 A 
ATOM     16  C   UNL     1      46.705 131.687  14.672  1.00  0.00     0.008 A 
ATOM     17  C   UNL     1      45.968 129.420  15.104  1.00  0.00     0.128 A 
ATOM     18  C   UNL     1      46.917 130.304  14.566  1.00  0.00    -0.015 A 
ATOM     19  F   UNL     1      46.129 128.077  14.981  1.00  0.00    -0.207 F 
ATOM     20  C   UNL     1      48.113 129.775  13.829  1.00  0.00     0.047 C 
ENDBRANCH  11  13
ENDBRANCH   6  11
TORSDOF 4
ENDMDL


