REMARK SMILES C[C@H]1C[C@@H](c2cccc3ncoc23)[C@H]([NH2+]c2cccc(N)c2[O-])[C@@H](O)[C@@H]1F
REMARK SMILES IDX 15 1 14 4 2 5 3 6 26 7 4 8 24 9 1 10 27 11 5 12 6 13 13 14
REMARK SMILES IDX 7 15 12 16 9 17 8 18 11 19 10 20 25 21 16 23 17 24 22 25
REMARK SMILES IDX 18 26 20 27 19 28 23 29 21 30
REMARK H PARENT 15 2 15 3 25 22 21 31 21 32
ROOT
ATOM      1  N   UNL     1       1.373  -0.539  -1.471  1.00  0.00    -0.309 N 
ATOM      2  H   UNL     1       2.233  -1.118  -1.610  1.00  0.00     0.352 HD
ATOM      3  H   UNL     1       0.960  -0.409  -2.424  1.00  0.00     0.352 HD
ENDROOT
BRANCH   1   4
ATOM      4  C   UNL     1       0.394  -1.245  -0.595  1.00  0.00     0.227 C 
ATOM      5  C   UNL     1      -2.014  -3.022  -0.315  1.00  0.00     0.024 C 
ATOM      6  C   UNL     1      -2.084  -1.526   0.023  1.00  0.00     0.021 C 
ATOM      7  C   UNL     1      -0.593  -3.550  -0.059  1.00  0.00     0.204 C 
ATOM      8  C   UNL     1      -1.065  -0.714  -0.801  1.00  0.00     0.085 C 
ATOM      9  C   UNL     1       0.448  -2.772  -0.884  1.00  0.00     0.207 C 
ATOM     10  C   UNL     1      -3.045  -3.801   0.512  1.00  0.00     0.011 C 
ATOM     11  F   UNL     1      -0.529  -4.892  -0.402  1.00  0.00    -0.244 F 
BRANCH   8  12
ATOM     12  C   UNL     1      -1.231   0.758  -0.465  1.00  0.00     0.006 A 
ATOM     13  C   UNL     1      -1.797   1.652  -1.405  1.00  0.00     0.008 A 
ATOM     14  C   UNL     1      -0.884   1.296   0.784  1.00  0.00     0.158 A 
ATOM     15  C   UNL     1      -1.958   3.022  -1.095  1.00  0.00     0.003 A 
ATOM     16  O   UNL     1      -0.371   0.703   1.828  1.00  0.00    -0.443 OA
ATOM     17  C   UNL     1      -1.040   2.617   1.078  1.00  0.00     0.109 A 
ATOM     18  C   UNL     1      -1.572   3.519   0.162  1.00  0.00     0.032 A 
ATOM     19  C   UNL     1      -0.210   1.642   2.744  1.00  0.00     0.309 A 
ATOM     20  N   UNL     1      -0.615   2.870   2.327  1.00  0.00    -0.217 NA
ENDBRANCH   8  12
BRANCH   9  21
ATOM     21  O   UNL     1       1.729  -3.260  -0.571  1.00  0.00    -0.384 OA
ATOM     22  H   UNL     1       1.867  -4.083  -1.110  1.00  0.00     0.211 HD
ENDBRANCH   9  21
ENDBRANCH   1   4
BRANCH   1  23
ATOM     23  C   UNL     1       1.816   0.728  -0.927  1.00  0.00     0.124 A 
ATOM     24  C   UNL     1       1.484   1.930  -1.579  1.00  0.00     0.067 A 
ATOM     25  C   UNL     1       2.625   0.780   0.230  1.00  0.00    -0.022 A 
ATOM     26  C   UNL     1       1.881   3.158  -1.050  1.00  0.00     0.008 A 
ATOM     27  C   UNL     1       3.017   2.021   0.766  1.00  0.00     0.029 A 
ATOM     28  C   UNL     1       2.633   3.205   0.124  1.00  0.00     0.025 A 
ATOM     29  O   UNL     1       3.044  -0.399   0.841  1.00  0.00    -0.867 OA
BRANCH  27  30
ATOM     30  N   UNL     1       3.805   2.086   1.960  1.00  0.00    -0.399 N 
ATOM     31  H   UNL     1       4.096   3.007   2.356  1.00  0.00     0.156 HD
ATOM     32  H   UNL     1       4.099   1.221   2.465  1.00  0.00     0.156 HD
ENDBRANCH  27  30
ENDBRANCH   1  23
TORSDOF 5


