REMARK SMILES C=Cc1ccc(-c2cccc3ccoc23)nc1
REMARK SMILES IDX 3 1 4 2 5 3 6 4 16 5 17 6 2 7 1 8 7 9 8 10 15 11 9 12 14 13
REMARK SMILES IDX 11 14 10 15 13 16 12 17
REMARK H PARENT
ROOT
ATOM      1  C   UNL     1      -0.258  -2.728   1.036  1.00  0.00    -0.008 A 
ATOM      2  C   UNL     1      -0.927  -2.159  -0.054  1.00  0.00     0.012 A 
ATOM      3  C   UNL     1      -1.092  -0.776  -0.149  1.00  0.00     0.030 A 
ATOM      4  C   UNL     1      -0.582   0.062   0.861  1.00  0.00     0.074 A 
ATOM      5  N   UNL     1       0.065  -0.520   1.910  1.00  0.00    -0.255 NA
ATOM      6  C   UNL     1       0.239  -1.863   2.026  1.00  0.00     0.119 A 
ENDROOT
BRANCH   1   7
ATOM      7  C   UNL     1      -0.109  -4.206   1.089  1.00  0.00     0.002 C 
ATOM      8  C   UNL     1       0.503  -4.877   2.065  1.00  0.00     0.009 C 
ENDBRANCH   1   7
BRANCH   4   9
ATOM      9  C   UNL     1      -0.712   1.557   0.844  1.00  0.00     0.043 A 
ATOM     10  C   UNL     1      -0.163   2.318   1.911  1.00  0.00     0.014 A 
ATOM     11  C   UNL     1      -1.354   2.295  -0.176  1.00  0.00     0.143 A 
ATOM     12  C   UNL     1      -0.260   3.724   1.939  1.00  0.00     0.002 A 
ATOM     13  O   UNL     1      -1.942   1.858  -1.264  1.00  0.00    -0.464 OA
ATOM     14  C   UNL     1      -1.441   3.665  -0.135  1.00  0.00     0.021 A 
ATOM     15  C   UNL     1      -0.906   4.414   0.905  1.00  0.00     0.012 A 
ATOM     16  C   UNL     1      -2.408   2.895  -1.933  1.00  0.00     0.196 A 
ATOM     17  C   UNL     1      -2.117   4.072  -1.260  1.00  0.00     0.050 A 
ENDBRANCH   4   9
TORSDOF 2


