REMARK SMILES C#C[C@@H]1CN=C([NH3+])[C@@H](Nc2cc(C)c3c(nnn3C)c2[O-])C1
REMARK SMILES IDX 3 1 4 2 5 3 6 4 8 5 22 6 2 7 1 8 9 9 10 11 11 12 20 13 12 14
REMARK SMILES IDX 15 15 14 16 16 17 18 18 17 19 21 20 13 21 19 22 7 23
REMARK H PARENT 9 10 7 24 7 25 7 26
ROOT
ATOM      1  C   UNL     1       3.219  -1.372   2.776  1.00  0.00     0.088 C 
ATOM      2  C   UNL     1       3.514  -0.065   3.519  1.00  0.00     0.165 C 
ATOM      3  N   UNL     1       2.433   0.894   3.384  1.00  0.00    -0.236 NA
ATOM      4  C   UNL     1       1.638   0.979   2.365  1.00  0.00     0.216 C 
ATOM      5  C   UNL     1       1.617  -0.087   1.276  1.00  0.00     0.187 C 
ATOM      6  C   UNL     1       2.829  -1.037   1.333  1.00  0.00     0.056 C 
ENDROOT
BRANCH   1   7
ATOM      7  C   UNL     1       2.161  -2.143   3.455  1.00  0.00    -0.101 C 
ATOM      8  C   UNL     1       1.295  -2.772   4.010  1.00  0.00     0.004 C 
ENDBRANCH   1   7
BRANCH   5   9
ATOM      9  N   UNL     1       1.559   0.547  -0.045  1.00  0.00    -0.372 N 
ATOM     10  H   UNL     1       2.399   1.083  -0.361  1.00  0.00     0.161 HD
BRANCH   9  11
ATOM     11  C   UNL     1       0.471   0.375  -0.973  1.00  0.00     0.029 A 
ATOM     12  C   UNL     1      -0.868   0.234  -0.517  1.00  0.00     0.030 A 
ATOM     13  C   UNL     1       0.733   0.392  -2.360  1.00  0.00    -0.054 A 
ATOM     14  C   UNL     1      -1.943   0.083  -1.425  1.00  0.00    -0.021 A 
ATOM     15  C   UNL     1      -0.340   0.244  -3.231  1.00  0.00     0.107 A 
ATOM     16  C   UNL     1      -1.624   0.092  -2.795  1.00  0.00     0.091 A 
ATOM     17  N   UNL     1      -0.320   0.224  -4.575  1.00  0.00    -0.131 NA
ATOM     18  N   UNL     1      -2.393  -0.021  -3.900  1.00  0.00    -0.247 N 
ATOM     19  N   UNL     1      -1.585   0.060  -4.952  1.00  0.00    -0.067 NA
ATOM     20  O   UNL     1       2.025   0.542  -2.852  1.00  0.00    -0.870 OA
ATOM     21  C   UNL     1      -3.347  -0.061  -0.910  1.00  0.00     0.047 C 
ATOM     22  C   UNL     1      -3.835  -0.204  -4.012  1.00  0.00     0.176 C 
ENDBRANCH   9  11
ENDBRANCH   5   9
BRANCH   4  23
ATOM     23  N   UNL     1       0.591   1.964   2.389  1.00  0.00    -0.311 N 
ATOM     24  H   UNL     1      -0.309   1.497   2.641  1.00  0.00     0.351 HD
ATOM     25  H   UNL     1       0.802   2.707   3.094  1.00  0.00     0.351 HD
ATOM     26  H   UNL     1       0.503   2.414   1.450  1.00  0.00     0.351 HD
ENDBRANCH   4  23
TORSDOF 4


