MODEL 1
REMARK VINA RESULT:      -8.6      0.000      0.000
REMARK SMILES CC(=O)c1ccc(-c2[nH+]ccc(C)c2F)c([NH2+]N)c1
REMARK SMILES IDX 4 1 5 2 6 3 7 4 16 5 19 6 2 7 1 8 3 9 17 10 18 13 8 16 9 17
REMARK SMILES IDX 14 18 10 19 12 20 11 21 15 23 13 24
REMARK H PARENT 17 11 17 12 18 14 18 15 9 22
ROOT
ATOM      1  C   UNL     1      43.982 131.128  21.269  1.00  0.00     0.023 A 
ATOM      2  C   UNL     1      45.303 130.760  20.957  1.00  0.00     0.013 A 
ATOM      3  C   UNL     1      45.772 130.837  19.646  1.00  0.00     0.022 A 
ATOM      4  C   UNL     1      44.934 131.276  18.612  1.00  0.00     0.112 A 
ATOM      5  C   UNL     1      43.599 131.646  18.902  1.00  0.00     0.163 A 
ATOM      6  C   UNL     1      43.143 131.577  20.232  1.00  0.00     0.082 A 
ENDROOT
BRANCH   1   7
ATOM      7  C   UNL     1      43.470 131.058  22.664  1.00  0.00     0.160 C 
ATOM      8  C   UNL     1      42.743 129.853  23.182  1.00  0.00     0.093 C 
ATOM      9  O   UNL     1      43.645 132.032  23.446  1.00  0.00    -0.295 OA
ENDBRANCH   1   7
BRANCH   5  10
ATOM     10  N   UNL     1      42.726 132.169  17.877  1.00  0.00    -0.239 N 
ATOM     11  H   UNL     1      43.223 132.897  17.315  1.00  0.00     0.376 HD
ATOM     12  H   UNL     1      42.410 131.415  17.221  1.00  0.00     0.376 HD
BRANCH  10  13
ATOM     13  N   UNL     1      41.600 132.751  18.495  1.00  0.00    -0.178 NA
ATOM     14  H   UNL     1      41.313 132.131  19.288  1.00  0.00     0.183 HD
ATOM     15  H   UNL     1      41.891 133.662  18.921  1.00  0.00     0.183 HD
ENDBRANCH  10  13
ENDBRANCH   5  10
BRANCH   4  16
ATOM     16  C   UNL     1      45.477 131.347  17.241  1.00  0.00     0.253 A 
ATOM     17  N   UNL     1      45.457 132.529  16.561  1.00  0.00    -0.208 N 
ATOM     18  C   UNL     1      45.995 130.196  16.625  1.00  0.00     0.198 A 
ATOM     19  C   UNL     1      45.939 132.629  15.292  1.00  0.00     0.307 A 
ATOM     20  C   UNL     1      46.509 130.281  15.322  1.00  0.00    -0.002 A 
ATOM     21  C   UNL     1      46.470 131.509  14.651  1.00  0.00     0.077 A 
ATOM     22  H   UNL     1      45.055 133.383  17.012  1.00  0.00     0.453 HD
ATOM     23  F   UNL     1      46.010 129.012  17.292  1.00  0.00    -0.199 F 
ATOM     24  C   UNL     1      47.054 129.058  14.644  1.00  0.00     0.048 C 
ENDBRANCH   4  16
TORSDOF 4
ENDMDL
MODEL 2
REMARK VINA RESULT:      -8.3      3.147      6.272
REMARK SMILES CC(=O)c1ccc(-c2[nH+]ccc(C)c2F)c([NH2+]N)c1
REMARK SMILES IDX 4 1 5 2 6 3 7 4 16 5 19 6 2 7 1 8 3 9 17 10 18 13 8 16 9 17
REMARK SMILES IDX 14 18 10 19 12 20 11 21 15 23 13 24
REMARK H PARENT 17 11 17 12 18 14 18 15 9 22
ROOT
ATOM      1  C   UNL     1      46.623 130.656  14.569  1.00  0.00     0.023 A 
ATOM      2  C   UNL     1      46.965 130.295  15.884  1.00  0.00     0.013 A 
ATOM      3  C   UNL     1      46.110 130.587  16.946  1.00  0.00     0.022 A 
ATOM      4  C   UNL     1      44.897 131.253  16.726  1.00  0.00     0.112 A 
ATOM      5  C   UNL     1      44.536 131.631  15.411  1.00  0.00     0.163 A 
ATOM      6  C   UNL     1      45.402 131.318  14.346  1.00  0.00     0.082 A 
ENDROOT
BRANCH   1   7
ATOM      7  C   UNL     1      47.522 130.345  13.424  1.00  0.00     0.160 C 
ATOM      8  C   UNL     1      48.520 129.228  13.480  1.00  0.00     0.093 C 
ATOM      9  O   UNL     1      47.453 131.032  12.368  1.00  0.00    -0.295 OA
ENDBRANCH   1   7
BRANCH   5  10
ATOM     10  N   UNL     1      43.263 132.256  15.133  1.00  0.00    -0.239 N 
ATOM     11  H   UNL     1      42.560 131.983  15.857  1.00  0.00     0.376 HD
ATOM     12  H   UNL     1      43.341 133.301  15.136  1.00  0.00     0.376 HD
BRANCH  10  13
ATOM     13  N   UNL     1      42.815 131.826  13.868  1.00  0.00    -0.178 NA
ATOM     14  H   UNL     1      41.930 131.284  14.007  1.00  0.00     0.183 HD
ATOM     15  H   UNL     1      42.559 132.671  13.303  1.00  0.00     0.183 HD
ENDBRANCH  10  13
ENDBRANCH   5  10
BRANCH   4  16
ATOM     16  C   UNL     1      44.022 131.534  17.880  1.00  0.00     0.253 A 
ATOM     17  N   UNL     1      42.741 131.957  17.678  1.00  0.00    -0.208 N 
ATOM     18  C   UNL     1      44.511 131.388  19.189  1.00  0.00     0.198 A 
ATOM     19  C   UNL     1      41.910 132.235  18.719  1.00  0.00     0.307 A 
ATOM     20  C   UNL     1      43.666 131.658  20.277  1.00  0.00    -0.002 A 
ATOM     21  C   UNL     1      42.357 132.093  20.034  1.00  0.00     0.077 A 
ATOM     22  H   UNL     1      42.382 132.083  16.704  1.00  0.00     0.453 HD
ATOM     23  F   UNL     1      45.788 130.977  19.400  1.00  0.00    -0.199 F 
ATOM     24  C   UNL     1      44.175 131.521  21.681  1.00  0.00     0.048 C 
ENDBRANCH   4  16
TORSDOF 4
ENDMDL
MODEL 3
REMARK VINA RESULT:      -7.8      2.410      3.062
REMARK SMILES CC(=O)c1ccc(-c2[nH+]ccc(C)c2F)c([NH2+]N)c1
REMARK SMILES IDX 4 1 5 2 6 3 7 4 16 5 19 6 2 7 1 8 3 9 17 10 18 13 8 16 9 17
REMARK SMILES IDX 14 18 10 19 12 20 11 21 15 23 13 24
REMARK H PARENT 17 11 17 12 18 14 18 15 9 22
ROOT
ATOM      1  C   UNL     1      42.915 132.106  19.766  1.00  0.00     0.023 A 
ATOM      2  C   UNL     1      42.432 132.104  18.446  1.00  0.00     0.013 A 
ATOM      3  C   UNL     1      43.211 131.596  17.405  1.00  0.00     0.022 A 
ATOM      4  C   UNL     1      44.491 131.085  17.654  1.00  0.00     0.112 A 
ATOM      5  C   UNL     1      44.999 131.083  18.975  1.00  0.00     0.163 A 
ATOM      6  C   UNL     1      44.197 131.585  20.018  1.00  0.00     0.082 A 
ENDROOT
BRANCH   1   7
ATOM      7  C   UNL     1      42.093 132.638  20.888  1.00  0.00     0.160 C 
ATOM      8  C   UNL     1      42.302 132.193  22.304  1.00  0.00     0.093 C 
ATOM      9  O   UNL     1      41.192 133.489  20.656  1.00  0.00    -0.295 OA
ENDBRANCH   1   7
BRANCH   5  10
ATOM     10  N   UNL     1      46.284 130.501  19.283  1.00  0.00    -0.239 N 
ATOM     11  H   UNL     1      46.207 129.460  19.341  1.00  0.00     0.376 HD
ATOM     12  H   UNL     1      46.995 130.732  18.549  1.00  0.00     0.376 HD
BRANCH  10  13
ATOM     13  N   UNL     1      46.721 131.001  20.527  1.00  0.00    -0.178 NA
ATOM     14  H   UNL     1      46.000 131.676  20.874  1.00  0.00     0.183 HD
ATOM     15  H   UNL     1      46.739 130.210  21.214  1.00  0.00     0.183 HD
ENDBRANCH  10  13
ENDBRANCH   5  10
BRANCH   4  16
ATOM     16  C   UNL     1      45.275 130.552  16.523  1.00  0.00     0.253 A 
ATOM     17  N   UNL     1      45.315 129.208  16.294  1.00  0.00    -0.208 N 
ATOM     18  C   UNL     1      45.998 131.424  15.692  1.00  0.00     0.198 A 
ATOM     19  C   UNL     1      46.035 128.682  15.267  1.00  0.00     0.307 A 
ATOM     20  C   UNL     1      46.737 130.902  14.619  1.00  0.00    -0.002 A 
ATOM     21  C   UNL     1      46.759 129.517  14.414  1.00  0.00     0.077 A 
ATOM     22  H   UNL     1      44.791 128.557  16.923  1.00  0.00     0.453 HD
ATOM     23  F   UNL     1      45.971 132.763  15.918  1.00  0.00    -0.199 F 
ATOM     24  C   UNL     1      47.527 131.816  13.730  1.00  0.00     0.048 C 
ENDBRANCH   4  16
TORSDOF 4
ENDMDL
MODEL 4
REMARK VINA RESULT:      -7.8      1.043      1.063
REMARK SMILES CC(=O)c1ccc(-c2[nH+]ccc(C)c2F)c([NH2+]N)c1
REMARK SMILES IDX 4 1 5 2 6 3 7 4 16 5 19 6 2 7 1 8 3 9 17 10 18 13 8 16 9 17
REMARK SMILES IDX 14 18 10 19 12 20 11 21 15 23 13 24
REMARK H PARENT 17 11 17 12 18 14 18 15 9 22
ROOT
ATOM      1  C   UNL     1      44.153 131.332  21.609  1.00  0.00     0.023 A 
ATOM      2  C   UNL     1      45.411 131.140  21.011  1.00  0.00     0.013 A 
ATOM      3  C   UNL     1      45.542 131.120  19.622  1.00  0.00     0.022 A 
ATOM      4  C   UNL     1      44.422 131.282  18.796  1.00  0.00     0.112 A 
ATOM      5  C   UNL     1      43.146 131.470  19.377  1.00  0.00     0.163 A 
ATOM      6  C   UNL     1      43.029 131.504  20.779  1.00  0.00     0.082 A 
ENDROOT
BRANCH   1   7
ATOM      7  C   UNL     1      43.998 131.363  23.088  1.00  0.00     0.160 C 
ATOM      8  C   UNL     1      44.154 130.131  23.929  1.00  0.00     0.093 C 
ATOM      9  O   UNL     1      43.728 132.451  23.667  1.00  0.00    -0.295 OA
ENDBRANCH   1   7
BRANCH   5  10
ATOM     10  N   UNL     1      41.979 131.711  18.560  1.00  0.00    -0.239 N 
ATOM     11  H   UNL     1      42.166 131.436  17.569  1.00  0.00     0.376 HD
ATOM     12  H   UNL     1      41.154 131.161  18.898  1.00  0.00     0.376 HD
BRANCH  10  13
ATOM     13  N   UNL     1      41.671 133.087  18.606  1.00  0.00    -0.178 NA
ATOM     14  H   UNL     1      41.337 133.374  17.656  1.00  0.00     0.183 HD
ATOM     15  H   UNL     1      40.861 133.223  19.257  1.00  0.00     0.183 HD
ENDBRANCH  10  13
ENDBRANCH   5  10
BRANCH   4  16
ATOM     16  C   UNL     1      44.612 131.260  17.332  1.00  0.00     0.253 A 
ATOM     17  N   UNL     1      43.682 131.835  16.516  1.00  0.00    -0.208 N 
ATOM     18  C   UNL     1      45.736 130.629  16.775  1.00  0.00     0.198 A 
ATOM     19  C   UNL     1      43.820 131.824  15.162  1.00  0.00     0.307 A 
ATOM     20  C   UNL     1      45.903 130.618  15.382  1.00  0.00    -0.002 A 
ATOM     21  C   UNL     1      44.928 131.215  14.572  1.00  0.00     0.077 A 
ATOM     22  H   UNL     1      42.836 132.289  16.929  1.00  0.00     0.453 HD
ATOM     23  F   UNL     1      46.662 130.045  17.580  1.00  0.00    -0.199 F 
ATOM     24  C   UNL     1      47.091 129.937  14.768  1.00  0.00     0.048 C 
ENDBRANCH   4  16
TORSDOF 4
ENDMDL
MODEL 5
REMARK VINA RESULT:      -7.7      3.367      6.551
REMARK SMILES CC(=O)c1ccc(-c2[nH+]ccc(C)c2F)c([NH2+]N)c1
REMARK SMILES IDX 4 1 5 2 6 3 7 4 16 5 19 6 2 7 1 8 3 9 17 10 18 13 8 16 9 17
REMARK SMILES IDX 14 18 10 19 12 20 11 21 15 23 13 24
REMARK H PARENT 17 11 17 12 18 14 18 15 9 22
ROOT
ATOM      1  C   UNL     1      46.932 130.843  14.204  1.00  0.00     0.023 A 
ATOM      2  C   UNL     1      46.771 132.123  14.763  1.00  0.00     0.013 A 
ATOM      3  C   UNL     1      45.916 132.322  15.847  1.00  0.00     0.022 A 
ATOM      4  C   UNL     1      45.194 131.253  16.394  1.00  0.00     0.112 A 
ATOM      5  C   UNL     1      45.337 129.957  15.842  1.00  0.00     0.163 A 
ATOM      6  C   UNL     1      46.215 129.768  14.758  1.00  0.00     0.082 A 
ENDROOT
BRANCH   1   7
ATOM      7  C   UNL     1      47.847 130.614  13.052  1.00  0.00     0.160 C 
ATOM      8  C   UNL     1      48.851 129.500  13.046  1.00  0.00     0.093 C 
ATOM      9  O   UNL     1      47.787 131.369  12.044  1.00  0.00    -0.295 OA
ENDBRANCH   1   7
BRANCH   5  10
ATOM     10  N   UNL     1      44.665 128.817  16.422  1.00  0.00    -0.239 N 
ATOM     11  H   UNL     1      45.163 128.503  17.286  1.00  0.00     0.376 HD
ATOM     12  H   UNL     1      43.677 129.047  16.683  1.00  0.00     0.376 HD
BRANCH  10  13
ATOM     13  N   UNL     1      44.666 127.766  15.482  1.00  0.00    -0.178 NA
ATOM     14  H   UNL     1      44.027 127.016  15.837  1.00  0.00     0.183 HD
ATOM     15  H   UNL     1      44.241 128.118  14.591  1.00  0.00     0.183 HD
ENDBRANCH  10  13
ENDBRANCH   5  10
BRANCH   4  16
ATOM     16  C   UNL     1      44.307 131.510  17.545  1.00  0.00     0.253 A 
ATOM     17  N   UNL     1      43.021 131.918  17.337  1.00  0.00    -0.208 N 
ATOM     18  C   UNL     1      44.788 131.358  18.856  1.00  0.00     0.198 A 
ATOM     19  C   UNL     1      42.179 132.174  18.375  1.00  0.00     0.307 A 
ATOM     20  C   UNL     1      43.931 131.606  19.940  1.00  0.00    -0.002 A 
ATOM     21  C   UNL     1      42.618 132.025  19.691  1.00  0.00     0.077 A 
ATOM     22  H   UNL     1      42.668 132.048  16.362  1.00  0.00     0.453 HD
ATOM     23  F   UNL     1      46.069 130.963  19.072  1.00  0.00    -0.199 F 
ATOM     24  C   UNL     1      44.432 131.462  21.347  1.00  0.00     0.048 C 
ENDBRANCH   4  16
TORSDOF 4
ENDMDL
MODEL 6
REMARK VINA RESULT:      -7.5      1.433      1.890
REMARK SMILES CC(=O)c1ccc(-c2[nH+]ccc(C)c2F)c([NH2+]N)c1
REMARK SMILES IDX 4 1 5 2 6 3 7 4 16 5 19 6 2 7 1 8 3 9 17 10 18 13 8 16 9 17
REMARK SMILES IDX 14 18 10 19 12 20 11 21 15 23 13 24
REMARK H PARENT 17 11 17 12 18 14 18 15 9 22
ROOT
ATOM      1  C   UNL     1      44.003 131.490  20.998  1.00  0.00     0.023 A 
ATOM      2  C   UNL     1      45.204 130.784  20.807  1.00  0.00     0.013 A 
ATOM      3  C   UNL     1      45.640 130.458  19.523  1.00  0.00     0.022 A 
ATOM      4  C   UNL     1      44.886 130.819  18.398  1.00  0.00     0.112 A 
ATOM      5  C   UNL     1      43.671 131.525  18.568  1.00  0.00     0.163 A 
ATOM      6  C   UNL     1      43.250 131.860  19.869  1.00  0.00     0.082 A 
ENDROOT
BRANCH   1   7
ATOM      7  C   UNL     1      43.528 131.851  22.361  1.00  0.00     0.160 C 
ATOM      8  C   UNL     1      44.381 131.649  23.578  1.00  0.00     0.093 C 
ATOM      9  O   UNL     1      42.377 132.344  22.514  1.00  0.00    -0.295 OA
ENDBRANCH   1   7
BRANCH   5  10
ATOM     10  N   UNL     1      42.901 131.976  17.432  1.00  0.00    -0.239 N 
ATOM     11  H   UNL     1      43.472 132.621  16.840  1.00  0.00     0.376 HD
ATOM     12  H   UNL     1      42.595 131.173  16.833  1.00  0.00     0.376 HD
BRANCH  10  13
ATOM     13  N   UNL     1      41.765 132.666  17.901  1.00  0.00    -0.178 NA
ATOM     14  H   UNL     1      42.091 133.545  18.366  1.00  0.00     0.183 HD
ATOM     15  H   UNL     1      41.193 132.964  17.075  1.00  0.00     0.183 HD
ENDBRANCH  10  13
ENDBRANCH   5  10
BRANCH   4  16
ATOM     16  C   UNL     1      45.391 130.458  17.059  1.00  0.00     0.253 A 
ATOM     17  N   UNL     1      45.363 129.158  16.648  1.00  0.00    -0.208 N 
ATOM     18  C   UNL     1      45.922 131.447  16.215  1.00  0.00     0.198 A 
ATOM     19  C   UNL     1      45.830 128.788  15.424  1.00  0.00     0.307 A 
ATOM     20  C   UNL     1      46.396 131.088  14.944  1.00  0.00    -0.002 A 
ATOM     21  C   UNL     1      46.356 129.744  14.554  1.00  0.00     0.077 A 
ATOM     22  H   UNL     1      44.985 128.419  17.283  1.00  0.00     0.453 HD
ATOM     23  F   UNL     1      45.963 132.743  16.620  1.00  0.00    -0.199 F 
ATOM     24  C   UNL     1      46.979 132.129  14.033  1.00  0.00     0.048 C 
ENDBRANCH   4  16
TORSDOF 4
ENDMDL
MODEL 7
REMARK VINA RESULT:      -7.2      2.706      6.024
REMARK SMILES CC(=O)c1ccc(-c2[nH+]ccc(C)c2F)c([NH2+]N)c1
REMARK SMILES IDX 4 1 5 2 6 3 7 4 16 5 19 6 2 7 1 8 3 9 17 10 18 13 8 16 9 17
REMARK SMILES IDX 14 18 10 19 12 20 11 21 15 23 13 24
REMARK H PARENT 17 11 17 12 18 14 18 15 9 22
ROOT
ATOM      1  C   UNL     1      44.805 131.423  17.031  1.00  0.00     0.023 A 
ATOM      2  C   UNL     1      45.765 131.010  17.971  1.00  0.00     0.013 A 
ATOM      3  C   UNL     1      45.442 130.920  19.325  1.00  0.00     0.022 A 
ATOM      4  C   UNL     1      44.157 131.248  19.776  1.00  0.00     0.112 A 
ATOM      5  C   UNL     1      43.176 131.672  18.848  1.00  0.00     0.163 A 
ATOM      6  C   UNL     1      43.512 131.744  17.483  1.00  0.00     0.082 A 
ENDROOT
BRANCH   1   7
ATOM      7  C   UNL     1      45.132 131.516  15.582  1.00  0.00     0.160 C 
ATOM      8  C   UNL     1      46.536 131.373  15.076  1.00  0.00     0.093 C 
ATOM      9  O   UNL     1      44.213 131.721  14.744  1.00  0.00    -0.295 OA
ENDBRANCH   1   7
BRANCH   5  10
ATOM     10  N   UNL     1      41.821 131.951  19.264  1.00  0.00    -0.239 N 
ATOM     11  H   UNL     1      41.150 131.706  18.501  1.00  0.00     0.376 HD
ATOM     12  H   UNL     1      41.560 131.398  20.114  1.00  0.00     0.376 HD
BRANCH  10  13
ATOM     13  N   UNL     1      41.711 133.327  19.551  1.00  0.00    -0.178 NA
ATOM     14  H   UNL     1      42.223 133.854  18.805  1.00  0.00     0.183 HD
ATOM     15  H   UNL     1      40.703 133.603  19.469  1.00  0.00     0.183 HD
ENDBRANCH  10  13
ENDBRANCH   5  10
BRANCH   4  16
ATOM     16  C   UNL     1      43.860 131.131  21.217  1.00  0.00     0.253 A 
ATOM     17  N   UNL     1      43.055 132.050  21.824  1.00  0.00    -0.208 N 
ATOM     18  C   UNL     1      44.421 130.088  21.972  1.00  0.00     0.198 A 
ATOM     19  C   UNL     1      42.768 131.979  23.152  1.00  0.00     0.307 A 
ATOM     20  C   UNL     1      44.127 129.989  23.340  1.00  0.00    -0.002 A 
ATOM     21  C   UNL     1      43.300 130.951  23.933  1.00  0.00     0.077 A 
ATOM     22  H   UNL     1      42.651 132.837  21.267  1.00  0.00     0.453 HD
ATOM     23  F   UNL     1      45.231 129.173  21.378  1.00  0.00    -0.199 F 
ATOM     24  C   UNL     1      44.729 128.889  24.165  1.00  0.00     0.048 C 
ENDBRANCH   4  16
TORSDOF 4
ENDMDL
MODEL 8
REMARK VINA RESULT:      -6.9      2.811      6.053
REMARK SMILES CC(=O)c1ccc(-c2[nH+]ccc(C)c2F)c([NH2+]N)c1
REMARK SMILES IDX 4 1 5 2 6 3 7 4 16 5 19 6 2 7 1 8 3 9 17 10 18 13 8 16 9 17
REMARK SMILES IDX 14 18 10 19 12 20 11 21 15 23 13 24
REMARK H PARENT 17 11 17 12 18 14 18 15 9 22
ROOT
ATOM      1  C   UNL     1      44.949 131.414  17.608  1.00  0.00     0.023 A 
ATOM      2  C   UNL     1      45.872 130.659  18.353  1.00  0.00     0.013 A 
ATOM      3  C   UNL     1      45.689 130.465  19.723  1.00  0.00     0.022 A 
ATOM      4  C   UNL     1      44.589 131.026  20.384  1.00  0.00     0.112 A 
ATOM      5  C   UNL     1      43.652 131.795  19.654  1.00  0.00     0.163 A 
ATOM      6  C   UNL     1      43.840 131.970  18.270  1.00  0.00     0.082 A 
ENDROOT
BRANCH   1   7
ATOM      7  C   UNL     1      45.126 131.623  16.145  1.00  0.00     0.160 C 
ATOM      8  C   UNL     1      43.996 131.442  15.176  1.00  0.00     0.093 C 
ATOM      9  O   UNL     1      46.252 131.964  15.692  1.00  0.00    -0.295 OA
ENDBRANCH   1   7
BRANCH   5  10
ATOM     10  N   UNL     1      42.468 132.331  20.286  1.00  0.00    -0.239 N 
ATOM     11  H   UNL     1      41.900 131.560  20.705  1.00  0.00     0.376 HD
ATOM     12  H   UNL     1      42.713 133.005  21.050  1.00  0.00     0.376 HD
BRANCH  10  13
ATOM     13  N   UNL     1      41.697 132.995  19.310  1.00  0.00    -0.178 NA
ATOM     14  H   UNL     1      42.349 133.356  18.575  1.00  0.00     0.183 HD
ATOM     15  H   UNL     1      41.081 132.290  18.839  1.00  0.00     0.183 HD
ENDBRANCH  10  13
ENDBRANCH   5  10
BRANCH   4  16
ATOM     16  C   UNL     1      44.435 130.788  21.833  1.00  0.00     0.253 A 
ATOM     17  N   UNL     1      44.090 131.816  22.660  1.00  0.00    -0.208 N 
ATOM     18  C   UNL     1      44.665 129.509  22.367  1.00  0.00     0.198 A 
ATOM     19  C   UNL     1      43.949 131.635  24.001  1.00  0.00     0.307 A 
ATOM     20  C   UNL     1      44.513 129.299  23.746  1.00  0.00    -0.002 A 
ATOM     21  C   UNL     1      44.160 130.377  24.567  1.00  0.00     0.077 A 
ATOM     22  H   UNL     1      43.935 132.772  22.265  1.00  0.00     0.453 HD
ATOM     23  F   UNL     1      45.020 128.482  21.552  1.00  0.00    -0.199 F 
ATOM     24  C   UNL     1      44.768 127.943  24.336  1.00  0.00     0.048 C 
ENDBRANCH   4  16
TORSDOF 4
ENDMDL
MODEL 9
REMARK VINA RESULT:      -6.8      2.811      6.237
REMARK SMILES CC(=O)c1ccc(-c2[nH+]ccc(C)c2F)c([NH2+]N)c1
REMARK SMILES IDX 4 1 5 2 6 3 7 4 16 5 19 6 2 7 1 8 3 9 17 10 18 13 8 16 9 17
REMARK SMILES IDX 14 18 10 19 12 20 11 21 15 23 13 24
REMARK H PARENT 17 11 17 12 18 14 18 15 9 22
ROOT
ATOM      1  C   UNL     1      45.096 131.119  17.202  1.00  0.00     0.023 A 
ATOM      2  C   UNL     1      45.859 130.486  18.200  1.00  0.00     0.013 A 
ATOM      3  C   UNL     1      45.456 130.527  19.535  1.00  0.00     0.022 A 
ATOM      4  C   UNL     1      44.290 131.207  19.909  1.00  0.00     0.112 A 
ATOM      5  C   UNL     1      43.511 131.856  18.922  1.00  0.00     0.163 A 
ATOM      6  C   UNL     1      43.920 131.794  17.577  1.00  0.00     0.082 A 
ENDROOT
BRANCH   1   7
ATOM      7  C   UNL     1      45.508 131.078  15.773  1.00  0.00     0.160 C 
ATOM      8  C   UNL     1      46.666 130.248  15.305  1.00  0.00     0.093 C 
ATOM      9  O   UNL     1      44.875 131.755  14.918  1.00  0.00    -0.295 OA
ENDBRANCH   1   7
BRANCH   5  10
ATOM     10  N   UNL     1      42.266 132.507  19.259  1.00  0.00    -0.239 N 
ATOM     11  H   UNL     1      41.662 131.866  19.821  1.00  0.00     0.376 HD
ATOM     12  H   UNL     1      42.427 133.376  19.822  1.00  0.00     0.376 HD
BRANCH  10  13
ATOM     13  N   UNL     1      41.596 132.845  18.065  1.00  0.00    -0.178 NA
ATOM     14  H   UNL     1      41.091 131.992  17.727  1.00  0.00     0.183 HD
ATOM     15  H   UNL     1      40.859 133.555  18.289  1.00  0.00     0.183 HD
ENDBRANCH  10  13
ENDBRANCH   5  10
BRANCH   4  16
ATOM     16  C   UNL     1      43.902 131.217  21.333  1.00  0.00     0.253 A 
ATOM     17  N   UNL     1      42.795 130.533  21.743  1.00  0.00    -0.208 N 
ATOM     18  C   UNL     1      44.655 131.949  22.266  1.00  0.00     0.198 A 
ATOM     19  C   UNL     1      42.402 130.529  23.046  1.00  0.00     0.307 A 
ATOM     20  C   UNL     1      44.274 131.947  23.616  1.00  0.00    -0.002 A 
ATOM     21  C   UNL     1      43.131 131.236  24.003  1.00  0.00     0.077 A 
ATOM     22  H   UNL     1      42.224 130.003  21.047  1.00  0.00     0.453 HD
ATOM     23  F   UNL     1      45.753 132.641  21.865  1.00  0.00    -0.199 F 
ATOM     24  C   UNL     1      45.059 132.734  24.624  1.00  0.00     0.048 C 
ENDBRANCH   4  16
TORSDOF 4
ENDMDL


