REMARK SMILES C=C[C@H]1C[NH2+][C@H](c2ccc3ncnn3c2)N(C(=O)c2cccc(C)c2)C1
REMARK SMILES IDX 3 1 4 2 5 3 6 4 16 5 26 6 2 9 1 10 17 11 18 12 19 13 20 14
REMARK SMILES IDX 25 15 21 16 23 17 22 18 24 19 7 20 8 21 15 22 9 23 14 24
REMARK SMILES IDX 10 25 13 26 11 27 12 28
REMARK H PARENT 5 7 5 8
ROOT
ATOM      1  C   UNL     1       2.727   1.492   2.773  1.00  0.00     0.086 C 
ATOM      2  C   UNL     1       2.287   2.626   1.811  1.00  0.00     0.272 C 
ATOM      3  N   UNL     1       0.856   2.542   1.492  1.00  0.00    -0.322 N 
ATOM      4  C   UNL     1       0.564   1.288   0.771  1.00  0.00     0.320 C 
ATOM      5  N   UNL     1       1.085   0.111   1.505  1.00  0.00    -0.284 N 
ATOM      6  C   UNL     1       1.728   0.313   2.812  1.00  0.00     0.139 C 
ATOM      7  H   UNL     1       0.604   3.354   0.881  1.00  0.00     0.348 HD
ATOM      8  H   UNL     1       0.297   2.611   2.375  1.00  0.00     0.348 HD
ENDROOT
BRANCH   1   9
ATOM      9  C   UNL     1       4.133   1.023   2.466  1.00  0.00    -0.024 C 
ATOM     10  C   UNL     1       4.453   0.392   1.330  1.00  0.00     0.004 C 
ENDBRANCH   1   9
BRANCH   5  11
ATOM     11  C   UNL     1       0.795  -1.235   1.055  1.00  0.00     0.258 C 
ATOM     12  O   UNL     1       0.822  -2.192   1.875  1.00  0.00    -0.269 OA
BRANCH  11  13
ATOM     13  C   UNL     1       0.397  -1.515  -0.338  1.00  0.00     0.040 A 
ATOM     14  C   UNL     1       1.208  -1.111  -1.409  1.00  0.00     0.014 A 
ATOM     15  C   UNL     1      -0.827  -2.151  -0.596  1.00  0.00     0.017 A 
ATOM     16  C   UNL     1       0.783  -1.313  -2.724  1.00  0.00     0.001 A 
ATOM     17  C   UNL     1      -1.255  -2.357  -1.917  1.00  0.00    -0.050 A 
ATOM     18  C   UNL     1      -0.448  -1.922  -2.979  1.00  0.00     0.003 A 
ATOM     19  C   UNL     1      -2.605  -2.951  -2.185  1.00  0.00     0.044 C 
ENDBRANCH  11  13
ENDBRANCH   5  11
BRANCH   4  20
ATOM     20  C   UNL     1      -0.930   1.161   0.534  1.00  0.00     0.050 A 
ATOM     21  C   UNL     1      -1.816   0.879   1.603  1.00  0.00     0.017 A 
ATOM     22  C   UNL     1      -1.456   1.274  -0.770  1.00  0.00     0.127 A 
ATOM     23  C   UNL     1      -3.187   0.692   1.365  1.00  0.00     0.050 A 
ATOM     24  N   UNL     1      -2.785   1.078  -0.944  1.00  0.00    -0.221 N 
ATOM     25  C   UNL     1      -3.630   0.797   0.051  1.00  0.00     0.155 A 
ATOM     26  N   UNL     1      -3.455   1.105  -2.077  1.00  0.00    -0.155 NA
ATOM     27  N   UNL     1      -4.890   0.631  -0.390  1.00  0.00    -0.215 NA
ATOM     28  C   UNL     1      -4.734   0.833  -1.725  1.00  0.00     0.247 A 
ENDBRANCH   4  20
TORSDOF 4


