MODEL 1
REMARK VINA RESULT:      -5.4      0.000      0.000
REMARK SMILES Cc1ccc(-c2ccc(OC(=O)[C@H]3CCC3(C)C)cc2)c2c[n-]nc12
REMARK SMILES IDX 10 1 9 2 6 3 7 4 20 5 8 6 19 7 5 8 2 9 3 10 25 11 4 12 24 13
REMARK SMILES IDX 21 14 23 15 22 16 1 17 11 18 12 19 13 20 14 21 16 22 15 23
REMARK SMILES IDX 17 24 18 25
REMARK H PARENT
ROOT
ATOM      1  O   UNL     1      42.115 131.601  20.848  1.00  0.00    -0.426 OA
ENDROOT
BRANCH   1   2
ATOM      2  C   UNL     1      42.966 131.568  19.735  1.00  0.00     0.130 A 
ATOM      3  C   UNL     1      44.598 131.490  17.436  1.00  0.00    -0.018 A 
ATOM      4  C   UNL     1      45.164 131.348  18.714  1.00  0.00     0.012 A 
ATOM      5  C   UNL     1      43.207 131.644  17.318  1.00  0.00     0.012 A 
ATOM      6  C   UNL     1      44.356 131.385  19.855  1.00  0.00     0.048 A 
ATOM      7  C   UNL     1      42.400 131.679  18.460  1.00  0.00     0.048 A 
BRANCH   3   8
ATOM      8  C   UNL     1      45.455 131.441  16.230  1.00  0.00    -0.011 A 
ATOM      9  C   UNL     1      47.126 131.348  13.913  1.00  0.00    -0.027 A 
ATOM     10  C   UNL     1      46.701 132.584  14.445  1.00  0.00     0.006 A 
ATOM     11  C   UNL     1      46.676 130.188  14.550  1.00  0.00     0.050 A 
ATOM     12  C   UNL     1      45.877 132.630  15.592  1.00  0.00     0.010 A 
ATOM     13  N   UNL     1      46.904 128.911  14.193  1.00  0.00    -0.367 NA
ATOM     14  C   UNL     1      45.880 130.233  15.660  1.00  0.00    -0.014 A 
ATOM     15  N   UNL     1      46.259 128.137  15.059  1.00  0.00    -0.581 NA
ATOM     16  C   UNL     1      45.622 128.913  15.964  1.00  0.00    -0.113 A 
ATOM     17  C   UNL     1      47.961 131.283  12.669  1.00  0.00     0.046 C 
ENDBRANCH   3   8
ENDBRANCH   1   2
BRANCH   1  18
ATOM     18  C   UNL     1      42.489 131.983  22.142  1.00  0.00     0.314 C 
ATOM     19  O   UNL     1      41.752 132.746  22.827  1.00  0.00    -0.251 OA
BRANCH  18  20
ATOM     20  C   UNL     1      43.733 131.369  22.740  1.00  0.00     0.105 C 
ATOM     21  C   UNL     1      44.031 131.767  24.190  1.00  0.00     0.016 C 
ATOM     22  C   UNL     1      43.619 129.890  23.177  1.00  0.00    -0.022 C 
ATOM     23  C   UNL     1      43.929 130.308  24.623  1.00  0.00     0.008 C 
ATOM     24  C   UNL     1      44.721 129.008  22.565  1.00  0.00     0.012 C 
ATOM     25  C   UNL     1      42.228 129.236  23.034  1.00  0.00     0.012 C 
ENDBRANCH  18  20
ENDBRANCH   1  18
TORSDOF 4
ENDMDL
MODEL 2
REMARK VINA RESULT:      -5.1      7.598      8.769
REMARK SMILES Cc1ccc(-c2ccc(OC(=O)[C@H]3CCC3(C)C)cc2)c2c[n-]nc12
REMARK SMILES IDX 10 1 9 2 6 3 7 4 20 5 8 6 19 7 5 8 2 9 3 10 25 11 4 12 24 13
REMARK SMILES IDX 21 14 23 15 22 16 1 17 11 18 12 19 13 20 14 21 16 22 15 23
REMARK SMILES IDX 17 24 18 25
REMARK H PARENT
ROOT
ATOM      1  O   UNL     1      42.637 125.226  24.217  1.00  0.00    -0.426 OA
ENDROOT
BRANCH   1   2
ATOM      2  C   UNL     1      43.985 125.199  23.831  1.00  0.00     0.130 A 
ATOM      3  C   UNL     1      46.701 125.049  23.088  1.00  0.00    -0.018 A 
ATOM      4  C   UNL     1      46.054 126.294  23.165  1.00  0.00     0.012 A 
ATOM      5  C   UNL     1      45.986 123.886  23.413  1.00  0.00     0.012 A 
ATOM      6  C   UNL     1      44.707 126.370  23.535  1.00  0.00     0.048 A 
ATOM      7  C   UNL     1      44.640 123.963  23.783  1.00  0.00     0.048 A 
BRANCH   3   8
ATOM      8  C   UNL     1      48.130 124.974  22.705  1.00  0.00    -0.011 A 
ATOM      9  C   UNL     1      50.890 124.815  21.982  1.00  0.00    -0.027 A 
ATOM     10  C   UNL     1      50.437 125.805  22.879  1.00  0.00     0.006 A 
ATOM     11  C   UNL     1      49.934 123.944  21.452  1.00  0.00     0.050 A 
ATOM     12  C   UNL     1      49.072 125.882  23.239  1.00  0.00     0.010 A 
ATOM     13  N   UNL     1      50.121 122.967  20.547  1.00  0.00    -0.367 NA
ATOM     14  C   UNL     1      48.614 124.018  21.802  1.00  0.00    -0.014 A 
ATOM     15  N   UNL     1      48.935 122.417  20.307  1.00  0.00    -0.581 NA
ATOM     16  C   UNL     1      47.995 123.038  21.055  1.00  0.00    -0.113 A 
ATOM     17  C   UNL     1      52.327 124.752  21.556  1.00  0.00     0.046 C 
ENDBRANCH   3   8
ENDBRANCH   1   2
BRANCH   1  18
ATOM     18  C   UNL     1      41.560 125.522  23.373  1.00  0.00     0.314 C 
ATOM     19  O   UNL     1      41.106 126.698  23.296  1.00  0.00    -0.251 OA
BRANCH  18  20
ATOM     20  C   UNL     1      41.033 124.429  22.474  1.00  0.00     0.105 C 
ATOM     21  C   UNL     1      42.042 123.859  21.471  1.00  0.00     0.016 C 
ATOM     22  C   UNL     1      40.891 123.029  23.115  1.00  0.00    -0.022 C 
ATOM     23  C   UNL     1      41.897 122.475  22.096  1.00  0.00     0.008 C 
ATOM     24  C   UNL     1      39.481 122.440  22.938  1.00  0.00     0.012 C 
ATOM     25  C   UNL     1      41.382 122.887  24.572  1.00  0.00     0.012 C 
ENDBRANCH  18  20
ENDBRANCH   1  18
TORSDOF 4
ENDMDL
MODEL 3
REMARK VINA RESULT:      -5.1      1.722      2.298
REMARK SMILES Cc1ccc(-c2ccc(OC(=O)[C@H]3CCC3(C)C)cc2)c2c[n-]nc12
REMARK SMILES IDX 10 1 9 2 6 3 7 4 20 5 8 6 19 7 5 8 2 9 3 10 25 11 4 12 24 13
REMARK SMILES IDX 21 14 23 15 22 16 1 17 11 18 12 19 13 20 14 21 16 22 15 23
REMARK SMILES IDX 17 24 18 25
REMARK H PARENT
ROOT
ATOM      1  O   UNL     1      43.229 131.672  21.972  1.00  0.00    -0.426 OA
ENDROOT
BRANCH   1   2
ATOM      2  C   UNL     1      43.821 131.485  20.715  1.00  0.00     0.130 A 
ATOM      3  C   UNL     1      44.919 131.092  18.148  1.00  0.00    -0.018 A 
ATOM      4  C   UNL     1      45.747 131.086  19.283  1.00  0.00     0.012 A 
ATOM      5  C   UNL     1      43.536 131.268  18.312  1.00  0.00     0.012 A 
ATOM      6  C   UNL     1      45.203 131.279  20.557  1.00  0.00     0.048 A 
ATOM      7  C   UNL     1      42.994 131.460  19.586  1.00  0.00     0.048 A 
BRANCH   3   8
ATOM      8  C   UNL     1      45.497 130.877  16.801  1.00  0.00    -0.011 A 
ATOM      9  C   UNL     1      46.605 130.444  14.203  1.00  0.00    -0.027 A 
ATOM     10  C   UNL     1      47.354 130.155  15.362  1.00  0.00     0.006 A 
ATOM     11  C   UNL     1      45.322 130.969  14.383  1.00  0.00     0.050 A 
ATOM     12  C   UNL     1      46.806 130.366  16.647  1.00  0.00     0.010 A 
ATOM     13  N   UNL     1      44.454 131.368  13.436  1.00  0.00    -0.367 NA
ATOM     14  C   UNL     1      44.791 131.173  15.627  1.00  0.00    -0.014 A 
ATOM     15  N   UNL     1      43.374 131.830  14.058  1.00  0.00    -0.581 NA
ATOM     16  C   UNL     1      43.550 131.727  15.395  1.00  0.00    -0.113 A 
ATOM     17  C   UNL     1      47.192 130.269  12.834  1.00  0.00     0.046 C 
ENDBRANCH   3   8
ENDBRANCH   1   2
BRANCH   1  18
ATOM     18  C   UNL     1      43.760 131.231  23.190  1.00  0.00     0.314 C 
ATOM     19  O   UNL     1      44.692 131.868  23.755  1.00  0.00    -0.251 OA
BRANCH  18  20
ATOM     20  C   UNL     1      43.112 130.046  23.868  1.00  0.00     0.105 C 
ATOM     21  C   UNL     1      41.708 129.689  23.366  1.00  0.00     0.016 C 
ATOM     22  C   UNL     1      43.615 128.652  23.429  1.00  0.00    -0.022 C 
ATOM     23  C   UNL     1      42.199 128.309  22.940  1.00  0.00     0.008 C 
ATOM     24  C   UNL     1      44.058 127.784  24.619  1.00  0.00     0.012 C 
ATOM     25  C   UNL     1      44.658 128.624  22.291  1.00  0.00     0.012 C 
ENDBRANCH  18  20
ENDBRANCH   1  18
TORSDOF 4
ENDMDL
MODEL 4
REMARK VINA RESULT:      -4.5      8.444     10.622
REMARK SMILES Cc1ccc(-c2ccc(OC(=O)[C@H]3CCC3(C)C)cc2)c2c[n-]nc12
REMARK SMILES IDX 10 1 9 2 6 3 7 4 20 5 8 6 19 7 5 8 2 9 3 10 25 11 4 12 24 13
REMARK SMILES IDX 21 14 23 15 22 16 1 17 11 18 12 19 13 20 14 21 16 22 15 23
REMARK SMILES IDX 17 24 18 25
REMARK H PARENT
ROOT
ATOM      1  O   UNL     1      48.057 123.783  23.215  1.00  0.00    -0.426 OA
ENDROOT
BRANCH   1   2
ATOM      2  C   UNL     1      46.741 124.234  23.387  1.00  0.00     0.130 A 
ATOM      3  C   UNL     1      44.067 125.090  23.651  1.00  0.00    -0.018 A 
ATOM      4  C   UNL     1      45.089 125.716  24.385  1.00  0.00     0.012 A 
ATOM      5  C   UNL     1      44.399 124.053  22.765  1.00  0.00     0.012 A 
ATOM      6  C   UNL     1      46.415 125.294  24.254  1.00  0.00     0.048 A 
ATOM      7  C   UNL     1      45.726 123.632  22.635  1.00  0.00     0.048 A 
BRANCH   3   8
ATOM      8  C   UNL     1      42.665 125.547  23.785  1.00  0.00    -0.011 A 
ATOM      9  C   UNL     1      39.955 126.425  24.025  1.00  0.00    -0.027 A 
ATOM     10  C   UNL     1      40.988 127.344  23.745  1.00  0.00     0.006 A 
ATOM     11  C   UNL     1      40.319 125.087  24.202  1.00  0.00     0.050 A 
ATOM     12  C   UNL     1      42.327 126.910  23.624  1.00  0.00     0.010 A 
ATOM     13  N   UNL     1      39.523 124.052  24.526  1.00  0.00    -0.367 NA
ATOM     14  C   UNL     1      41.615 124.666  24.083  1.00  0.00    -0.014 A 
ATOM     15  N   UNL     1      40.294 122.974  24.622  1.00  0.00    -0.581 NA
ATOM     16  C   UNL     1      41.576 123.317  24.361  1.00  0.00    -0.113 A 
ATOM     17  C   UNL     1      38.537 126.879  24.202  1.00  0.00     0.046 C 
ENDBRANCH   3   8
ENDBRANCH   1   2
BRANCH   1  18
ATOM     18  C   UNL     1      48.844 123.999  22.076  1.00  0.00     0.314 C 
ATOM     19  O   UNL     1      48.308 124.264  20.964  1.00  0.00    -0.251 OA
BRANCH  18  20
ATOM     20  C   UNL     1      50.345 124.022  22.237  1.00  0.00     0.105 C 
ATOM     21  C   UNL     1      51.130 124.513  21.014  1.00  0.00     0.016 C 
ATOM     22  C   UNL     1      50.923 125.190  23.068  1.00  0.00    -0.022 C 
ATOM     23  C   UNL     1      51.708 125.662  21.835  1.00  0.00     0.008 C 
ATOM     24  C   UNL     1      51.839 124.708  24.206  1.00  0.00     0.012 C 
ATOM     25  C   UNL     1      49.913 126.246  23.566  1.00  0.00     0.012 C 
ENDBRANCH  18  20
ENDBRANCH   1  18
TORSDOF 4
ENDMDL
MODEL 5
REMARK VINA RESULT:      -3.7      1.102      1.476
REMARK SMILES Cc1ccc(-c2ccc(OC(=O)[C@H]3CCC3(C)C)cc2)c2c[n-]nc12
REMARK SMILES IDX 10 1 9 2 6 3 7 4 20 5 8 6 19 7 5 8 2 9 3 10 25 11 4 12 24 13
REMARK SMILES IDX 21 14 23 15 22 16 1 17 11 18 12 19 13 20 14 21 16 22 15 23
REMARK SMILES IDX 17 24 18 25
REMARK H PARENT
ROOT
ATOM      1  O   UNL     1      42.079 132.166  21.586  1.00  0.00    -0.426 OA
ENDROOT
BRANCH   1   2
ATOM      2  C   UNL     1      42.683 131.959  20.337  1.00  0.00     0.130 A 
ATOM      3  C   UNL     1      43.983 131.577  17.864  1.00  0.00    -0.018 A 
ATOM      4  C   UNL     1      42.580 131.565  17.938  1.00  0.00     0.012 A 
ATOM      5  C   UNL     1      44.727 131.809  19.032  1.00  0.00     0.012 A 
ATOM      6  C   UNL     1      41.934 131.756  19.164  1.00  0.00     0.048 A 
ATOM      7  C   UNL     1      44.079 132.001  20.256  1.00  0.00     0.048 A 
BRANCH   3   8
ATOM      8  C   UNL     1      44.664 131.384  16.564  1.00  0.00    -0.011 A 
ATOM      9  C   UNL     1      45.989 131.027  14.057  1.00  0.00    -0.027 A 
ATOM     10  C   UNL     1      44.841 131.841  14.155  1.00  0.00     0.006 A 
ATOM     11  C   UNL     1      46.426 130.392  15.223  1.00  0.00     0.050 A 
ATOM     12  C   UNL     1      44.187 132.020  15.394  1.00  0.00     0.010 A 
ATOM     13  N   UNL     1      47.454 129.535  15.359  1.00  0.00    -0.367 NA
ATOM     14  C   UNL     1      45.794 130.566  16.423  1.00  0.00    -0.014 A 
ATOM     15  N   UNL     1      47.485 129.153  16.632  1.00  0.00    -0.581 NA
ATOM     16  C   UNL     1      46.483 129.762  17.305  1.00  0.00    -0.113 A 
ATOM     17  C   UNL     1      46.664 130.792  12.738  1.00  0.00     0.046 C 
ENDBRANCH   3   8
ENDBRANCH   1   2
BRANCH   1  18
ATOM     18  C   UNL     1      42.705 131.991  22.826  1.00  0.00     0.314 C 
ATOM     19  O   UNL     1      42.193 132.466  23.878  1.00  0.00    -0.251 OA
BRANCH  18  20
ATOM     20  C   UNL     1      43.939 131.123  22.890  1.00  0.00     0.105 C 
ATOM     21  C   UNL     1      44.768 131.252  24.173  1.00  0.00     0.016 C 
ATOM     22  C   UNL     1      43.703 129.626  23.202  1.00  0.00    -0.022 C 
ATOM     23  C   UNL     1      44.545 129.774  24.479  1.00  0.00     0.008 C 
ATOM     24  C   UNL     1      44.357 128.698  22.164  1.00  0.00     0.012 C 
ATOM     25  C   UNL     1      42.247 129.207  23.496  1.00  0.00     0.012 C 
ENDBRANCH  18  20
ENDBRANCH   1  18
TORSDOF 4
ENDMDL
MODEL 6
REMARK VINA RESULT:      -3.1      3.229      7.722
REMARK SMILES Cc1ccc(-c2ccc(OC(=O)[C@H]3CCC3(C)C)cc2)c2c[n-]nc12
REMARK SMILES IDX 10 1 9 2 6 3 7 4 20 5 8 6 19 7 5 8 2 9 3 10 25 11 4 12 24 13
REMARK SMILES IDX 21 14 23 15 22 16 1 17 11 18 12 19 13 20 14 21 16 22 15 23
REMARK SMILES IDX 17 24 18 25
REMARK H PARENT
ROOT
ATOM      1  O   UNL     1      45.089 132.368  15.076  1.00  0.00    -0.426 OA
ENDROOT
BRANCH   1   2
ATOM      2  C   UNL     1      44.667 132.140  16.394  1.00  0.00     0.130 A 
ATOM      3  C   UNL     1      43.914 131.690  19.074  1.00  0.00    -0.018 A 
ATOM      4  C   UNL     1      43.018 131.410  18.028  1.00  0.00     0.012 A 
ATOM      5  C   UNL     1      45.197 132.171  18.765  1.00  0.00     0.012 A 
ATOM      6  C   UNL     1      43.391 131.631  16.698  1.00  0.00     0.048 A 
ATOM      7  C   UNL     1      45.568 132.390  17.435  1.00  0.00     0.048 A 
BRANCH   3   8
ATOM      8  C   UNL     1      43.519 131.446  20.480  1.00  0.00    -0.011 A 
ATOM      9  C   UNL     1      42.744 130.962  23.188  1.00  0.00    -0.027 A 
ATOM     10  C   UNL     1      42.152 132.005  22.445  1.00  0.00     0.006 A 
ATOM     11  C   UNL     1      43.731 130.204  22.553  1.00  0.00     0.050 A 
ATOM     12  C   UNL     1      42.533 132.243  21.105  1.00  0.00     0.010 A 
ATOM     13  N   UNL     1      44.465 129.204  23.075  1.00  0.00    -0.367 NA
ATOM     14  C   UNL     1      44.100 130.433  21.256  1.00  0.00    -0.014 A 
ATOM     15  N   UNL     1      45.304 128.794  22.129  1.00  0.00    -0.581 NA
ATOM     16  C   UNL     1      45.107 129.526  21.009  1.00  0.00    -0.113 A 
ATOM     17  C   UNL     1      42.382 130.729  24.624  1.00  0.00     0.046 C 
ENDBRANCH   3   8
ENDBRANCH   1   2
BRANCH   1  18
ATOM     18  C   UNL     1      46.229 131.812  14.484  1.00  0.00     0.314 C 
ATOM     19  O   UNL     1      47.299 132.476  14.398  1.00  0.00    -0.251 OA
BRANCH  18  20
ATOM     20  C   UNL     1      46.182 130.363  14.059  1.00  0.00     0.105 C 
ATOM     21  C   UNL     1      47.436 129.847  13.343  1.00  0.00     0.016 C 
ATOM     22  C   UNL     1      46.399 129.318  15.178  1.00  0.00    -0.022 C 
ATOM     23  C   UNL     1      47.648 128.809  14.441  1.00  0.00     0.008 C 
ATOM     24  C   UNL     1      45.274 128.271  15.233  1.00  0.00     0.012 C 
ATOM     25  C   UNL     1      46.724 129.872  16.582  1.00  0.00     0.012 C 
ENDBRANCH  18  20
ENDBRANCH   1  18
TORSDOF 4
ENDMDL
MODEL 7
REMARK VINA RESULT:      -3.1      7.816     10.539
REMARK SMILES Cc1ccc(-c2ccc(OC(=O)[C@H]3CCC3(C)C)cc2)c2c[n-]nc12
REMARK SMILES IDX 10 1 9 2 6 3 7 4 20 5 8 6 19 7 5 8 2 9 3 10 25 11 4 12 24 13
REMARK SMILES IDX 21 14 23 15 22 16 1 17 11 18 12 19 13 20 14 21 16 22 15 23
REMARK SMILES IDX 17 24 18 25
REMARK H PARENT
ROOT
ATOM      1  O   UNL     1      49.232 125.012  23.528  1.00  0.00    -0.426 OA
ENDROOT
BRANCH   1   2
ATOM      2  C   UNL     1      47.841 124.844  23.477  1.00  0.00     0.130 A 
ATOM      3  C   UNL     1      45.047 124.518  23.275  1.00  0.00    -0.018 A 
ATOM      4  C   UNL     1      45.645 124.760  24.523  1.00  0.00     0.012 A 
ATOM      5  C   UNL     1      45.856 124.468  22.128  1.00  0.00     0.012 A 
ATOM      6  C   UNL     1      47.030 124.924  24.625  1.00  0.00     0.048 A 
ATOM      7  C   UNL     1      47.240 124.633  22.231  1.00  0.00     0.048 A 
BRANCH   3   8
ATOM      8  C   UNL     1      43.579 124.355  23.170  1.00  0.00    -0.011 A 
ATOM      9  C   UNL     1      40.745 124.035  22.986  1.00  0.00    -0.027 A 
ATOM     10  C   UNL     1      41.608 122.937  22.785  1.00  0.00     0.006 A 
ATOM     11  C   UNL     1      41.335 125.274  23.251  1.00  0.00     0.050 A 
ATOM     12  C   UNL     1      43.009 123.094  22.878  1.00  0.00     0.010 A 
ATOM     13  N   UNL     1      40.722 126.459  23.421  1.00  0.00    -0.367 NA
ATOM     14  C   UNL     1      42.691 125.425  23.342  1.00  0.00    -0.014 A 
ATOM     15  N   UNL     1      41.670 127.370  23.615  1.00  0.00    -0.581 NA
ATOM     16  C   UNL     1      42.882 126.772  23.570  1.00  0.00    -0.113 A 
ATOM     17  C   UNL     1      39.259 123.891  22.843  1.00  0.00     0.046 C 
ENDBRANCH   3   8
ENDBRANCH   1   2
BRANCH   1  18
ATOM     18  C   UNL     1      50.019 125.556  22.507  1.00  0.00     0.314 C 
ATOM     19  O   UNL     1      50.768 126.549  22.729  1.00  0.00    -0.251 OA
BRANCH  18  20
ATOM     20  C   UNL     1      50.040 124.857  21.168  1.00  0.00     0.105 C 
ATOM     21  C   UNL     1      51.046 125.411  20.152  1.00  0.00     0.016 C 
ATOM     22  C   UNL     1      50.762 123.490  21.126  1.00  0.00    -0.022 C 
ATOM     23  C   UNL     1      51.755 124.061  20.101  1.00  0.00     0.008 C 
ATOM     24  C   UNL     1      49.879 122.375  20.539  1.00  0.00     0.012 C 
ATOM     25  C   UNL     1      51.452 123.036  22.430  1.00  0.00     0.012 C 
ENDBRANCH  18  20
ENDBRANCH   1  18
TORSDOF 4
ENDMDL
MODEL 8
REMARK VINA RESULT:      -2.9      3.706      8.374
REMARK SMILES Cc1ccc(-c2ccc(OC(=O)[C@H]3CCC3(C)C)cc2)c2c[n-]nc12
REMARK SMILES IDX 10 1 9 2 6 3 7 4 20 5 8 6 19 7 5 8 2 9 3 10 25 11 4 12 24 13
REMARK SMILES IDX 21 14 23 15 22 16 1 17 11 18 12 19 13 20 14 21 16 22 15 23
REMARK SMILES IDX 17 24 18 25
REMARK H PARENT
ROOT
ATOM      1  O   UNL     1      46.484 130.006  16.448  1.00  0.00    -0.426 OA
ENDROOT
BRANCH   1   2
ATOM      2  C   UNL     1      45.626 130.472  17.455  1.00  0.00     0.130 A 
ATOM      3  C   UNL     1      43.848 131.457  19.408  1.00  0.00    -0.018 A 
ATOM      4  C   UNL     1      45.080 130.898  19.787  1.00  0.00     0.012 A 
ATOM      5  C   UNL     1      43.527 131.544  18.044  1.00  0.00     0.012 A 
ATOM      6  C   UNL     1      45.964 130.410  18.819  1.00  0.00     0.048 A 
ATOM      7  C   UNL     1      44.412 131.057  17.077  1.00  0.00     0.048 A 
BRANCH   3   8
ATOM      8  C   UNL     1      42.919 131.981  20.435  1.00  0.00    -0.011 A 
ATOM      9  C   UNL     1      41.112 132.978  22.413  1.00  0.00    -0.027 A 
ATOM     10  C   UNL     1      41.021 133.408  21.072  1.00  0.00     0.006 A 
ATOM     11  C   UNL     1      42.130 132.074  22.728  1.00  0.00     0.050 A 
ATOM     12  C   UNL     1      41.912 132.913  20.094  1.00  0.00     0.010 A 
ATOM     13  N   UNL     1      42.442 131.572  23.936  1.00  0.00    -0.367 NA
ATOM     14  C   UNL     1      42.992 131.594  21.780  1.00  0.00    -0.014 A 
ATOM     15  N   UNL     1      43.497 130.780  23.776  1.00  0.00    -0.581 NA
ATOM     16  C   UNL     1      43.858 130.775  22.473  1.00  0.00    -0.113 A 
ATOM     17  C   UNL     1      40.203 133.532  23.470  1.00  0.00     0.046 C 
ENDBRANCH   3   8
ENDBRANCH   1   2
BRANCH   1  18
ATOM     18  C   UNL     1      46.098 129.679  15.143  1.00  0.00     0.314 C 
ATOM     19  O   UNL     1      45.516 128.586  14.898  1.00  0.00    -0.251 OA
BRANCH  18  20
ATOM     20  C   UNL     1      46.288 130.713  14.059  1.00  0.00     0.105 C 
ATOM     21  C   UNL     1      46.681 132.113  14.547  1.00  0.00     0.016 C 
ATOM     22  C   UNL     1      47.611 130.629  13.262  1.00  0.00    -0.022 C 
ATOM     23  C   UNL     1      47.982 132.036  13.754  1.00  0.00     0.008 C 
ATOM     24  C   UNL     1      47.380 130.574  11.742  1.00  0.00     0.012 C 
ATOM     25  C   UNL     1      48.621 129.555  13.719  1.00  0.00     0.012 C 
ENDBRANCH  18  20
ENDBRANCH   1  18
TORSDOF 4
ENDMDL
MODEL 9
REMARK VINA RESULT:      -2.9      4.841      7.812
REMARK SMILES Cc1ccc(-c2ccc(OC(=O)[C@H]3CCC3(C)C)cc2)c2c[n-]nc12
REMARK SMILES IDX 10 1 9 2 6 3 7 4 20 5 8 6 19 7 5 8 2 9 3 10 25 11 4 12 24 13
REMARK SMILES IDX 21 14 23 15 22 16 1 17 11 18 12 19 13 20 14 21 16 22 15 23
REMARK SMILES IDX 17 24 18 25
REMARK H PARENT
ROOT
ATOM      1  O   UNL     1      45.313 124.594  24.625  1.00  0.00    -0.426 OA
ENDROOT
BRANCH   1   2
ATOM      2  C   UNL     1      44.890 125.802  24.052  1.00  0.00     0.130 A 
ATOM      3  C   UNL     1      44.107 128.279  22.956  1.00  0.00    -0.018 A 
ATOM      4  C   UNL     1      43.286 127.148  22.813  1.00  0.00     0.012 A 
ATOM      5  C   UNL     1      45.308 128.165  23.675  1.00  0.00     0.012 A 
ATOM      6  C   UNL     1      43.672 125.919  23.358  1.00  0.00     0.048 A 
ATOM      7  C   UNL     1      45.692 126.936  24.220  1.00  0.00     0.048 A 
BRANCH   3   8
ATOM      8  C   UNL     1      43.691 129.581  22.386  1.00  0.00    -0.011 A 
ATOM      9  C   UNL     1      42.898 132.103  21.301  1.00  0.00    -0.027 A 
ATOM     10  C   UNL     1      42.152 131.497  22.334  1.00  0.00     0.006 A 
ATOM     11  C   UNL     1      44.012 131.408  20.823  1.00  0.00     0.050 A 
ATOM     12  C   UNL     1      42.545 130.252  22.872  1.00  0.00     0.010 A 
ATOM     13  N   UNL     1      44.833 131.759  19.817  1.00  0.00    -0.367 NA
ATOM     14  C   UNL     1      44.394 130.203  21.345  1.00  0.00    -0.014 A 
ATOM     15  N   UNL     1      45.734 130.791  19.685  1.00  0.00    -0.581 NA
ATOM     16  C   UNL     1      45.490 129.826  20.601  1.00  0.00    -0.113 A 
ATOM     17  C   UNL     1      42.464 133.401  20.688  1.00  0.00     0.046 C 
ENDBRANCH   3   8
ENDBRANCH   1   2
BRANCH   1  18
ATOM     18  C   UNL     1      46.228 123.703  24.051  1.00  0.00     0.314 C 
ATOM     19  O   UNL     1      45.858 122.878  23.170  1.00  0.00    -0.251 OA
BRANCH  18  20
ATOM     20  C   UNL     1      47.686 123.834  24.423  1.00  0.00     0.105 C 
ATOM     21  C   UNL     1      48.516 122.551  24.293  1.00  0.00     0.016 C 
ATOM     22  C   UNL     1      48.597 124.521  23.380  1.00  0.00    -0.022 C 
ATOM     23  C   UNL     1      49.421 123.229  23.269  1.00  0.00     0.008 C 
ATOM     24  C   UNL     1      49.401 125.689  23.976  1.00  0.00     0.012 C 
ATOM     25  C   UNL     1      47.934 124.917  22.043  1.00  0.00     0.012 C 
ENDBRANCH  18  20
ENDBRANCH   1  18
TORSDOF 4
ENDMDL


