MODEL 1
REMARK VINA RESULT:      -5.1      0.000      0.000
REMARK SMILES C=C[C@@H]1C[NH2+][C@@H](c2ccc3ncnn3c2)N(C(=O)c2cccc(C)c2)C1
REMARK SMILES IDX 3 1 4 2 5 3 6 4 16 5 26 6 2 9 1 10 17 11 18 12 19 13 20 14
REMARK SMILES IDX 25 15 21 16 23 17 22 18 24 19 7 20 8 21 15 22 9 23 14 24
REMARK SMILES IDX 10 25 13 26 11 27 12 28
REMARK H PARENT 5 7 5 8
ROOT
ATOM      1  C   UNL     1      42.224 132.832  20.062  1.00  0.00     0.086 C 
ATOM      2  C   UNL     1      41.586 132.253  18.774  1.00  0.00     0.272 C 
ATOM      3  N   UNL     1      42.574 132.115  17.698  1.00  0.00    -0.322 N 
ATOM      4  C   UNL     1      43.604 131.126  18.073  1.00  0.00     0.320 C 
ATOM      5  N   UNL     1      44.180 131.428  19.404  1.00  0.00    -0.284 N 
ATOM      6  C   UNL     1      43.760 132.650  20.106  1.00  0.00     0.139 C 
ATOM      7  H   UNL     1      43.002 133.049  17.495  1.00  0.00     0.348 HD
ATOM      8  H   UNL     1      42.083 131.784  16.834  1.00  0.00     0.348 HD
ENDROOT
BRANCH   1   9
ATOM      9  C   UNL     1      41.557 132.280  21.303  1.00  0.00    -0.024 C 
ATOM     10  C   UNL     1      42.128 132.329  22.512  1.00  0.00     0.004 C 
ENDBRANCH   1   9
BRANCH   5  11
ATOM     11  C   UNL     1      45.310 130.678  19.910  1.00  0.00     0.258 C 
ATOM     12  O   UNL     1      46.427 130.761  19.329  1.00  0.00    -0.269 OA
BRANCH  11  13
ATOM     13  C   UNL     1      45.183 129.766  21.066  1.00  0.00     0.040 A 
ATOM     14  C   UNL     1      44.503 130.192  22.217  1.00  0.00     0.014 A 
ATOM     15  C   UNL     1      45.727 128.473  21.026  1.00  0.00     0.017 A 
ATOM     16  C   UNL     1      44.394 129.346  23.323  1.00  0.00     0.001 A 
ATOM     17  C   UNL     1      45.637 127.629  22.142  1.00  0.00    -0.050 A 
ATOM     18  C   UNL     1      44.956 128.068  23.288  1.00  0.00     0.003 A 
ATOM     19  C   UNL     1      46.202 126.240  22.084  1.00  0.00     0.044 C 
ENDBRANCH  11  13
ENDBRANCH   5  11
BRANCH   4  20
ATOM     20  C   UNL     1      44.689 131.077  17.013  1.00  0.00     0.050 A 
ATOM     21  C   UNL     1      45.262 132.275  16.518  1.00  0.00     0.017 A 
ATOM     22  C   UNL     1      45.136 129.846  16.490  1.00  0.00     0.127 A 
ATOM     23  C   UNL     1      46.243 132.238  15.514  1.00  0.00     0.050 A 
ATOM     24  N   UNL     1      46.088 129.868  15.525  1.00  0.00    -0.221 N 
ATOM     25  C   UNL     1      46.629 130.988  15.042  1.00  0.00     0.155 A 
ATOM     26  N   UNL     1      46.624 128.835  14.909  1.00  0.00    -0.155 NA
ATOM     27  N   UNL     1      47.545 130.735  14.090  1.00  0.00    -0.215 NA
ATOM     28  C   UNL     1      47.509 129.377  14.038  1.00  0.00     0.247 A 
ENDBRANCH   4  20
TORSDOF 4
ENDMDL
MODEL 2
REMARK VINA RESULT:      -4.3      0.776      1.877
REMARK SMILES C=C[C@@H]1C[NH2+][C@@H](c2ccc3ncnn3c2)N(C(=O)c2cccc(C)c2)C1
REMARK SMILES IDX 3 1 4 2 5 3 6 4 16 5 26 6 2 9 1 10 17 11 18 12 19 13 20 14
REMARK SMILES IDX 25 15 21 16 23 17 22 18 24 19 7 20 8 21 15 22 9 23 14 24
REMARK SMILES IDX 10 25 13 26 11 27 12 28
REMARK H PARENT 5 7 5 8
ROOT
ATOM      1  C   UNL     1      42.537 132.996  19.865  1.00  0.00     0.086 C 
ATOM      2  C   UNL     1      41.753 132.322  18.711  1.00  0.00     0.272 C 
ATOM      3  N   UNL     1      42.638 131.957  17.599  1.00  0.00    -0.322 N 
ATOM      4  C   UNL     1      43.607 130.931  18.032  1.00  0.00     0.320 C 
ATOM      5  N   UNL     1      44.310 131.343  19.269  1.00  0.00    -0.284 N 
ATOM      6  C   UNL     1      44.051 132.678  19.829  1.00  0.00     0.139 C 
ATOM      7  H   UNL     1      43.126 132.814  17.245  1.00  0.00     0.348 HD
ATOM      8  H   UNL     1      42.054 131.568  16.821  1.00  0.00     0.348 HD
ENDROOT
BRANCH   1   9
ATOM      9  C   UNL     1      41.926 132.671  21.210  1.00  0.00    -0.024 C 
ATOM     10  C   UNL     1      42.656 132.268  22.257  1.00  0.00     0.004 C 
ENDBRANCH   1   9
BRANCH   5  11
ATOM     11  C   UNL     1      45.409 130.561  19.793  1.00  0.00     0.258 C 
ATOM     12  O   UNL     1      46.529 130.587  19.213  1.00  0.00    -0.269 OA
BRANCH  11  13
ATOM     13  C   UNL     1      45.245 129.680  20.968  1.00  0.00     0.040 A 
ATOM     14  C   UNL     1      45.704 128.355  20.915  1.00  0.00     0.014 A 
ATOM     15  C   UNL     1      44.643 130.153  22.144  1.00  0.00     0.017 A 
ATOM     16  C   UNL     1      45.536 127.507  22.012  1.00  0.00     0.001 A 
ATOM     17  C   UNL     1      44.455 129.299  23.241  1.00  0.00    -0.050 A 
ATOM     18  C   UNL     1      44.917 127.976  23.173  1.00  0.00     0.003 A 
ATOM     19  C   UNL     1      43.831 129.819  24.503  1.00  0.00     0.044 C 
ENDBRANCH  11  13
ENDBRANCH   5  11
BRANCH   4  20
ATOM     20  C   UNL     1      44.597 130.647  16.917  1.00  0.00     0.050 A 
ATOM     21  C   UNL     1      44.915 129.312  16.564  1.00  0.00     0.017 A 
ATOM     22  C   UNL     1      45.229 131.701  16.224  1.00  0.00     0.127 A 
ATOM     23  C   UNL     1      45.854 129.043  15.555  1.00  0.00     0.050 A 
ATOM     24  N   UNL     1      46.125 131.384  15.257  1.00  0.00    -0.221 N 
ATOM     25  C   UNL     1      46.442 130.132  14.920  1.00  0.00     0.155 A 
ATOM     26  N   UNL     1      46.822 132.216  14.511  1.00  0.00    -0.155 NA
ATOM     27  N   UNL     1      47.359 130.092  13.937  1.00  0.00    -0.215 NA
ATOM     28  C   UNL     1      47.568 131.417  13.712  1.00  0.00     0.247 A 
ENDBRANCH   4  20
TORSDOF 4
ENDMDL
MODEL 3
REMARK VINA RESULT:      -4.3      0.623      1.497
REMARK SMILES C=C[C@@H]1C[NH2+][C@@H](c2ccc3ncnn3c2)N(C(=O)c2cccc(C)c2)C1
REMARK SMILES IDX 3 1 4 2 5 3 6 4 16 5 26 6 2 9 1 10 17 11 18 12 19 13 20 14
REMARK SMILES IDX 25 15 21 16 23 17 22 18 24 19 7 20 8 21 15 22 9 23 14 24
REMARK SMILES IDX 10 25 13 26 11 27 12 28
REMARK H PARENT 5 7 5 8
ROOT
ATOM      1  C   UNL     1      42.212 132.994  19.549  1.00  0.00     0.086 C 
ATOM      2  C   UNL     1      41.618 132.322  18.285  1.00  0.00     0.272 C 
ATOM      3  N   UNL     1      42.641 132.117  17.253  1.00  0.00    -0.322 N 
ATOM      4  C   UNL     1      43.663 131.164  17.729  1.00  0.00     0.320 C 
ATOM      5  N   UNL     1      44.195 131.562  19.053  1.00  0.00    -0.284 N 
ATOM      6  C   UNL     1      43.746 132.827  19.654  1.00  0.00     0.139 C 
ATOM      7  H   UNL     1      43.071 133.038  16.999  1.00  0.00     0.348 HD
ATOM      8  H   UNL     1      42.180 131.724  16.399  1.00  0.00     0.348 HD
ENDROOT
BRANCH   1   9
ATOM      9  C   UNL     1      41.508 132.526  20.804  1.00  0.00    -0.024 C 
ATOM     10  C   UNL     1      40.902 133.367  21.649  1.00  0.00     0.004 C 
ENDBRANCH   1   9
BRANCH   5  11
ATOM     11  C   UNL     1      45.312 130.857  19.646  1.00  0.00     0.258 C 
ATOM     12  O   UNL     1      46.446 130.906  19.096  1.00  0.00    -0.269 OA
BRANCH  11  13
ATOM     13  C   UNL     1      45.152 130.029  20.859  1.00  0.00     0.040 A 
ATOM     14  C   UNL     1      45.642 128.714  20.875  1.00  0.00     0.014 A 
ATOM     15  C   UNL     1      44.523 130.543  22.004  1.00  0.00     0.017 A 
ATOM     16  C   UNL     1      45.479 127.915  22.009  1.00  0.00     0.001 A 
ATOM     17  C   UNL     1      44.340 129.737  23.137  1.00  0.00    -0.050 A 
ATOM     18  C   UNL     1      44.833 128.423  23.138  1.00  0.00     0.003 A 
ATOM     19  C   UNL     1      43.686 130.300  24.365  1.00  0.00     0.044 C 
ENDBRANCH  11  13
ENDBRANCH   5  11
BRANCH   4  20
ATOM     20  C   UNL     1      44.782 131.049  16.710  1.00  0.00     0.050 A 
ATOM     21  C   UNL     1      45.382 132.214  16.169  1.00  0.00     0.017 A 
ATOM     22  C   UNL     1      45.236 129.788  16.271  1.00  0.00     0.127 A 
ATOM     23  C   UNL     1      46.395 132.115  15.202  1.00  0.00     0.050 A 
ATOM     24  N   UNL     1      46.219 129.750  15.339  1.00  0.00    -0.221 N 
ATOM     25  C   UNL     1      46.786 130.839  14.813  1.00  0.00     0.155 A 
ATOM     26  N   UNL     1      46.766 128.681  14.798  1.00  0.00    -0.155 NA
ATOM     27  N   UNL     1      47.730 130.527  13.907  1.00  0.00    -0.215 NA
ATOM     28  C   UNL     1      47.684 129.168  13.929  1.00  0.00     0.247 A 
ENDBRANCH   4  20
TORSDOF 4
ENDMDL
MODEL 4
REMARK VINA RESULT:      -4.1      0.776      1.344
REMARK SMILES C=C[C@@H]1C[NH2+][C@@H](c2ccc3ncnn3c2)N(C(=O)c2cccc(C)c2)C1
REMARK SMILES IDX 3 1 4 2 5 3 6 4 16 5 26 6 2 9 1 10 17 11 18 12 19 13 20 14
REMARK SMILES IDX 25 15 21 16 23 17 22 18 24 19 7 20 8 21 15 22 9 23 14 24
REMARK SMILES IDX 10 25 13 26 11 27 12 28
REMARK H PARENT 5 7 5 8
ROOT
ATOM      1  C   UNL     1      42.561 133.072  19.759  1.00  0.00     0.086 C 
ATOM      2  C   UNL     1      41.791 132.380  18.606  1.00  0.00     0.272 C 
ATOM      3  N   UNL     1      42.693 131.981  17.519  1.00  0.00    -0.322 N 
ATOM      4  C   UNL     1      43.643 130.956  17.993  1.00  0.00     0.320 C 
ATOM      5  N   UNL     1      44.327 131.388  19.234  1.00  0.00    -0.284 N 
ATOM      6  C   UNL     1      44.072 132.738  19.759  1.00  0.00     0.139 C 
ATOM      7  H   UNL     1      43.196 132.825  17.156  1.00  0.00     0.348 HD
ATOM      8  H   UNL     1      42.119 131.580  16.740  1.00  0.00     0.348 HD
ENDROOT
BRANCH   1   9
ATOM      9  C   UNL     1      41.922 132.783  21.100  1.00  0.00    -0.024 C 
ATOM     10  C   UNL     1      40.868 133.466  21.560  1.00  0.00     0.004 C 
ENDBRANCH   1   9
BRANCH   5  11
ATOM     11  C   UNL     1      45.409 130.607  19.795  1.00  0.00     0.258 C 
ATOM     12  O   UNL     1      46.542 130.618  19.241  1.00  0.00    -0.269 OA
BRANCH  11  13
ATOM     13  C   UNL     1      45.211 129.745  20.979  1.00  0.00     0.040 A 
ATOM     14  C   UNL     1      44.468 130.220  22.071  1.00  0.00     0.014 A 
ATOM     15  C   UNL     1      45.750 128.450  21.024  1.00  0.00     0.017 A 
ATOM     16  C   UNL     1      44.292 129.422  23.203  1.00  0.00     0.001 A 
ATOM     17  C   UNL     1      45.592 127.653  22.167  1.00  0.00    -0.050 A 
ATOM     18  C   UNL     1      44.849 128.141  23.253  1.00  0.00     0.003 A 
ATOM     19  C   UNL     1      46.151 126.261  22.200  1.00  0.00     0.044 C 
ENDBRANCH  11  13
ENDBRANCH   5  11
BRANCH   4  20
ATOM     20  C   UNL     1      44.650 130.637  16.904  1.00  0.00     0.050 A 
ATOM     21  C   UNL     1      45.034 129.296  16.652  1.00  0.00     0.017 A 
ATOM     22  C   UNL     1      45.234 131.664  16.134  1.00  0.00     0.127 A 
ATOM     23  C   UNL     1      45.989 128.998  15.667  1.00  0.00     0.050 A 
ATOM     24  N   UNL     1      46.148 131.320  15.194  1.00  0.00    -0.221 N 
ATOM     25  C   UNL     1      46.527 130.062  14.952  1.00  0.00     0.155 A 
ATOM     26  N   UNL     1      46.807 132.126  14.387  1.00  0.00    -0.155 NA
ATOM     27  N   UNL     1      47.449 129.993  13.975  1.00  0.00    -0.215 NA
ATOM     28  C   UNL     1      47.595 131.306  13.651  1.00  0.00     0.247 A 
ENDBRANCH   4  20
TORSDOF 4
ENDMDL
MODEL 5
REMARK VINA RESULT:      -2.6      1.077      1.930
REMARK SMILES C=C[C@@H]1C[NH2+][C@@H](c2ccc3ncnn3c2)N(C(=O)c2cccc(C)c2)C1
REMARK SMILES IDX 3 1 4 2 5 3 6 4 16 5 26 6 2 9 1 10 17 11 18 12 19 13 20 14
REMARK SMILES IDX 25 15 21 16 23 17 22 18 24 19 7 20 8 21 15 22 9 23 14 24
REMARK SMILES IDX 10 25 13 26 11 27 12 28
REMARK H PARENT 5 7 5 8
ROOT
ATOM      1  C   UNL     1      41.954 133.276  20.103  1.00  0.00     0.086 C 
ATOM      2  C   UNL     1      41.343 132.420  18.965  1.00  0.00     0.272 C 
ATOM      3  N   UNL     1      42.355 132.047  17.969  1.00  0.00    -0.322 N 
ATOM      4  C   UNL     1      43.374 131.172  18.580  1.00  0.00     0.320 C 
ATOM      5  N   UNL     1      43.922 131.767  19.821  1.00  0.00    -0.284 N 
ATOM      6  C   UNL     1      43.489 133.114  20.220  1.00  0.00     0.139 C 
ATOM      7  H   UNL     1      42.788 132.914  17.571  1.00  0.00     0.348 HD
ATOM      8  H   UNL     1      41.882 131.530  17.191  1.00  0.00     0.348 HD
ENDROOT
BRANCH   1   9
ATOM      9  C   UNL     1      41.259 133.015  21.422  1.00  0.00    -0.024 C 
ATOM     10  C   UNL     1      40.255 133.775  21.872  1.00  0.00     0.004 C 
ENDBRANCH   1   9
BRANCH   5  11
ATOM     11  C   UNL     1      45.040 131.154  20.506  1.00  0.00     0.258 C 
ATOM     12  O   UNL     1      46.216 131.525  20.243  1.00  0.00    -0.269 OA
BRANCH  11  13
ATOM     13  C   UNL     1      44.848 130.056  21.477  1.00  0.00     0.040 A 
ATOM     14  C   UNL     1      45.561 128.858  21.324  1.00  0.00     0.014 A 
ATOM     15  C   UNL     1      43.967 130.199  22.560  1.00  0.00     0.017 A 
ATOM     16  C   UNL     1      45.373 127.806  22.223  1.00  0.00     0.001 A 
ATOM     17  C   UNL     1      43.761 129.138  23.454  1.00  0.00    -0.050 A 
ATOM     18  C   UNL     1      44.479 127.944  23.287  1.00  0.00     0.003 A 
ATOM     19  C   UNL     1      42.834 129.306  24.622  1.00  0.00     0.044 C 
ENDBRANCH  11  13
ENDBRANCH   5  11
BRANCH   4  20
ATOM     20  C   UNL     1      44.482 130.890  17.581  1.00  0.00     0.050 A 
ATOM     21  C   UNL     1      45.590 130.085  17.948  1.00  0.00     0.017 A 
ATOM     22  C   UNL     1      44.440 131.432  16.280  1.00  0.00     0.127 A 
ATOM     23  C   UNL     1      46.634 129.847  17.039  1.00  0.00     0.050 A 
ATOM     24  N   UNL     1      45.473 131.167  15.442  1.00  0.00    -0.221 N 
ATOM     25  C   UNL     1      46.527 130.420  15.777  1.00  0.00     0.155 A 
ATOM     26  N   UNL     1      45.623 131.586  14.202  1.00  0.00    -0.155 NA
ATOM     27  N   UNL     1      47.411 130.316  14.768  1.00  0.00    -0.215 NA
ATOM     28  C   UNL     1      46.806 131.061  13.805  1.00  0.00     0.247 A 
ENDBRANCH   4  20
TORSDOF 4
ENDMDL
MODEL 6
REMARK VINA RESULT:      -2.4      1.708      2.650
REMARK SMILES C=C[C@@H]1C[NH2+][C@@H](c2ccc3ncnn3c2)N(C(=O)c2cccc(C)c2)C1
REMARK SMILES IDX 3 1 4 2 5 3 6 4 16 5 26 6 2 9 1 10 17 11 18 12 19 13 20 14
REMARK SMILES IDX 25 15 21 16 23 17 22 18 24 19 7 20 8 21 15 22 9 23 14 24
REMARK SMILES IDX 10 25 13 26 11 27 12 28
REMARK H PARENT 5 7 5 8
ROOT
ATOM      1  C   UNL     1      43.434 132.268  23.224  1.00  0.00     0.086 C 
ATOM      2  C   UNL     1      42.285 132.432  22.198  1.00  0.00     0.272 C 
ATOM      3  N   UNL     1      42.792 132.461  20.821  1.00  0.00    -0.322 N 
ATOM      4  C   UNL     1      43.409 131.165  20.476  1.00  0.00     0.320 C 
ATOM      5  N   UNL     1      44.407 130.757  21.491  1.00  0.00    -0.284 N 
ATOM      6  C   UNL     1      44.719 131.675  22.598  1.00  0.00     0.139 C 
ATOM      7  H   UNL     1      43.477 133.247  20.717  1.00  0.00     0.348 HD
ATOM      8  H   UNL     1      41.988 132.639  20.173  1.00  0.00     0.348 HD
ENDROOT
BRANCH   1   9
ATOM      9  C   UNL     1      42.984 131.481  24.435  1.00  0.00    -0.024 C 
ATOM     10  C   UNL     1      41.713 131.109  24.623  1.00  0.00     0.004 C 
ENDBRANCH   1   9
BRANCH   5  11
ATOM     11  C   UNL     1      45.244 129.594  21.284  1.00  0.00     0.258 C 
ATOM     12  O   UNL     1      46.148 129.622  20.404  1.00  0.00    -0.269 OA
BRANCH  11  13
ATOM     13  C   UNL     1      45.035 128.342  22.041  1.00  0.00     0.040 A 
ATOM     14  C   UNL     1      44.073 128.297  23.061  1.00  0.00     0.014 A 
ATOM     15  C   UNL     1      45.781 127.190  21.746  1.00  0.00     0.017 A 
ATOM     16  C   UNL     1      43.881 127.126  23.797  1.00  0.00     0.001 A 
ATOM     17  C   UNL     1      45.605 126.018  22.496  1.00  0.00    -0.050 A 
ATOM     18  C   UNL     1      44.641 125.988  23.516  1.00  0.00     0.003 A 
ATOM     19  C   UNL     1      46.390 124.784  22.161  1.00  0.00     0.044 C 
ENDBRANCH  11  13
ENDBRANCH   5  11
BRANCH   4  20
ATOM     20  C   UNL     1      44.040 131.240  19.098  1.00  0.00     0.050 A 
ATOM     21  C   UNL     1      45.446 131.139  18.946  1.00  0.00     0.017 A 
ATOM     22  C   UNL     1      43.246 131.426  17.947  1.00  0.00     0.127 A 
ATOM     23  C   UNL     1      46.038 131.240  17.677  1.00  0.00     0.050 A 
ATOM     24  N   UNL     1      43.870 131.513  16.746  1.00  0.00    -0.221 N 
ATOM     25  C   UNL     1      45.193 131.430  16.589  1.00  0.00     0.155 A 
ATOM     26  N   UNL     1      43.311 131.695  15.567  1.00  0.00    -0.155 NA
ATOM     27  N   UNL     1      45.555 131.552  15.299  1.00  0.00    -0.215 NA
ATOM     28  C   UNL     1      44.348 131.717  14.696  1.00  0.00     0.247 A 
ENDBRANCH   4  20
TORSDOF 4
ENDMDL
MODEL 7
REMARK VINA RESULT:      -2.1      0.975      1.660
REMARK SMILES C=C[C@@H]1C[NH2+][C@@H](c2ccc3ncnn3c2)N(C(=O)c2cccc(C)c2)C1
REMARK SMILES IDX 3 1 4 2 5 3 6 4 16 5 26 6 2 9 1 10 17 11 18 12 19 13 20 14
REMARK SMILES IDX 25 15 21 16 23 17 22 18 24 19 7 20 8 21 15 22 9 23 14 24
REMARK SMILES IDX 10 25 13 26 11 27 12 28
REMARK H PARENT 5 7 5 8
ROOT
ATOM      1  C   UNL     1      43.061 132.498  21.530  1.00  0.00     0.086 C 
ATOM      2  C   UNL     1      42.163 132.406  20.270  1.00  0.00     0.272 C 
ATOM      3  N   UNL     1      42.963 132.349  19.042  1.00  0.00    -0.322 N 
ATOM      4  C   UNL     1      43.766 131.111  19.011  1.00  0.00     0.320 C 
ATOM      5  N   UNL     1      44.543 130.942  20.260  1.00  0.00    -0.284 N 
ATOM      6  C   UNL     1      44.506 132.005  21.276  1.00  0.00     0.139 C 
ATOM      7  H   UNL     1      43.574 133.198  18.983  1.00  0.00     0.348 HD
ATOM      8  H   UNL     1      42.314 132.355  18.220  1.00  0.00     0.348 HD
ENDROOT
BRANCH   1   9
ATOM      9  C   UNL     1      42.427 131.796  22.711  1.00  0.00    -0.024 C 
ATOM     10  C   UNL     1      42.035 132.446  23.812  1.00  0.00     0.004 C 
ENDBRANCH   1   9
BRANCH   5  11
ATOM     11  C   UNL     1      45.514 129.876  20.391  1.00  0.00     0.258 C 
ATOM     12  O   UNL     1      46.494 129.820  19.598  1.00  0.00    -0.269 OA
BRANCH  11  13
ATOM     13  C   UNL     1      45.364 128.809  21.402  1.00  0.00     0.040 A 
ATOM     14  C   UNL     1      46.089 127.615  21.268  1.00  0.00     0.014 A 
ATOM     15  C   UNL     1      44.510 128.976  22.504  1.00  0.00     0.017 A 
ATOM     16  C   UNL     1      45.940 126.592  22.206  1.00  0.00     0.001 A 
ATOM     17  C   UNL     1      44.343 127.942  23.437  1.00  0.00    -0.050 A 
ATOM     18  C   UNL     1      45.073 126.753  23.289  1.00  0.00     0.003 A 
ATOM     19  C   UNL     1      43.445 128.136  24.624  1.00  0.00     0.044 C 
ENDBRANCH  11  13
ENDBRANCH   5  11
BRANCH   4  20
ATOM     20  C   UNL     1      44.682 131.114  17.801  1.00  0.00     0.050 A 
ATOM     21  C   UNL     1      45.075 132.338  17.203  1.00  0.00     0.017 A 
ATOM     22  C   UNL     1      45.146 129.907  17.240  1.00  0.00     0.127 A 
ATOM     23  C   UNL     1      45.897 132.347  16.064  1.00  0.00     0.050 A 
ATOM     24  N   UNL     1      45.939 129.973  16.143  1.00  0.00    -0.221 N 
ATOM     25  C   UNL     1      46.310 131.118  15.563  1.00  0.00     0.155 A 
ATOM     26  N   UNL     1      46.461 128.967  15.472  1.00  0.00    -0.155 NA
ATOM     27  N   UNL     1      47.092 130.908  14.488  1.00  0.00    -0.215 NA
ATOM     28  C   UNL     1      47.160 129.550  14.468  1.00  0.00     0.247 A 
ENDBRANCH   4  20
TORSDOF 4
ENDMDL
MODEL 8
REMARK VINA RESULT:      -2.1      3.918      6.633
REMARK SMILES C=C[C@@H]1C[NH2+][C@@H](c2ccc3ncnn3c2)N(C(=O)c2cccc(C)c2)C1
REMARK SMILES IDX 3 1 4 2 5 3 6 4 16 5 26 6 2 9 1 10 17 11 18 12 19 13 20 14
REMARK SMILES IDX 25 15 21 16 23 17 22 18 24 19 7 20 8 21 15 22 9 23 14 24
REMARK SMILES IDX 10 25 13 26 11 27 12 28
REMARK H PARENT 5 7 5 8
ROOT
ATOM      1  C   UNL     1      43.730 130.026  23.957  1.00  0.00     0.086 C 
ATOM      2  C   UNL     1      43.557 131.417  24.618  1.00  0.00     0.272 C 
ATOM      3  N   UNL     1      44.761 132.241  24.461  1.00  0.00    -0.322 N 
ATOM      4  C   UNL     1      44.994 132.540  23.034  1.00  0.00     0.320 C 
ATOM      5  N   UNL     1      44.982 131.304  22.217  1.00  0.00    -0.284 N 
ATOM      6  C   UNL     1      44.849 130.003  22.888  1.00  0.00     0.139 C 
ATOM      7  H   UNL     1      45.581 131.745  24.883  1.00  0.00     0.348 HD
ATOM      8  H   UNL     1      44.619 133.140  24.979  1.00  0.00     0.348 HD
ENDROOT
BRANCH   1   9
ATOM      9  C   UNL     1      42.418 129.510  23.407  1.00  0.00    -0.024 C 
ATOM     10  C   UNL     1      41.430 129.067  24.192  1.00  0.00     0.004 C 
ENDBRANCH   1   9
BRANCH   5  11
ATOM     11  C   UNL     1      45.337 131.340  20.814  1.00  0.00     0.258 C 
ATOM     12  O   UNL     1      46.542 131.198  20.469  1.00  0.00    -0.269 OA
BRANCH  11  13
ATOM     13  C   UNL     1      44.329 131.594  19.764  1.00  0.00     0.040 A 
ATOM     14  C   UNL     1      43.036 132.004  20.124  1.00  0.00     0.014 A 
ATOM     15  C   UNL     1      44.649 131.439  18.406  1.00  0.00     0.017 A 
ATOM     16  C   UNL     1      42.069 132.228  19.142  1.00  0.00     0.001 A 
ATOM     17  C   UNL     1      43.674 131.644  17.418  1.00  0.00    -0.050 A 
ATOM     18  C   UNL     1      42.385 132.051  17.793  1.00  0.00     0.003 A 
ATOM     19  C   UNL     1      44.030 131.498  15.967  1.00  0.00     0.044 C 
ENDBRANCH  11  13
ENDBRANCH   5  11
BRANCH   4  20
ATOM     20  C   UNL     1      46.305 133.286  22.866  1.00  0.00     0.050 A 
ATOM     21  C   UNL     1      46.671 133.817  21.604  1.00  0.00     0.017 A 
ATOM     22  C   UNL     1      47.187 133.454  23.953  1.00  0.00     0.127 A 
ATOM     23  C   UNL     1      47.897 134.481  21.435  1.00  0.00     0.050 A 
ATOM     24  N   UNL     1      48.356 134.105  23.735  1.00  0.00    -0.221 N 
ATOM     25  C   UNL     1      48.719 134.602  22.550  1.00  0.00     0.155 A 
ATOM     26  N   UNL     1      49.309 134.352  24.611  1.00  0.00    -0.155 NA
ATOM     27  N   UNL     1      49.925 135.196  22.601  1.00  0.00    -0.215 NA
ATOM     28  C   UNL     1      50.257 135.015  23.907  1.00  0.00     0.247 A 
ENDBRANCH   4  20
TORSDOF 4
ENDMDL


