MODEL 1
REMARK VINA RESULT:     -10.1      0.000      0.000
REMARK SMILES C#Cc1cncc([NH2+]c2cc(C)cc(-n3nc4ccc(F)cc4n3)c2[O-])c1
REMARK SMILES IDX 8 1 7 4 3 5 4 6 27 7 5 8 6 9 2 10 1 11 9 12 10 13 25 14
REMARK SMILES IDX 11 15 14 16 13 17 26 18 12 19 15 20 16 21 24 22 17 23 23 24
REMARK SMILES IDX 18 25 22 26 19 27 20 28 21 29
REMARK H PARENT 8 2 8 3
ROOT
ATOM      1  N   UNL     1      44.753 130.490  22.909  1.00  0.00    -0.281 N 
ATOM      2  H   UNL     1      44.549 131.138  23.706  1.00  0.00     0.358 HD
ATOM      3  H   UNL     1      45.793 130.374  22.886  1.00  0.00     0.358 HD
ENDROOT
BRANCH   1   4
ATOM      4  C   UNL     1      44.109 129.221  23.140  1.00  0.00     0.154 A 
ATOM      5  C   UNL     1      44.146 126.792  23.118  1.00  0.00     0.048 A 
ATOM      6  C   UNL     1      42.812 126.786  23.538  1.00  0.00     0.128 A 
ATOM      7  C   UNL     1      44.795 128.014  22.917  1.00  0.00     0.088 A 
ATOM      8  N   UNL     1      42.160 127.961  23.746  1.00  0.00    -0.257 NA
ATOM      9  C   UNL     1      42.769 129.162  23.558  1.00  0.00     0.179 A 
BRANCH   5  10
ATOM     10  C   UNL     1      44.843 125.552  22.892  1.00  0.00    -0.069 C 
ATOM     11  C   UNL     1      45.425 124.514  22.703  1.00  0.00     0.010 C 
ENDBRANCH   5  10
ENDBRANCH   1   4
BRANCH   1  12
ATOM     12  C   UNL     1      44.278 131.063  21.671  1.00  0.00     0.129 A 
ATOM     13  C   UNL     1      43.099 131.826  21.665  1.00  0.00     0.071 A 
ATOM     14  C   UNL     1      44.957 130.831  20.455  1.00  0.00    -0.017 A 
ATOM     15  C   UNL     1      42.607 132.373  20.476  1.00  0.00    -0.043 A 
ATOM     16  C   UNL     1      44.455 131.358  19.243  1.00  0.00     0.084 A 
ATOM     17  C   UNL     1      43.276 132.124  19.271  1.00  0.00     0.033 A 
ATOM     18  O   UNL     1      46.128 130.079  20.463  1.00  0.00    -0.867 OA
ATOM     19  C   UNL     1      41.326 133.156  20.480  1.00  0.00     0.044 C 
BRANCH  16  20
ATOM     20  N   UNL     1      45.121 131.125  17.982  1.00  0.00    -0.151 N 
ATOM     21  N   UNL     1      45.862 130.044  17.735  1.00  0.00    -0.148 NA
ATOM     22  N   UNL     1      45.074 131.960  16.943  1.00  0.00    -0.148 NA
ATOM     23  C   UNL     1      46.304 130.203  16.479  1.00  0.00     0.113 A 
ATOM     24  C   UNL     1      45.820 131.376  15.994  1.00  0.00     0.116 A 
ATOM     25  C   UNL     1      47.118 129.365  15.723  1.00  0.00     0.035 A 
ATOM     26  C   UNL     1      46.106 131.823  14.707  1.00  0.00     0.071 A 
ATOM     27  C   UNL     1      47.432 129.780  14.414  1.00  0.00     0.041 A 
ATOM     28  C   UNL     1      46.929 131.004  13.907  1.00  0.00     0.125 A 
ATOM     29  F   UNL     1      47.240 131.390  12.645  1.00  0.00    -0.207 F 
ENDBRANCH  16  20
ENDBRANCH   1  12
TORSDOF 4
ENDMDL
MODEL 2
REMARK VINA RESULT:     -10.0      1.112      1.648
REMARK SMILES C#Cc1cncc([NH2+]c2cc(C)cc(-n3nc4ccc(F)cc4n3)c2[O-])c1
REMARK SMILES IDX 8 1 7 4 3 5 4 6 27 7 5 8 6 9 2 10 1 11 9 12 10 13 25 14
REMARK SMILES IDX 11 15 14 16 13 17 26 18 12 19 15 20 16 21 24 22 17 23 23 24
REMARK SMILES IDX 18 25 22 26 19 27 20 28 21 29
REMARK H PARENT 8 2 8 3
ROOT
ATOM      1  N   UNL     1      45.083 130.870  22.315  1.00  0.00    -0.281 N 
ATOM      2  H   UNL     1      45.281 131.730  22.879  1.00  0.00     0.358 HD
ATOM      3  H   UNL     1      45.999 130.376  22.203  1.00  0.00     0.358 HD
ENDROOT
BRANCH   1   4
ATOM      4  C   UNL     1      44.143 130.034  23.021  1.00  0.00     0.154 A 
ATOM      5  C   UNL     1      43.260 127.840  23.575  1.00  0.00     0.048 A 
ATOM      6  C   UNL     1      42.273 128.454  24.353  1.00  0.00     0.128 A 
ATOM      7  C   UNL     1      44.197 128.634  22.907  1.00  0.00     0.088 A 
ATOM      8  N   UNL     1      42.231 129.810  24.452  1.00  0.00    -0.257 NA
ATOM      9  C   UNL     1      43.131 130.603  23.812  1.00  0.00     0.179 A 
BRANCH   5  10
ATOM     10  C   UNL     1      43.309 126.406  23.463  1.00  0.00    -0.069 C 
ATOM     11  C   UNL     1      43.349 125.205  23.368  1.00  0.00     0.010 C 
ENDBRANCH   5  10
ENDBRANCH   1   4
BRANCH   1  12
ATOM     12  C   UNL     1      44.541 131.235  21.027  1.00  0.00     0.129 A 
ATOM     13  C   UNL     1      43.250 131.781  20.945  1.00  0.00     0.071 A 
ATOM     14  C   UNL     1      45.274 131.012  19.841  1.00  0.00    -0.017 A 
ATOM     15  C   UNL     1      42.695 132.122  19.708  1.00  0.00    -0.043 A 
ATOM     16  C   UNL     1      44.713 131.331  18.582  1.00  0.00     0.084 A 
ATOM     17  C   UNL     1      43.420 131.882  18.534  1.00  0.00     0.033 A 
ATOM     18  O   UNL     1      46.556 130.477  19.924  1.00  0.00    -0.867 OA
ATOM     19  C   UNL     1      41.300 132.671  19.633  1.00  0.00     0.044 C 
BRANCH  16  20
ATOM     20  N   UNL     1      45.434 131.100  17.352  1.00  0.00    -0.151 N 
ATOM     21  N   UNL     1      45.540 132.011  16.383  1.00  0.00    -0.148 NA
ATOM     22  N   UNL     1      46.059 129.961  17.051  1.00  0.00    -0.148 NA
ATOM     23  C   UNL     1      46.267 131.419  15.425  1.00  0.00     0.113 A 
ATOM     24  C   UNL     1      46.585 130.164  15.835  1.00  0.00     0.116 A 
ATOM     25  C   UNL     1      46.674 131.925  14.194  1.00  0.00     0.035 A 
ATOM     26  C   UNL     1      47.340 129.295  15.052  1.00  0.00     0.071 A 
ATOM     27  C   UNL     1      47.440 131.078  13.370  1.00  0.00     0.041 A 
ATOM     28  C   UNL     1      47.772 129.768  13.796  1.00  0.00     0.125 A 
ATOM     29  F   UNL     1      48.510 128.964  12.991  1.00  0.00    -0.207 F 
ENDBRANCH  16  20
ENDBRANCH   1  12
TORSDOF 4
ENDMDL
MODEL 3
REMARK VINA RESULT:      -9.3      1.115      1.865
REMARK SMILES C#Cc1cncc([NH2+]c2cc(C)cc(-n3nc4ccc(F)cc4n3)c2[O-])c1
REMARK SMILES IDX 8 1 7 4 3 5 4 6 27 7 5 8 6 9 2 10 1 11 9 12 10 13 25 14
REMARK SMILES IDX 11 15 14 16 13 17 26 18 12 19 15 20 16 21 24 22 17 23 23 24
REMARK SMILES IDX 18 25 22 26 19 27 20 28 21 29
REMARK H PARENT 8 2 8 3
ROOT
ATOM      1  N   UNL     1      44.585 130.587  23.349  1.00  0.00    -0.281 N 
ATOM      2  H   UNL     1      44.309 131.173  24.173  1.00  0.00     0.358 HD
ATOM      3  H   UNL     1      45.632 130.577  23.335  1.00  0.00     0.358 HD
ENDROOT
BRANCH   1   4
ATOM      4  C   UNL     1      44.071 129.250  23.513  1.00  0.00     0.154 A 
ATOM      5  C   UNL     1      42.205 127.706  23.701  1.00  0.00     0.048 A 
ATOM      6  C   UNL     1      43.113 126.661  23.895  1.00  0.00     0.128 A 
ATOM      7  C   UNL     1      42.687 129.005  23.510  1.00  0.00     0.088 A 
ATOM      8  N   UNL     1      44.449 126.913  23.898  1.00  0.00    -0.257 NA
ATOM      9  C   UNL     1      44.942 128.167  23.716  1.00  0.00     0.179 A 
BRANCH   5  10
ATOM     10  C   UNL     1      40.788 127.448  23.699  1.00  0.00    -0.069 C 
ATOM     11  C   UNL     1      39.603 127.231  23.697  1.00  0.00     0.010 C 
ENDBRANCH   5  10
ENDBRANCH   1   4
BRANCH   1  12
ATOM     12  C   UNL     1      44.065 131.166  22.132  1.00  0.00     0.129 A 
ATOM     13  C   UNL     1      42.905 131.956  22.178  1.00  0.00     0.071 A 
ATOM     14  C   UNL     1      44.682 130.916  20.887  1.00  0.00    -0.017 A 
ATOM     15  C   UNL     1      42.369 132.509  21.011  1.00  0.00    -0.043 A 
ATOM     16  C   UNL     1      44.135 131.450  19.697  1.00  0.00     0.084 A 
ATOM     17  C   UNL     1      42.975 132.241  19.778  1.00  0.00     0.033 A 
ATOM     18  O   UNL     1      45.835 130.138  20.844  1.00  0.00    -0.867 OA
ATOM     19  C   UNL     1      41.108 133.320  21.072  1.00  0.00     0.044 C 
BRANCH  16  20
ATOM     20  N   UNL     1      44.736 131.198  18.408  1.00  0.00    -0.151 N 
ATOM     21  N   UNL     1      45.677 130.275  18.207  1.00  0.00    -0.148 NA
ATOM     22  N   UNL     1      44.424 131.859  17.293  1.00  0.00    -0.148 NA
ATOM     23  C   UNL     1      45.973 130.356  16.902  1.00  0.00     0.113 A 
ATOM     24  C   UNL     1      45.205 131.326  16.342  1.00  0.00     0.116 A 
ATOM     25  C   UNL     1      46.892 129.616  16.164  1.00  0.00     0.035 A 
ATOM     26  C   UNL     1      45.283 131.649  14.991  1.00  0.00     0.071 A 
ATOM     27  C   UNL     1      47.004 129.911  14.791  1.00  0.00     0.041 A 
ATOM     28  C   UNL     1      46.203 130.924  14.206  1.00  0.00     0.125 A 
ATOM     29  F   UNL     1      46.321 131.197  12.883  1.00  0.00    -0.207 F 
ENDBRANCH  16  20
ENDBRANCH   1  12
TORSDOF 4
ENDMDL


