MODEL 1
REMARK VINA RESULT:      -5.2      0.000      0.000
REMARK SMILES C#Cc1c[nH+]cc(Nc2cc(C=C)cc(-c3ccc4cc[nH]c(=O)c4c3)c2[O-])c1
REMARK SMILES IDX 8 1 7 3 3 4 4 5 29 6 5 7 6 8 2 10 1 11 9 12 10 13 27 14
REMARK SMILES IDX 11 15 15 16 14 17 28 18 12 19 13 20 16 21 17 22 26 23 18 24
REMARK SMILES IDX 25 25 19 26 23 27 20 28 22 29 21 30 24 31
REMARK H PARENT 8 2 5 9 22 32
ROOT
ATOM      1  N   UNL     1      45.014 127.637  24.527  1.00  0.00    -0.351 N 
ATOM      2  H   UNL     1      45.555 127.831  25.400  1.00  0.00     0.167 HD
ENDROOT
BRANCH   1   3
ATOM      3  C   UNL     1      44.274 128.721  23.940  1.00  0.00     0.105 A 
ATOM      4  C   UNL     1      43.973 130.425  22.239  1.00  0.00     0.090 A 
ATOM      5  C   UNL     1      42.753 130.771  22.828  1.00  0.00     0.323 A 
ATOM      6  C   UNL     1      44.732 129.390  22.793  1.00  0.00     0.056 A 
ATOM      7  N   UNL     1      42.311 130.098  23.925  1.00  0.00    -0.215 N 
ATOM      8  C   UNL     1      43.034 129.089  24.482  1.00  0.00     0.332 A 
ATOM      9  H   UNL     1      41.393 130.363  24.350  1.00  0.00     0.453 HD
BRANCH   4  10
ATOM     10  C   UNL     1      44.439 131.121  21.067  1.00  0.00    -0.064 C 
ATOM     11  C   UNL     1      44.829 131.706  20.088  1.00  0.00     0.010 C 
ENDBRANCH   4  10
ENDBRANCH   1   3
BRANCH   1  12
ATOM     12  C   UNL     1      45.060 126.304  23.987  1.00  0.00     0.032 A 
ATOM     13  C   UNL     1      43.943 125.457  24.076  1.00  0.00     0.033 A 
ATOM     14  C   UNL     1      46.206 125.867  23.303  1.00  0.00    -0.077 A 
ATOM     15  C   UNL     1      43.965 124.173  23.515  1.00  0.00    -0.024 A 
ATOM     16  C   UNL     1      46.256 124.569  22.757  1.00  0.00    -0.024 A 
ATOM     17  C   UNL     1      45.133 123.731  22.868  1.00  0.00     0.016 A 
ATOM     18  O   UNL     1      47.292 126.726  23.166  1.00  0.00    -0.871 OA
BRANCH  15  19
ATOM     19  C   UNL     1      42.759 123.319  23.655  1.00  0.00     0.000 C 
ATOM     20  C   UNL     1      42.600 122.397  24.606  1.00  0.00     0.009 C 
ENDBRANCH  15  19
BRANCH  16  21
ATOM     21  C   UNL     1      47.471 124.074  22.068  1.00  0.00    -0.018 A 
ATOM     22  C   UNL     1      47.421 122.894  21.308  1.00  0.00     0.009 A 
ATOM     23  C   UNL     1      48.691 124.764  22.186  1.00  0.00     0.023 A 
ATOM     24  C   UNL     1      48.563 122.415  20.662  1.00  0.00     0.009 A 
ATOM     25  C   UNL     1      49.848 124.290  21.540  1.00  0.00     0.048 A 
ATOM     26  C   UNL     1      49.778 123.106  20.771  1.00  0.00    -0.011 A 
ATOM     27  C   UNL     1      51.082 124.964  21.638  1.00  0.00     0.255 A 
ATOM     28  C   UNL     1      50.926 122.631  20.127  1.00  0.00     0.027 A 
ATOM     29  N   UNL     1      52.179 124.471  20.997  1.00  0.00    -0.329 N 
ATOM     30  C   UNL     1      52.123 123.334  20.253  1.00  0.00     0.086 A 
ATOM     31  O   UNL     1      51.185 126.024  22.315  1.00  0.00    -0.269 OA
ATOM     32  H   UNL     1      53.091 124.976  21.074  1.00  0.00     0.169 HD
ENDBRANCH  16  21
ENDBRANCH   1  12
TORSDOF 5
ENDMDL
MODEL 2
REMARK VINA RESULT:      -4.5      6.828      9.433
REMARK SMILES C#Cc1c[nH+]cc(Nc2cc(C=C)cc(-c3ccc4cc[nH]c(=O)c4c3)c2[O-])c1
REMARK SMILES IDX 8 1 7 3 3 4 4 5 29 6 5 7 6 8 2 10 1 11 9 12 10 13 27 14
REMARK SMILES IDX 11 15 15 16 14 17 28 18 12 19 13 20 16 21 17 22 26 23 18 24
REMARK SMILES IDX 25 25 19 26 23 27 20 28 22 29 21 30 24 31
REMARK H PARENT 8 2 5 9 22 32
ROOT
ATOM      1  N   UNL     1      45.599 130.459  20.022  1.00  0.00    -0.351 N 
ATOM      2  H   UNL     1      45.858 129.461  20.198  1.00  0.00     0.167 HD
ENDROOT
BRANCH   1   3
ATOM      3  C   UNL     1      45.200 130.824  18.690  1.00  0.00     0.105 A 
ATOM      4  C   UNL     1      45.528 130.814  16.285  1.00  0.00     0.090 A 
ATOM      5  C   UNL     1      44.328 131.516  16.138  1.00  0.00     0.323 A 
ATOM      6  C   UNL     1      45.960 130.460  17.567  1.00  0.00     0.056 A 
ATOM      7  N   UNL     1      43.590 131.842  17.233  1.00  0.00    -0.215 N 
ATOM      8  C   UNL     1      43.993 131.510  18.490  1.00  0.00     0.332 A 
ATOM      9  H   UNL     1      42.691 132.361  17.107  1.00  0.00     0.453 HD
BRANCH   4  10
ATOM     10  C   UNL     1      46.305 130.451  15.129  1.00  0.00    -0.064 C 
ATOM     11  C   UNL     1      46.955 130.146  14.160  1.00  0.00     0.010 C 
ENDBRANCH   4  10
ENDBRANCH   1   3
BRANCH   1  12
ATOM     12  C   UNL     1      45.660 131.378  21.128  1.00  0.00     0.032 A 
ATOM     13  C   UNL     1      44.639 131.405  22.093  1.00  0.00     0.033 A 
ATOM     14  C   UNL     1      46.781 132.209  21.285  1.00  0.00    -0.077 A 
ATOM     15  C   UNL     1      44.711 132.266  23.195  1.00  0.00    -0.024 A 
ATOM     16  C   UNL     1      46.857 133.100  22.374  1.00  0.00    -0.024 A 
ATOM     17  C   UNL     1      45.819 133.123  23.321  1.00  0.00     0.016 A 
ATOM     18  O   UNL     1      47.819 132.142  20.360  1.00  0.00    -0.871 OA
BRANCH  15  19
ATOM     19  C   UNL     1      43.594 132.259  24.173  1.00  0.00     0.000 C 
ATOM     20  C   UNL     1      42.404 131.702  23.946  1.00  0.00     0.009 C 
ENDBRANCH  15  19
BRANCH  16  21
ATOM     21  C   UNL     1      48.013 134.015  22.535  1.00  0.00    -0.018 A 
ATOM     22  C   UNL     1      48.905 133.844  23.606  1.00  0.00     0.009 A 
ATOM     23  C   UNL     1      48.216 135.075  21.634  1.00  0.00     0.023 A 
ATOM     24  C   UNL     1      49.991 134.705  23.771  1.00  0.00     0.009 A 
ATOM     25  C   UNL     1      49.308 135.949  21.790  1.00  0.00     0.048 A 
ATOM     26  C   UNL     1      50.201 135.757  22.869  1.00  0.00    -0.011 A 
ATOM     27  C   UNL     1      49.538 137.018  20.900  1.00  0.00     0.255 A 
ATOM     28  C   UNL     1      51.288 136.624  23.029  1.00  0.00     0.027 A 
ATOM     29  N   UNL     1      50.608 137.842  21.088  1.00  0.00    -0.329 N 
ATOM     30  C   UNL     1      51.474 137.666  22.121  1.00  0.00     0.086 A 
ATOM     31  O   UNL     1      48.763 137.221  19.926  1.00  0.00    -0.269 OA
ATOM     32  H   UNL     1      50.772 138.631  20.424  1.00  0.00     0.169 HD
ENDBRANCH  16  21
ENDBRANCH   1  12
TORSDOF 5
ENDMDL
MODEL 3
REMARK VINA RESULT:      -3.8      5.121      9.110
REMARK SMILES C#Cc1c[nH+]cc(Nc2cc(C=C)cc(-c3ccc4cc[nH]c(=O)c4c3)c2[O-])c1
REMARK SMILES IDX 8 1 7 3 3 4 4 5 29 6 5 7 6 8 2 10 1 11 9 12 10 13 27 14
REMARK SMILES IDX 11 15 15 16 14 17 28 18 12 19 13 20 16 21 17 22 26 23 18 24
REMARK SMILES IDX 25 25 19 26 23 27 20 28 22 29 21 30 24 31
REMARK H PARENT 8 2 5 9 22 32
ROOT
ATOM      1  N   UNL     1      43.930 131.382  23.782  1.00  0.00    -0.351 N 
ATOM      2  H   UNL     1      43.741 132.060  24.556  1.00  0.00     0.167 HD
ENDROOT
BRANCH   1   3
ATOM      3  C   UNL     1      43.340 130.074  23.877  1.00  0.00     0.105 A 
ATOM      4  C   UNL     1      43.444 127.663  23.624  1.00  0.00     0.090 A 
ATOM      5  C   UNL     1      42.151 127.571  24.148  1.00  0.00     0.323 A 
ATOM      6  C   UNL     1      44.043 128.919  23.496  1.00  0.00     0.056 A 
ATOM      7  N   UNL     1      41.491 128.696  24.535  1.00  0.00    -0.215 N 
ATOM      8  C   UNL     1      42.054 129.930  24.418  1.00  0.00     0.332 A 
ATOM      9  H   UNL     1      40.528 128.612  24.933  1.00  0.00     0.453 HD
BRANCH   4  10
ATOM     10  C   UNL     1      44.154 126.474  23.228  1.00  0.00    -0.064 C 
ATOM     11  C   UNL     1      44.747 125.478  22.897  1.00  0.00     0.010 C 
ENDBRANCH   4  10
ENDBRANCH   1   3
BRANCH   1  12
ATOM     12  C   UNL     1      44.758 131.818  22.690  1.00  0.00     0.032 A 
ATOM     13  C   UNL     1      44.460 131.439  21.370  1.00  0.00     0.033 A 
ATOM     14  C   UNL     1      45.836 132.685  22.932  1.00  0.00    -0.077 A 
ATOM     15  C   UNL     1      45.236 131.894  20.296  1.00  0.00    -0.024 A 
ATOM     16  C   UNL     1      46.644 133.130  21.867  1.00  0.00    -0.024 A 
ATOM     17  C   UNL     1      46.337 132.729  20.556  1.00  0.00     0.016 A 
ATOM     18  O   UNL     1      46.098 133.105  24.233  1.00  0.00    -0.871 OA
BRANCH  15  19
ATOM     19  C   UNL     1      44.879 131.447  18.926  1.00  0.00     0.000 C 
ATOM     20  C   UNL     1      45.605 130.593  18.204  1.00  0.00     0.009 C 
ENDBRANCH  15  19
BRANCH  16  21
ATOM     21  C   UNL     1      47.810 134.012  22.108  1.00  0.00    -0.018 A 
ATOM     22  C   UNL     1      48.721 133.714  23.135  1.00  0.00     0.009 A 
ATOM     23  C   UNL     1      48.007 135.166  21.329  1.00  0.00     0.023 A 
ATOM     24  C   UNL     1      49.818 134.543  23.375  1.00  0.00     0.009 A 
ATOM     25  C   UNL     1      49.110 136.008  21.562  1.00  0.00     0.048 A 
ATOM     26  C   UNL     1      50.021 135.689  22.595  1.00  0.00    -0.011 A 
ATOM     27  C   UNL     1      49.333 137.170  20.794  1.00  0.00     0.255 A 
ATOM     28  C   UNL     1      51.119 136.525  22.831  1.00  0.00     0.027 A 
ATOM     29  N   UNL     1      50.414 137.960  21.054  1.00  0.00    -0.329 N 
ATOM     30  C   UNL     1      51.298 137.661  22.043  1.00  0.00     0.086 A 
ATOM     31  O   UNL     1      48.542 137.488  19.865  1.00  0.00    -0.269 OA
ATOM     32  H   UNL     1      50.573 138.819  20.481  1.00  0.00     0.169 HD
ENDBRANCH  16  21
ENDBRANCH   1  12
TORSDOF 5
ENDMDL
MODEL 4
REMARK VINA RESULT:      -3.3      3.844      8.205
REMARK SMILES C#Cc1c[nH+]cc(Nc2cc(C=C)cc(-c3ccc4cc[nH]c(=O)c4c3)c2[O-])c1
REMARK SMILES IDX 8 1 7 3 3 4 4 5 29 6 5 7 6 8 2 10 1 11 9 12 10 13 27 14
REMARK SMILES IDX 11 15 15 16 14 17 28 18 12 19 13 20 16 21 17 22 26 23 18 24
REMARK SMILES IDX 25 25 19 26 23 27 20 28 22 29 21 30 24 31
REMARK H PARENT 8 2 5 9 22 32
ROOT
ATOM      1  N   UNL     1      43.831 130.528  24.260  1.00  0.00    -0.351 N 
ATOM      2  H   UNL     1      43.362 131.028  25.050  1.00  0.00     0.167 HD
ENDROOT
BRANCH   1   3
ATOM      3  C   UNL     1      43.771 129.091  24.246  1.00  0.00     0.105 A 
ATOM      4  C   UNL     1      44.804 126.915  23.953  1.00  0.00     0.090 A 
ATOM      5  C   UNL     1      43.590 126.314  24.299  1.00  0.00     0.323 A 
ATOM      6  C   UNL     1      44.896 128.309  23.935  1.00  0.00     0.056 A 
ATOM      7  N   UNL     1      42.515 127.083  24.620  1.00  0.00    -0.215 N 
ATOM      8  C   UNL     1      42.581 128.442  24.607  1.00  0.00     0.332 A 
ATOM      9  H   UNL     1      41.616 126.619  24.884  1.00  0.00     0.453 HD
BRANCH   4  10
ATOM     10  C   UNL     1      45.950 126.106  23.629  1.00  0.00    -0.064 C 
ATOM     11  C   UNL     1      46.909 125.427  23.356  1.00  0.00     0.010 C 
ENDBRANCH   4  10
ENDBRANCH   1   3
BRANCH   1  12
ATOM     12  C   UNL     1      44.491 131.319  23.256  1.00  0.00     0.032 A 
ATOM     13  C   UNL     1      45.475 132.255  23.615  1.00  0.00     0.033 A 
ATOM     14  C   UNL     1      44.199 131.109  21.898  1.00  0.00    -0.077 A 
ATOM     15  C   UNL     1      46.152 133.000  22.640  1.00  0.00    -0.024 A 
ATOM     16  C   UNL     1      44.852 131.869  20.906  1.00  0.00    -0.024 A 
ATOM     17  C   UNL     1      45.823 132.810  21.286  1.00  0.00     0.016 A 
ATOM     18  O   UNL     1      43.265 130.143  21.539  1.00  0.00    -0.871 OA
BRANCH  15  19
ATOM     19  C   UNL     1      47.171 133.984  23.083  1.00  0.00     0.000 C 
ATOM     20  C   UNL     1      48.235 134.337  22.359  1.00  0.00     0.009 C 
ENDBRANCH  15  19
BRANCH  16  21
ATOM     21  C   UNL     1      44.528 131.691  19.470  1.00  0.00    -0.018 A 
ATOM     22  C   UNL     1      43.302 132.148  18.961  1.00  0.00     0.009 A 
ATOM     23  C   UNL     1      45.431 131.044  18.609  1.00  0.00     0.023 A 
ATOM     24  C   UNL     1      42.984 131.978  17.613  1.00  0.00     0.009 A 
ATOM     25  C   UNL     1      45.121 130.868  17.247  1.00  0.00     0.048 A 
ATOM     26  C   UNL     1      43.886 131.341  16.749  1.00  0.00    -0.011 A 
ATOM     27  C   UNL     1      46.010 130.226  16.360  1.00  0.00     0.255 A 
ATOM     28  C   UNL     1      43.574 131.167  15.396  1.00  0.00     0.027 A 
ATOM     29  N   UNL     1      45.670 130.074  15.049  1.00  0.00    -0.329 N 
ATOM     30  C   UNL     1      44.486 130.528  14.558  1.00  0.00     0.086 A 
ATOM     31  O   UNL     1      47.121 129.789  16.767  1.00  0.00    -0.269 OA
ATOM     32  H   UNL     1      46.334 129.598  14.397  1.00  0.00     0.169 HD
ENDBRANCH  16  21
ENDBRANCH   1  12
TORSDOF 5
ENDMDL
MODEL 5
REMARK VINA RESULT:      -3.0      3.646      6.886
REMARK SMILES C#Cc1c[nH+]cc(Nc2cc(C=C)cc(-c3ccc4cc[nH]c(=O)c4c3)c2[O-])c1
REMARK SMILES IDX 8 1 7 3 3 4 4 5 29 6 5 7 6 8 2 10 1 11 9 12 10 13 27 14
REMARK SMILES IDX 11 15 15 16 14 17 28 18 12 19 13 20 16 21 17 22 26 23 18 24
REMARK SMILES IDX 25 25 19 26 23 27 20 28 22 29 21 30 24 31
REMARK H PARENT 8 2 5 9 22 32
ROOT
ATOM      1  N   UNL     1      45.561 131.593  18.852  1.00  0.00    -0.351 N 
ATOM      2  H   UNL     1      46.024 132.531  18.868  1.00  0.00     0.167 HD
ENDROOT
BRANCH   1   3
ATOM      3  C   UNL     1      45.511 130.889  17.600  1.00  0.00     0.105 A 
ATOM      4  C   UNL     1      46.227 130.565  15.304  1.00  0.00     0.090 A 
ATOM      5  C   UNL     1      45.407 129.436  15.228  1.00  0.00     0.323 A 
ATOM      6  C   UNL     1      46.285 131.289  16.498  1.00  0.00     0.056 A 
ATOM      7  N   UNL     1      44.681 129.046  16.310  1.00  0.00    -0.215 N 
ATOM      8  C   UNL     1      44.721 129.737  17.482  1.00  0.00     0.332 A 
ATOM      9  H   UNL     1      44.078 128.195  16.241  1.00  0.00     0.453 HD
BRANCH   4  10
ATOM     10  C   UNL     1      47.011 130.973  14.167  1.00  0.00    -0.064 C 
ATOM     11  C   UNL     1      47.667 131.316  13.216  1.00  0.00     0.010 C 
ENDBRANCH   4  10
ENDBRANCH   1   3
BRANCH   1  12
ATOM     12  C   UNL     1      45.019 131.088  20.086  1.00  0.00     0.032 A 
ATOM     13  C   UNL     1      44.115 131.856  20.838  1.00  0.00     0.033 A 
ATOM     14  C   UNL     1      45.341 129.788  20.510  1.00  0.00    -0.077 A 
ATOM     15  C   UNL     1      43.549 131.355  22.018  1.00  0.00    -0.024 A 
ATOM     16  C   UNL     1      44.802 129.279  21.709  1.00  0.00    -0.024 A 
ATOM     17  C   UNL     1      43.911 130.068  22.454  1.00  0.00     0.016 A 
ATOM     18  O   UNL     1      46.192 129.006  19.736  1.00  0.00    -0.871 OA
BRANCH  15  19
ATOM     19  C   UNL     1      42.612 132.221  22.777  1.00  0.00     0.000 C 
ATOM     20  C   UNL     1      41.978 131.844  23.888  1.00  0.00     0.009 C 
ENDBRANCH  15  19
BRANCH  16  21
ATOM     21  C   UNL     1      45.162 127.925  22.195  1.00  0.00    -0.018 A 
ATOM     22  C   UNL     1      46.407 127.365  21.866  1.00  0.00     0.009 A 
ATOM     23  C   UNL     1      44.256 127.180  22.969  1.00  0.00     0.023 A 
ATOM     24  C   UNL     1      46.753 126.088  22.311  1.00  0.00     0.009 A 
ATOM     25  C   UNL     1      44.594 125.891  23.424  1.00  0.00     0.048 A 
ATOM     26  C   UNL     1      45.855 125.346  23.091  1.00  0.00    -0.011 A 
ATOM     27  C   UNL     1      43.707 125.123  24.205  1.00  0.00     0.255 A 
ATOM     28  C   UNL     1      46.194 124.064  23.540  1.00  0.00     0.027 A 
ATOM     29  N   UNL     1      44.073 123.878  24.625  1.00  0.00    -0.329 N 
ATOM     30  C   UNL     1      45.283 123.344  24.311  1.00  0.00     0.086 A 
ATOM     31  O   UNL     1      42.573 125.575  24.523  1.00  0.00    -0.269 OA
ATOM     32  H   UNL     1      43.410 123.315  25.204  1.00  0.00     0.169 HD
ENDBRANCH  16  21
ENDBRANCH   1  12
TORSDOF 5
ENDMDL
MODEL 6
REMARK VINA RESULT:      -2.4      4.017      7.909
REMARK SMILES C#Cc1c[nH+]cc(Nc2cc(C=C)cc(-c3ccc4cc[nH]c(=O)c4c3)c2[O-])c1
REMARK SMILES IDX 8 1 7 3 3 4 4 5 29 6 5 7 6 8 2 10 1 11 9 12 10 13 27 14
REMARK SMILES IDX 11 15 15 16 14 17 28 18 12 19 13 20 16 21 17 22 26 23 18 24
REMARK SMILES IDX 25 25 19 26 23 27 20 28 22 29 21 30 24 31
REMARK H PARENT 8 2 5 9 22 32
ROOT
ATOM      1  N   UNL     1      44.234 129.811  23.499  1.00  0.00    -0.351 N 
ATOM      2  H   UNL     1      44.836 130.332  24.177  1.00  0.00     0.167 HD
ENDROOT
BRANCH   1   3
ATOM      3  C   UNL     1      43.817 128.482  23.854  1.00  0.00     0.105 A 
ATOM      4  C   UNL     1      44.278 126.130  24.235  1.00  0.00     0.090 A 
ATOM      5  C   UNL     1      42.944 125.950  24.613  1.00  0.00     0.323 A 
ATOM      6  C   UNL     1      44.717 127.404  23.862  1.00  0.00     0.056 A 
ATOM      7  N   UNL     1      42.089 127.008  24.623  1.00  0.00    -0.215 N 
ATOM      8  C   UNL     1      42.494 128.256  24.262  1.00  0.00     0.332 A 
ATOM      9  H   UNL     1      41.096 126.859  24.915  1.00  0.00     0.453 HD
BRANCH   4  10
ATOM     10  C   UNL     1      45.192 125.018  24.239  1.00  0.00    -0.064 C 
ATOM     11  C   UNL     1      45.957 124.085  24.244  1.00  0.00     0.010 C 
ENDBRANCH   4  10
ENDBRANCH   1   3
BRANCH   1  12
ATOM     12  C   UNL     1      43.873 130.471  22.272  1.00  0.00     0.032 A 
ATOM     13  C   UNL     1      42.812 131.392  22.241  1.00  0.00     0.033 A 
ATOM     14  C   UNL     1      44.628 130.247  21.109  1.00  0.00    -0.077 A 
ATOM     15  C   UNL     1      42.481 132.071  21.061  1.00  0.00    -0.024 A 
ATOM     16  C   UNL     1      44.291 130.902  19.907  1.00  0.00    -0.024 A 
ATOM     17  C   UNL     1      43.218 131.808  19.893  1.00  0.00     0.016 A 
ATOM     18  O   UNL     1      45.713 129.378  21.154  1.00  0.00    -0.871 OA
BRANCH  15  19
ATOM     19  C   UNL     1      41.340 133.021  21.088  1.00  0.00     0.000 C 
ATOM     20  C   UNL     1      41.229 134.079  20.285  1.00  0.00     0.009 C 
ENDBRANCH  15  19
BRANCH  16  21
ATOM     21  C   UNL     1      45.050 130.647  18.659  1.00  0.00    -0.018 A 
ATOM     22  C   UNL     1      46.185 129.821  18.680  1.00  0.00     0.009 A 
ATOM     23  C   UNL     1      44.657 131.246  17.450  1.00  0.00     0.023 A 
ATOM     24  C   UNL     1      46.912 129.582  17.512  1.00  0.00     0.009 A 
ATOM     25  C   UNL     1      45.382 131.012  16.266  1.00  0.00     0.048 A 
ATOM     26  C   UNL     1      46.518 130.171  16.302  1.00  0.00    -0.011 A 
ATOM     27  C   UNL     1      45.009 131.596  15.038  1.00  0.00     0.255 A 
ATOM     28  C   UNL     1      47.241 129.936  15.128  1.00  0.00     0.027 A 
ATOM     29  N   UNL     1      45.739 131.344  13.915  1.00  0.00    -0.329 N 
ATOM     30  C   UNL     1      46.832 130.535  13.938  1.00  0.00     0.086 A 
ATOM     31  O   UNL     1      44.002 132.353  14.966  1.00  0.00    -0.269 OA
ATOM     32  H   UNL     1      45.456 131.780  13.009  1.00  0.00     0.169 HD
ENDBRANCH  16  21
ENDBRANCH   1  12
TORSDOF 5
ENDMDL


