MODEL 1
REMARK VINA RESULT:      -7.9      0.000      0.000
REMARK SMILES C=C(/C=C(\O)N(N)c1ccccc1-c1[nH]c2ccccc2[nH+]1)C(C)=O
REMARK SMILES IDX 4 1 5 2 3 4 2 5 1 6 23 7 25 8 24 9 6 10 8 11 9 12 13 13
REMARK SMILES IDX 10 14 12 15 11 16 14 17 15 18 22 19 16 20 21 21 17 22 20 23
REMARK SMILES IDX 18 24 19 25 7 28
REMARK H PARENT 5 3 15 26 22 27 7 29 7 30
ROOT
ATOM      1  C   UNL     1      45.670 130.874  20.861  1.00  0.00     0.206 C 
ENDROOT
BRANCH   1   2
ATOM      2  O   UNL     1      46.105 131.991  21.577  1.00  0.00    -0.494 OA
ATOM      3  H   UNL     1      45.710 132.242  22.475  1.00  0.00     0.295 HD
ENDBRANCH   1   2
BRANCH   1   4
ATOM      4  C   UNL     1      45.576 129.685  21.482  1.00  0.00     0.079 C 
BRANCH   4   5
ATOM      5  C   UNL     1      44.555 129.385  22.511  1.00  0.00     0.015 C 
ATOM      6  C   UNL     1      43.838 130.403  23.003  1.00  0.00     0.021 C 
BRANCH   5   7
ATOM      7  C   UNL     1      44.386 128.006  23.038  1.00  0.00     0.159 C 
ATOM      8  O   UNL     1      43.571 127.796  23.977  1.00  0.00    -0.295 OA
ATOM      9  C   UNL     1      45.128 126.838  22.459  1.00  0.00     0.093 C 
ENDBRANCH   5   7
ENDBRANCH   4   5
ENDBRANCH   1   4
BRANCH   1  10
ATOM     10  N   UNL     1      45.352 131.005  19.454  1.00  0.00    -0.248 N 
BRANCH  10  11
ATOM     11  C   UNL     1      44.099 131.550  18.993  1.00  0.00     0.076 A 
ATOM     12  C   UNL     1      43.168 131.998  19.945  1.00  0.00     0.029 A 
ATOM     13  C   UNL     1      43.767 131.619  17.614  1.00  0.00     0.089 A 
ATOM     14  C   UNL     1      41.914 132.468  19.548  1.00  0.00     0.002 A 
ATOM     15  C   UNL     1      42.494 132.075  17.234  1.00  0.00     0.019 A 
ATOM     16  C   UNL     1      41.575 132.498  18.197  1.00  0.00     0.001 A 
BRANCH  13  17
ATOM     17  C   UNL     1      44.723 131.233  16.556  1.00  0.00     0.287 A 
ATOM     18  N   UNL     1      45.092 129.948  16.318  1.00  0.00    -0.236 N 
ATOM     19  N   UNL     1      45.365 132.121  15.754  1.00  0.00    -0.236 N 
ATOM     20  C   UNL     1      46.012 130.048  15.345  1.00  0.00     0.172 A 
ATOM     21  C   UNL     1      46.176 131.359  15.004  1.00  0.00     0.172 A 
ATOM     22  C   UNL     1      46.752 129.030  14.747  1.00  0.00     0.056 A 
ATOM     23  C   UNL     1      47.090 131.761  14.034  1.00  0.00     0.056 A 
ATOM     24  C   UNL     1      47.684 129.400  13.759  1.00  0.00     0.005 A 
ATOM     25  C   UNL     1      47.852 130.759  13.403  1.00  0.00     0.005 A 
ATOM     26  H   UNL     1      44.771 129.084  16.808  1.00  0.00     0.312 HD
ATOM     27  H   UNL     1      45.264 133.161  15.728  1.00  0.00     0.312 HD
ENDBRANCH  13  17
ENDBRANCH  10  11
BRANCH  10  28
ATOM     28  N   UNL     1      46.279 130.584  18.483  1.00  0.00    -0.240 NA
ATOM     29  H   UNL     1      45.834 129.817  17.929  1.00  0.00     0.144 HD
ATOM     30  H   UNL     1      47.118 130.195  18.972  1.00  0.00     0.144 HD
ENDBRANCH  10  28
ENDBRANCH   1  10
TORSDOF 8
ENDMDL
MODEL 2
REMARK VINA RESULT:      -7.6      1.475      2.193
REMARK SMILES C=C(/C=C(\O)N(N)c1ccccc1-c1[nH]c2ccccc2[nH+]1)C(C)=O
REMARK SMILES IDX 4 1 5 2 3 4 2 5 1 6 23 7 25 8 24 9 6 10 8 11 9 12 13 13
REMARK SMILES IDX 10 14 12 15 11 16 14 17 15 18 22 19 16 20 21 21 17 22 20 23
REMARK SMILES IDX 18 24 19 25 7 28
REMARK H PARENT 5 3 15 26 22 27 7 29 7 30
ROOT
ATOM      1  C   UNL     1      45.377 129.339  21.425  1.00  0.00     0.206 C 
ENDROOT
BRANCH   1   2
ATOM      2  O   UNL     1      46.222 128.349  20.920  1.00  0.00    -0.494 OA
ATOM      3  H   UNL     1      45.902 127.405  20.746  1.00  0.00     0.295 HD
ENDBRANCH   1   2
BRANCH   1   4
ATOM      4  C   UNL     1      44.535 129.041  22.430  1.00  0.00     0.079 C 
BRANCH   4   5
ATOM      5  C   UNL     1      44.708 127.866  23.313  1.00  0.00     0.015 C 
ATOM      6  C   UNL     1      44.347 127.983  24.596  1.00  0.00     0.021 C 
BRANCH   5   7
ATOM      7  C   UNL     1      45.337 126.618  22.806  1.00  0.00     0.159 C 
ATOM      8  O   UNL     1      44.799 125.999  21.848  1.00  0.00    -0.295 OA
ATOM      9  C   UNL     1      46.620 126.089  23.372  1.00  0.00     0.093 C 
ENDBRANCH   5   7
ENDBRANCH   4   5
ENDBRANCH   1   4
BRANCH   1  10
ATOM     10  N   UNL     1      45.399 130.665  20.841  1.00  0.00    -0.248 N 
BRANCH  10  11
ATOM     11  C   UNL     1      44.192 131.398  20.546  1.00  0.00     0.076 A 
ATOM     12  C   UNL     1      43.348 131.764  21.608  1.00  0.00     0.029 A 
ATOM     13  C   UNL     1      43.818 131.733  19.217  1.00  0.00     0.089 A 
ATOM     14  C   UNL     1      42.136 132.413  21.362  1.00  0.00     0.002 A 
ATOM     15  C   UNL     1      42.586 132.367  18.987  1.00  0.00     0.019 A 
ATOM     16  C   UNL     1      41.752 132.705  20.054  1.00  0.00     0.001 A 
BRANCH  13  17
ATOM     17  C   UNL     1      44.690 131.443  18.060  1.00  0.00     0.287 A 
ATOM     18  N   UNL     1      44.900 132.322  17.046  1.00  0.00    -0.236 N 
ATOM     19  N   UNL     1      45.326 130.258  17.867  1.00  0.00    -0.236 N 
ATOM     20  C   UNL     1      45.678 131.648  16.185  1.00  0.00     0.172 A 
ATOM     21  C   UNL     1      45.936 130.403  16.681  1.00  0.00     0.172 A 
ATOM     22  C   UNL     1      46.161 132.065  14.947  1.00  0.00     0.056 A 
ATOM     23  C   UNL     1      46.702 129.474  15.982  1.00  0.00     0.056 A 
ATOM     24  C   UNL     1      46.943 131.152  14.213  1.00  0.00     0.005 A 
ATOM     25  C   UNL     1      47.212 129.862  14.728  1.00  0.00     0.005 A 
ATOM     26  H   UNL     1      44.509 133.285  16.937  1.00  0.00     0.312 HD
ATOM     27  H   UNL     1      45.333 129.419  18.490  1.00  0.00     0.312 HD
ENDBRANCH  13  17
ENDBRANCH  10  11
BRANCH  10  28
ATOM     28  N   UNL     1      46.628 131.276  20.534  1.00  0.00    -0.240 NA
ATOM     29  H   UNL     1      46.457 131.972  19.773  1.00  0.00     0.144 HD
ATOM     30  H   UNL     1      47.281 130.544  20.172  1.00  0.00     0.144 HD
ENDBRANCH  10  28
ENDBRANCH   1  10
TORSDOF 8
ENDMDL
MODEL 3
REMARK VINA RESULT:      -7.5      1.373      2.371
REMARK SMILES C=C(/C=C(\O)N(N)c1ccccc1-c1[nH]c2ccccc2[nH+]1)C(C)=O
REMARK SMILES IDX 4 1 5 2 3 4 2 5 1 6 23 7 25 8 24 9 6 10 8 11 9 12 13 13
REMARK SMILES IDX 10 14 12 15 11 16 14 17 15 18 22 19 16 20 21 21 17 22 20 23
REMARK SMILES IDX 18 24 19 25 7 28
REMARK H PARENT 5 3 15 26 22 27 7 29 7 30
ROOT
ATOM      1  C   UNL     1      45.006 129.658  22.074  1.00  0.00     0.206 C 
ENDROOT
BRANCH   1   2
ATOM      2  O   UNL     1      44.845 129.863  23.446  1.00  0.00    -0.494 OA
ATOM      3  H   UNL     1      45.465 129.447  24.128  1.00  0.00     0.295 HD
ENDBRANCH   1   2
BRANCH   1   4
ATOM      4  C   UNL     1      45.142 128.406  21.603  1.00  0.00     0.079 C 
BRANCH   4   5
ATOM      5  C   UNL     1      45.080 127.203  22.465  1.00  0.00     0.015 C 
ATOM      6  C   UNL     1      46.161 126.417  22.529  1.00  0.00     0.021 C 
BRANCH   5   7
ATOM      7  C   UNL     1      43.826 126.840  23.176  1.00  0.00     0.159 C 
ATOM      8  O   UNL     1      42.962 127.730  23.403  1.00  0.00    -0.295 OA
ATOM      9  C   UNL     1      43.533 125.432  23.599  1.00  0.00     0.093 C 
ENDBRANCH   5   7
ENDBRANCH   4   5
ENDBRANCH   1   4
BRANCH   1  10
ATOM     10  N   UNL     1      45.051 130.797  21.180  1.00  0.00    -0.248 N 
BRANCH  10  11
ATOM     11  C   UNL     1      43.871 131.550  20.831  1.00  0.00     0.076 A 
ATOM     12  C   UNL     1      43.000 131.954  21.857  1.00  0.00     0.029 A 
ATOM     13  C   UNL     1      43.551 131.870  19.484  1.00  0.00     0.089 A 
ATOM     14  C   UNL     1      41.812 132.624  21.559  1.00  0.00     0.002 A 
ATOM     15  C   UNL     1      42.341 132.526  19.202  1.00  0.00     0.019 A 
ATOM     16  C   UNL     1      41.479 132.902  20.234  1.00  0.00     0.001 A 
BRANCH  13  17
ATOM     17  C   UNL     1      44.454 131.541  18.363  1.00  0.00     0.287 A 
ATOM     18  N   UNL     1      44.748 132.411  17.363  1.00  0.00    -0.236 N 
ATOM     19  N   UNL     1      45.039 130.327  18.191  1.00  0.00    -0.236 N 
ATOM     20  C   UNL     1      45.527 131.702  16.531  1.00  0.00     0.172 A 
ATOM     21  C   UNL     1      45.704 130.445  17.032  1.00  0.00     0.172 A 
ATOM     22  C   UNL     1      46.081 132.098  15.316  1.00  0.00     0.056 A 
ATOM     23  C   UNL     1      46.452 129.481  16.361  1.00  0.00     0.056 A 
ATOM     24  C   UNL     1      46.847 131.150  14.611  1.00  0.00     0.005 A 
ATOM     25  C   UNL     1      47.032 129.848  15.131  1.00  0.00     0.005 A 
ATOM     26  H   UNL     1      44.410 133.392  17.242  1.00  0.00     0.312 HD
ATOM     27  H   UNL     1      44.980 129.487  18.810  1.00  0.00     0.312 HD
ENDBRANCH  13  17
ENDBRANCH  10  11
BRANCH  10  28
ATOM     28  N   UNL     1      46.274 131.195  20.611  1.00  0.00    -0.240 NA
ATOM     29  H   UNL     1      46.828 131.680  21.352  1.00  0.00     0.144 HD
ATOM     30  H   UNL     1      46.076 131.879  19.845  1.00  0.00     0.144 HD
ENDBRANCH  10  28
ENDBRANCH   1  10
TORSDOF 8
ENDMDL
MODEL 4
REMARK VINA RESULT:      -7.4      1.482      2.114
REMARK SMILES C=C(/C=C(\O)N(N)c1ccccc1-c1[nH]c2ccccc2[nH+]1)C(C)=O
REMARK SMILES IDX 4 1 5 2 3 4 2 5 1 6 23 7 25 8 24 9 6 10 8 11 9 12 13 13
REMARK SMILES IDX 10 14 12 15 11 16 14 17 15 18 22 19 16 20 21 21 17 22 20 23
REMARK SMILES IDX 18 24 19 25 7 28
REMARK H PARENT 5 3 15 26 22 27 7 29 7 30
ROOT
ATOM      1  C   UNL     1      45.237 129.641  21.229  1.00  0.00     0.206 C 
ENDROOT
BRANCH   1   2
ATOM      2  O   UNL     1      46.235 128.886  20.609  1.00  0.00    -0.494 OA
ATOM      3  H   UNL     1      46.073 128.386  19.745  1.00  0.00     0.295 HD
ENDBRANCH   1   2
BRANCH   1   4
ATOM      4  C   UNL     1      44.377 129.039  22.069  1.00  0.00     0.079 C 
BRANCH   4   5
ATOM      5  C   UNL     1      44.757 128.565  23.419  1.00  0.00     0.015 C 
ATOM      6  C   UNL     1      44.768 129.454  24.420  1.00  0.00     0.021 C 
BRANCH   5   7
ATOM      7  C   UNL     1      45.189 127.161  23.640  1.00  0.00     0.159 C 
ATOM      8  O   UNL     1      45.928 126.886  24.624  1.00  0.00    -0.295 OA
ATOM      9  C   UNL     1      44.739 126.042  22.748  1.00  0.00     0.093 C 
ENDBRANCH   5   7
ENDBRANCH   4   5
ENDBRANCH   1   4
BRANCH   1  10
ATOM     10  N   UNL     1      45.126 131.056  20.939  1.00  0.00    -0.248 N 
BRANCH  10  11
ATOM     11  C   UNL     1      43.858 131.692  20.676  1.00  0.00     0.076 A 
ATOM     12  C   UNL     1      43.076 132.112  21.766  1.00  0.00     0.029 A 
ATOM     13  C   UNL     1      43.365 131.879  19.357  1.00  0.00     0.089 A 
ATOM     14  C   UNL     1      41.812 132.669  21.561  1.00  0.00     0.002 A 
ATOM     15  C   UNL     1      42.083 132.422  19.171  1.00  0.00     0.019 A 
ATOM     16  C   UNL     1      41.313 132.815  20.268  1.00  0.00     0.001 A 
BRANCH  13  17
ATOM     17  C   UNL     1      44.163 131.527  18.164  1.00  0.00     0.287 A 
ATOM     18  N   UNL     1      43.775 131.819  16.896  1.00  0.00    -0.236 N 
ATOM     19  N   UNL     1      45.331 130.837  18.210  1.00  0.00    -0.236 N 
ATOM     20  C   UNL     1      44.730 131.271  16.128  1.00  0.00     0.172 A 
ATOM     21  C   UNL     1      45.669 130.679  16.921  1.00  0.00     0.172 A 
ATOM     22  C   UNL     1      44.807 131.236  14.738  1.00  0.00     0.056 A 
ATOM     23  C   UNL     1      46.767 130.007  16.390  1.00  0.00     0.056 A 
ATOM     24  C   UNL     1      45.907 130.568  14.165  1.00  0.00     0.005 A 
ATOM     25  C   UNL     1      46.882 129.956  14.987  1.00  0.00     0.005 A 
ATOM     26  H   UNL     1      42.910 132.315  16.585  1.00  0.00     0.312 HD
ATOM     27  H   UNL     1      45.848 130.494  19.051  1.00  0.00     0.312 HD
ENDBRANCH  13  17
ENDBRANCH  10  11
BRANCH  10  28
ATOM     28  N   UNL     1      46.281 131.857  20.894  1.00  0.00    -0.240 NA
ATOM     29  H   UNL     1      46.064 132.699  20.314  1.00  0.00     0.144 HD
ATOM     30  H   UNL     1      47.041 131.316  20.422  1.00  0.00     0.144 HD
ENDBRANCH  10  28
ENDBRANCH   1  10
TORSDOF 8
ENDMDL
MODEL 5
REMARK VINA RESULT:      -7.3      1.423      1.963
REMARK SMILES C=C(/C=C(\O)N(N)c1ccccc1-c1[nH]c2ccccc2[nH+]1)C(C)=O
REMARK SMILES IDX 4 1 5 2 3 4 2 5 1 6 23 7 25 8 24 9 6 10 8 11 9 12 13 13
REMARK SMILES IDX 10 14 12 15 11 16 14 17 15 18 22 19 16 20 21 21 17 22 20 23
REMARK SMILES IDX 18 24 19 25 7 28
REMARK H PARENT 5 3 15 26 22 27 7 29 7 30
ROOT
ATOM      1  C   UNL     1      45.178 129.747  21.495  1.00  0.00     0.206 C 
ENDROOT
BRANCH   1   2
ATOM      2  O   UNL     1      45.584 128.732  20.625  1.00  0.00    -0.494 OA
ATOM      3  H   UNL     1      44.932 128.244  20.026  1.00  0.00     0.295 HD
ENDBRANCH   1   2
BRANCH   1   4
ATOM      4  C   UNL     1      44.853 129.441  22.763  1.00  0.00     0.079 C 
BRANCH   4   5
ATOM      5  C   UNL     1      43.742 128.530  23.119  1.00  0.00     0.015 C 
ATOM      6  C   UNL     1      42.537 129.065  23.349  1.00  0.00     0.021 C 
BRANCH   5   7
ATOM      7  C   UNL     1      43.977 127.072  23.292  1.00  0.00     0.159 C 
ATOM      8  O   UNL     1      42.993 126.299  23.440  1.00  0.00    -0.295 OA
ATOM      9  C   UNL     1      45.354 126.480  23.255  1.00  0.00     0.093 C 
ENDBRANCH   5   7
ENDBRANCH   4   5
ENDBRANCH   1   4
BRANCH   1  10
ATOM     10  N   UNL     1      45.086 131.109  21.012  1.00  0.00    -0.248 N 
BRANCH  10  11
ATOM     11  C   UNL     1      43.821 131.759  20.769  1.00  0.00     0.076 A 
ATOM     12  C   UNL     1      43.082 132.227  21.869  1.00  0.00     0.029 A 
ATOM     13  C   UNL     1      43.289 131.912  19.461  1.00  0.00     0.089 A 
ATOM     14  C   UNL     1      41.821 132.798  21.686  1.00  0.00     0.002 A 
ATOM     15  C   UNL     1      42.011 132.470  19.298  1.00  0.00     0.019 A 
ATOM     16  C   UNL     1      41.283 132.912  20.405  1.00  0.00     0.001 A 
BRANCH  13  17
ATOM     17  C   UNL     1      44.042 131.509  18.256  1.00  0.00     0.287 A 
ATOM     18  N   UNL     1      45.139 130.709  18.295  1.00  0.00    -0.236 N 
ATOM     19  N   UNL     1      43.748 131.935  17.000  1.00  0.00    -0.236 N 
ATOM     20  C   UNL     1      45.549 130.655  17.018  1.00  0.00     0.172 A 
ATOM     21  C   UNL     1      44.710 131.394  16.237  1.00  0.00     0.172 A 
ATOM     22  C   UNL     1      46.663 130.001  16.494  1.00  0.00     0.056 A 
ATOM     23  C   UNL     1      44.910 131.536  14.866  1.00  0.00     0.056 A 
ATOM     24  C   UNL     1      46.895 130.121  15.110  1.00  0.00     0.005 A 
ATOM     25  C   UNL     1      46.023 130.885  14.300  1.00  0.00     0.005 A 
ATOM     26  H   UNL     1      45.589 130.272  19.130  1.00  0.00     0.312 HD
ATOM     27  H   UNL     1      42.962 132.551  16.693  1.00  0.00     0.312 HD
ENDBRANCH  13  17
ENDBRANCH  10  11
BRANCH  10  28
ATOM     28  N   UNL     1      46.258 131.843  20.753  1.00  0.00    -0.240 NA
ATOM     29  H   UNL     1      46.934 131.206  20.274  1.00  0.00     0.144 HD
ATOM     30  H   UNL     1      46.673 132.139  21.666  1.00  0.00     0.144 HD
ENDBRANCH  10  28
ENDBRANCH   1  10
TORSDOF 8
ENDMDL
MODEL 6
REMARK VINA RESULT:      -7.3      1.298      1.833
REMARK SMILES C=C(/C=C(\O)N(N)c1ccccc1-c1[nH]c2ccccc2[nH+]1)C(C)=O
REMARK SMILES IDX 4 1 5 2 3 4 2 5 1 6 23 7 25 8 24 9 6 10 8 11 9 12 13 13
REMARK SMILES IDX 10 14 12 15 11 16 14 17 15 18 22 19 16 20 21 21 17 22 20 23
REMARK SMILES IDX 18 24 19 25 7 28
REMARK H PARENT 5 3 15 26 22 27 7 29 7 30
ROOT
ATOM      1  C   UNL     1      45.672 130.136  20.560  1.00  0.00     0.206 C 
ENDROOT
BRANCH   1   2
ATOM      2  O   UNL     1      45.962 129.332  19.456  1.00  0.00    -0.494 OA
ATOM      3  H   UNL     1      46.706 129.556  18.808  1.00  0.00     0.295 HD
ENDBRANCH   1   2
BRANCH   1   4
ATOM      4  C   UNL     1      45.719 129.607  21.796  1.00  0.00     0.079 C 
BRANCH   4   5
ATOM      5  C   UNL     1      44.598 128.853  22.399  1.00  0.00     0.015 C 
ATOM      6  C   UNL     1      43.524 129.539  22.807  1.00  0.00     0.021 C 
BRANCH   5   7
ATOM      7  C   UNL     1      44.695 127.386  22.615  1.00  0.00     0.159 C 
ATOM      8  O   UNL     1      45.676 126.753  22.139  1.00  0.00    -0.295 OA
ATOM      9  C   UNL     1      43.679 126.632  23.421  1.00  0.00     0.093 C 
ENDBRANCH   5   7
ENDBRANCH   4   5
ENDBRANCH   1   4
BRANCH   1  10
ATOM     10  N   UNL     1      45.299 131.521  20.359  1.00  0.00    -0.248 N 
BRANCH  10  11
ATOM     11  C   UNL     1      43.972 131.910  19.948  1.00  0.00     0.076 A 
ATOM     12  C   UNL     1      43.063 132.344  20.927  1.00  0.00     0.029 A 
ATOM     13  C   UNL     1      43.551 131.840  18.593  1.00  0.00     0.089 A 
ATOM     14  C   UNL     1      41.748 132.664  20.584  1.00  0.00     0.002 A 
ATOM     15  C   UNL     1      42.218 132.146  18.270  1.00  0.00     0.019 A 
ATOM     16  C   UNL     1      41.324 132.557  19.260  1.00  0.00     0.001 A 
BRANCH  13  17
ATOM     17  C   UNL     1      44.473 131.462  17.502  1.00  0.00     0.287 A 
ATOM     18  N   UNL     1      45.164 132.368  16.763  1.00  0.00    -0.236 N 
ATOM     19  N   UNL     1      44.684 130.183  17.097  1.00  0.00    -0.236 N 
ATOM     20  C   UNL     1      45.810 131.622  15.854  1.00  0.00     0.172 A 
ATOM     21  C   UNL     1      45.521 130.303  16.056  1.00  0.00     0.172 A 
ATOM     22  C   UNL     1      46.635 132.047  14.815  1.00  0.00     0.056 A 
ATOM     23  C   UNL     1      46.037 129.301  15.239  1.00  0.00     0.056 A 
ATOM     24  C   UNL     1      47.178 131.059  13.970  1.00  0.00     0.005 A 
ATOM     25  C   UNL     1      46.880 129.692  14.182  1.00  0.00     0.005 A 
ATOM     26  H   UNL     1      45.159 133.409  16.850  1.00  0.00     0.312 HD
ATOM     27  H   UNL     1      44.281 129.304  17.493  1.00  0.00     0.312 HD
ENDBRANCH  13  17
ENDBRANCH  10  11
BRANCH  10  28
ATOM     28  N   UNL     1      46.249 132.540  20.554  1.00  0.00    -0.240 NA
ATOM     29  H   UNL     1      46.014 133.324  19.905  1.00  0.00     0.144 HD
ATOM     30  H   UNL     1      47.192 132.168  20.298  1.00  0.00     0.144 HD
ENDBRANCH  10  28
ENDBRANCH   1  10
TORSDOF 8
ENDMDL
MODEL 7
REMARK VINA RESULT:      -7.3      0.962      1.172
REMARK SMILES C=C(/C=C(\O)N(N)c1ccccc1-c1[nH]c2ccccc2[nH+]1)C(C)=O
REMARK SMILES IDX 4 1 5 2 3 4 2 5 1 6 23 7 25 8 24 9 6 10 8 11 9 12 13 13
REMARK SMILES IDX 10 14 12 15 11 16 14 17 15 18 22 19 16 20 21 21 17 22 20 23
REMARK SMILES IDX 18 24 19 25 7 28
REMARK H PARENT 5 3 15 26 22 27 7 29 7 30
ROOT
ATOM      1  C   UNL     1      45.705 131.527  21.156  1.00  0.00     0.206 C 
ENDROOT
BRANCH   1   2
ATOM      2  O   UNL     1      46.908 132.227  21.268  1.00  0.00    -0.494 OA
ATOM      3  H   UNL     1      47.114 132.819  22.063  1.00  0.00     0.295 HD
ENDBRANCH   1   2
BRANCH   1   4
ATOM      4  C   UNL     1      45.077 131.106  22.268  1.00  0.00     0.079 C 
BRANCH   4   5
ATOM      5  C   UNL     1      44.607 129.715  22.457  1.00  0.00     0.015 C 
ATOM      6  C   UNL     1      45.318 128.728  21.899  1.00  0.00     0.021 C 
BRANCH   5   7
ATOM      7  C   UNL     1      43.341 129.431  23.181  1.00  0.00     0.159 C 
ATOM      8  O   UNL     1      42.466 130.334  23.279  1.00  0.00    -0.295 OA
ATOM      9  C   UNL     1      43.047 128.083  23.768  1.00  0.00     0.093 C 
ENDBRANCH   5   7
ENDBRANCH   4   5
ENDBRANCH   1   4
BRANCH   1  10
ATOM     10  N   UNL     1      45.163 131.242  19.843  1.00  0.00    -0.248 N 
BRANCH  10  11
ATOM     11  C   UNL     1      43.881 131.743  19.412  1.00  0.00     0.076 A 
ATOM     12  C   UNL     1      42.970 132.190  20.383  1.00  0.00     0.029 A 
ATOM     13  C   UNL     1      43.503 131.769  18.043  1.00  0.00     0.089 A 
ATOM     14  C   UNL     1      41.692 132.618  20.016  1.00  0.00     0.002 A 
ATOM     15  C   UNL     1      42.206 132.183  17.694  1.00  0.00     0.019 A 
ATOM     16  C   UNL     1      41.308 132.606  18.676  1.00  0.00     0.001 A 
BRANCH  13  17
ATOM     17  C   UNL     1      44.434 131.382  16.963  1.00  0.00     0.287 A 
ATOM     18  N   UNL     1      44.667 130.092  16.607  1.00  0.00    -0.236 N 
ATOM     19  N   UNL     1      45.185 132.266  16.256  1.00  0.00    -0.236 N 
ATOM     20  C   UNL     1      45.612 130.182  15.658  1.00  0.00     0.172 A 
ATOM     21  C   UNL     1      45.924 131.493  15.446  1.00  0.00     0.172 A 
ATOM     22  C   UNL     1      46.251 129.150  14.974  1.00  0.00     0.056 A 
ATOM     23  C   UNL     1      46.897 131.881  14.529  1.00  0.00     0.056 A 
ATOM     24  C   UNL     1      47.239 129.506  14.035  1.00  0.00     0.005 A 
ATOM     25  C   UNL     1      47.560 130.866  13.814  1.00  0.00     0.005 A 
ATOM     26  H   UNL     1      44.244 129.226  17.009  1.00  0.00     0.312 HD
ATOM     27  H   UNL     1      45.198 133.308  16.329  1.00  0.00     0.312 HD
ENDBRANCH  13  17
ENDBRANCH  10  11
BRANCH  10  28
ATOM     28  N   UNL     1      45.889 130.440  18.943  1.00  0.00    -0.240 NA
ATOM     29  H   UNL     1      46.451 131.075  18.332  1.00  0.00     0.144 HD
ATOM     30  H   UNL     1      45.211 129.918  18.343  1.00  0.00     0.144 HD
ENDBRANCH  10  28
ENDBRANCH   1  10
TORSDOF 8
ENDMDL
MODEL 8
REMARK VINA RESULT:      -6.9      1.398      1.984
REMARK SMILES C=C(/C=C(\O)N(N)c1ccccc1-c1[nH]c2ccccc2[nH+]1)C(C)=O
REMARK SMILES IDX 4 1 5 2 3 4 2 5 1 6 23 7 25 8 24 9 6 10 8 11 9 12 13 13
REMARK SMILES IDX 10 14 12 15 11 16 14 17 15 18 22 19 16 20 21 21 17 22 20 23
REMARK SMILES IDX 18 24 19 25 7 28
REMARK H PARENT 5 3 15 26 22 27 7 29 7 30
ROOT
ATOM      1  C   UNL     1      45.481 130.102  20.807  1.00  0.00     0.206 C 
ENDROOT
BRANCH   1   2
ATOM      2  O   UNL     1      46.172 129.325  19.875  1.00  0.00    -0.494 OA
ATOM      3  H   UNL     1      46.601 129.728  19.052  1.00  0.00     0.295 HD
ENDBRANCH   1   2
BRANCH   1   4
ATOM      4  C   UNL     1      45.085 129.548  21.967  1.00  0.00     0.079 C 
BRANCH   4   5
ATOM      5  C   UNL     1      44.253 130.260  22.964  1.00  0.00     0.015 C 
ATOM      6  C   UNL     1      44.728 131.397  23.485  1.00  0.00     0.021 C 
BRANCH   5   7
ATOM      7  C   UNL     1      42.962 129.686  23.427  1.00  0.00     0.159 C 
ATOM      8  O   UNL     1      42.077 130.452  23.898  1.00  0.00    -0.295 OA
ATOM      9  C   UNL     1      42.658 128.222  23.316  1.00  0.00     0.093 C 
ENDBRANCH   5   7
ENDBRANCH   4   5
ENDBRANCH   1   4
BRANCH   1  10
ATOM     10  N   UNL     1      45.176 131.485  20.502  1.00  0.00    -0.248 N 
BRANCH  10  11
ATOM     11  C   UNL     1      43.874 131.906  20.047  1.00  0.00     0.076 A 
ATOM     12  C   UNL     1      42.935 132.341  20.998  1.00  0.00     0.029 A 
ATOM     13  C   UNL     1      43.503 131.866  18.676  1.00  0.00     0.089 A 
ATOM     14  C   UNL     1      41.640 132.691  20.611  1.00  0.00     0.002 A 
ATOM     15  C   UNL     1      42.190 132.202  18.308  1.00  0.00     0.019 A 
ATOM     16  C   UNL     1      41.266 132.613  19.271  1.00  0.00     0.001 A 
BRANCH  13  17
ATOM     17  C   UNL     1      44.459 131.488  17.615  1.00  0.00     0.287 A 
ATOM     18  N   UNL     1      45.053 132.390  16.792  1.00  0.00    -0.236 N 
ATOM     19  N   UNL     1      44.801 130.206  17.324  1.00  0.00    -0.236 N 
ATOM     20  C   UNL     1      45.772 131.635  15.946  1.00  0.00     0.172 A 
ATOM     21  C   UNL     1      45.622 130.318  16.268  1.00  0.00     0.172 A 
ATOM     22  C   UNL     1      46.549 132.048  14.866  1.00  0.00     0.056 A 
ATOM     23  C   UNL     1      46.238 129.304  15.540  1.00  0.00     0.056 A 
ATOM     24  C   UNL     1      47.191 131.050  14.108  1.00  0.00     0.005 A 
ATOM     25  C   UNL     1      47.036 129.684  14.444  1.00  0.00     0.005 A 
ATOM     26  H   UNL     1      44.940 133.428  16.785  1.00  0.00     0.312 HD
ATOM     27  H   UNL     1      44.491 129.329  17.801  1.00  0.00     0.312 HD
ENDBRANCH  13  17
ENDBRANCH  10  11
BRANCH  10  28
ATOM     28  N   UNL     1      46.172 132.469  20.635  1.00  0.00    -0.240 NA
ATOM     29  H   UNL     1      46.190 133.027  19.752  1.00  0.00     0.144 HD
ATOM     30  H   UNL     1      47.097 131.993  20.744  1.00  0.00     0.144 HD
ENDBRANCH  10  28
ENDBRANCH   1  10
TORSDOF 8
ENDMDL
MODEL 9
REMARK VINA RESULT:      -6.8      0.945      1.518
REMARK SMILES C=C(/C=C(\O)N(N)c1ccccc1-c1[nH]c2ccccc2[nH+]1)C(C)=O
REMARK SMILES IDX 4 1 5 2 3 4 2 5 1 6 23 7 25 8 24 9 6 10 8 11 9 12 13 13
REMARK SMILES IDX 10 14 12 15 11 16 14 17 15 18 22 19 16 20 21 21 17 22 20 23
REMARK SMILES IDX 18 24 19 25 7 28
REMARK H PARENT 5 3 15 26 22 27 7 29 7 30
ROOT
ATOM      1  C   UNL     1      45.809 131.825  21.129  1.00  0.00     0.206 C 
ENDROOT
BRANCH   1   2
ATOM      2  O   UNL     1      46.566 132.997  21.095  1.00  0.00    -0.494 OA
ATOM      3  H   UNL     1      47.431 133.064  20.574  1.00  0.00     0.295 HD
ENDBRANCH   1   2
BRANCH   1   4
ATOM      4  C   UNL     1      45.632 131.185  22.299  1.00  0.00     0.079 C 
BRANCH   4   5
ATOM      5  C   UNL     1      44.493 130.276  22.562  1.00  0.00     0.015 C 
ATOM      6  C   UNL     1      43.340 130.814  22.976  1.00  0.00     0.021 C 
BRANCH   5   7
ATOM      7  C   UNL     1      44.652 128.803  22.444  1.00  0.00     0.159 C 
ATOM      8  O   UNL     1      45.492 128.333  21.629  1.00  0.00    -0.295 OA
ATOM      9  C   UNL     1      43.871 127.849  23.297  1.00  0.00     0.093 C 
ENDBRANCH   5   7
ENDBRANCH   4   5
ENDBRANCH   1   4
BRANCH   1  10
ATOM     10  N   UNL     1      45.248 131.299  19.902  1.00  0.00    -0.248 N 
BRANCH  10  11
ATOM     11  C   UNL     1      43.978 131.743  19.381  1.00  0.00     0.076 A 
ATOM     12  C   UNL     1      43.001 132.198  20.283  1.00  0.00     0.029 A 
ATOM     13  C   UNL     1      43.676 131.707  17.994  1.00  0.00     0.089 A 
ATOM     14  C   UNL     1      41.734 132.571  19.831  1.00  0.00     0.002 A 
ATOM     15  C   UNL     1      42.390 132.067  17.559  1.00  0.00     0.019 A 
ATOM     16  C   UNL     1      41.426 132.498  18.473  1.00  0.00     0.001 A 
BRANCH  13  17
ATOM     17  C   UNL     1      44.678 131.309  16.983  1.00  0.00     0.287 A 
ATOM     18  N   UNL     1      45.419 132.202  16.277  1.00  0.00    -0.236 N 
ATOM     19  N   UNL     1      44.921 130.023  16.623  1.00  0.00    -0.236 N 
ATOM     20  C   UNL     1      46.133 131.439  15.434  1.00  0.00     0.172 A 
ATOM     21  C   UNL     1      45.833 130.124  15.643  1.00  0.00     0.172 A 
ATOM     22  C   UNL     1      47.031 131.845  14.450  1.00  0.00     0.056 A 
ATOM     23  C   UNL     1      46.411 129.106  14.889  1.00  0.00     0.056 A 
ATOM     24  C   UNL     1      47.638 130.842  13.670  1.00  0.00     0.005 A 
ATOM     25  C   UNL     1      47.329 129.479  13.889  1.00  0.00     0.005 A 
ATOM     26  H   UNL     1      45.405 133.245  16.340  1.00  0.00     0.312 HD
ATOM     27  H   UNL     1      44.493 129.151  17.007  1.00  0.00     0.312 HD
ENDBRANCH  13  17
ENDBRANCH  10  11
BRANCH  10  28
ATOM     28  N   UNL     1      45.941 130.311  19.179  1.00  0.00    -0.240 NA
ATOM     29  H   UNL     1      45.986 129.452  19.774  1.00  0.00     0.144 HD
ATOM     30  H   UNL     1      46.917 130.648  19.010  1.00  0.00     0.144 HD
ENDBRANCH  10  28
ENDBRANCH   1  10
TORSDOF 8
ENDMDL


