MODEL 1
REMARK VINA RESULT:      -6.4      0.000      0.000
REMARK SMILES N#CC1=CCCC[C@H]1OC(=O)c1cc(F)ccc1Nc1cc2ccccc2[n-]1
REMARK SMILES IDX 9 1 8 2 3 3 4 4 5 5 7 6 6 7 2 8 1 9 10 10 11 11 12 12 13 13
REMARK SMILES IDX 18 14 14 15 17 16 16 17 15 18 19 19 20 21 21 22 28 23 22 24
REMARK SMILES IDX 27 25 23 26 26 27 24 28 25 29
REMARK H PARENT 19 20
ROOT
ATOM      1  O   UNL     1      45.143 128.017  22.403  1.00  0.00    -0.453 OA
ENDROOT
BRANCH   1   2
ATOM      2  C   UNL     1      44.676 126.667  22.447  1.00  0.00     0.217 C 
ATOM      3  C   UNL     1      45.726 125.756  23.074  1.00  0.00     0.066 C 
ATOM      4  C   UNL     1      45.416 124.828  23.995  1.00  0.00    -0.008 C 
ATOM      5  C   UNL     1      44.042 124.691  24.588  1.00  0.00     0.029 C 
ATOM      6  C   UNL     1      43.346 126.661  23.222  1.00  0.00     0.051 C 
ATOM      7  C   UNL     1      42.966 125.248  23.657  1.00  0.00     0.008 C 
BRANCH   3   8
ATOM      8  C   UNL     1      47.073 125.775  22.560  1.00  0.00     0.098 C 
ATOM      9  N   UNL     1      48.153 125.791  22.147  1.00  0.00    -0.193 NA
ENDBRANCH   3   8
ENDBRANCH   1   2
BRANCH   1  10
ATOM     10  C   UNL     1      44.664 129.053  23.214  1.00  0.00     0.339 C 
ATOM     11  O   UNL     1      44.882 129.025  24.457  1.00  0.00    -0.246 OA
BRANCH  10  12
ATOM     12  C   UNL     1      43.924 130.198  22.617  1.00  0.00     0.066 A 
ATOM     13  C   UNL     1      42.811 130.722  23.305  1.00  0.00     0.055 A 
ATOM     14  C   UNL     1      44.315 130.811  21.393  1.00  0.00    -0.029 A 
ATOM     15  C   UNL     1      42.121 131.833  22.815  1.00  0.00     0.124 A 
ATOM     16  C   UNL     1      43.626 131.939  20.928  1.00  0.00     0.007 A 
ATOM     17  C   UNL     1      42.533 132.445  21.632  1.00  0.00     0.039 A 
ATOM     18  F   UNL     1      41.057 132.325  23.495  1.00  0.00    -0.207 F 
BRANCH  14  19
ATOM     19  N   UNL     1      45.411 130.321  20.608  1.00  0.00    -0.456 N 
ATOM     20  H   UNL     1      46.237 129.921  21.107  1.00  0.00     0.026 HD
BRANCH  19  21
ATOM     21  C   UNL     1      45.514 130.537  19.195  1.00  0.00    -0.060 A 
ATOM     22  C   UNL     1      44.976 131.623  18.507  1.00  0.00     0.007 A 
ATOM     23  N   UNL     1      46.100 129.640  18.366  1.00  0.00    -0.436 NA
ATOM     24  C   UNL     1      45.251 131.359  17.189  1.00  0.00    -0.023 A 
ATOM     25  C   UNL     1      45.925 130.166  17.140  1.00  0.00    -0.034 A 
ATOM     26  C   UNL     1      44.920 132.068  16.036  1.00  0.00     0.008 A 
ATOM     27  C   UNL     1      46.317 129.601  15.928  1.00  0.00     0.004 A 
ATOM     28  C   UNL     1      45.303 131.520  14.798  1.00  0.00     0.001 A 
ATOM     29  C   UNL     1      46.000 130.293  14.745  1.00  0.00     0.000 A 
ENDBRANCH  19  21
ENDBRANCH  14  19
ENDBRANCH  10  12
ENDBRANCH   1  10
TORSDOF 6
ENDMDL
MODEL 2
REMARK VINA RESULT:      -5.1      2.003      7.292
REMARK SMILES N#CC1=CCCC[C@H]1OC(=O)c1cc(F)ccc1Nc1cc2ccccc2[n-]1
REMARK SMILES IDX 9 1 8 2 3 3 4 4 5 5 7 6 6 7 2 8 1 9 10 10 11 11 12 12 13 13
REMARK SMILES IDX 18 14 14 15 17 16 16 17 15 18 19 19 20 21 21 22 28 23 22 24
REMARK SMILES IDX 27 25 23 26 26 27 24 28 25 29
REMARK H PARENT 19 20
ROOT
ATOM      1  O   UNL     1      45.640 129.882  19.556  1.00  0.00    -0.453 OA
ENDROOT
BRANCH   1   2
ATOM      2  C   UNL     1      45.237 130.048  18.195  1.00  0.00     0.217 C 
ATOM      3  C   UNL     1      44.506 131.373  18.009  1.00  0.00     0.066 C 
ATOM      4  C   UNL     1      44.760 132.197  16.978  1.00  0.00    -0.008 C 
ATOM      5  C   UNL     1      45.870 131.957  15.994  1.00  0.00     0.029 C 
ATOM      6  C   UNL     1      46.499 129.938  17.321  1.00  0.00     0.051 C 
ATOM      7  C   UNL     1      46.247 130.478  15.915  1.00  0.00     0.008 C 
BRANCH   3   8
ATOM      8  C   UNL     1      43.397 131.694  18.874  1.00  0.00     0.098 C 
ATOM      9  N   UNL     1      42.508 131.950  19.568  1.00  0.00    -0.193 NA
ENDBRANCH   3   8
ENDBRANCH   1   2
BRANCH   1  10
ATOM     10  C   UNL     1      45.527 130.864  20.547  1.00  0.00     0.339 C 
ATOM     11  O   UNL     1      46.022 132.009  20.350  1.00  0.00    -0.246 OA
BRANCH  10  12
ATOM     12  C   UNL     1      44.806 130.577  21.817  1.00  0.00     0.066 A 
ATOM     13  C   UNL     1      44.180 131.640  22.499  1.00  0.00     0.055 A 
ATOM     14  C   UNL     1      44.693 129.264  22.355  1.00  0.00    -0.029 A 
ATOM     15  C   UNL     1      43.442 131.410  23.663  1.00  0.00     0.124 A 
ATOM     16  C   UNL     1      43.929 129.049  23.510  1.00  0.00     0.007 A 
ATOM     17  C   UNL     1      43.311 130.116  24.163  1.00  0.00     0.039 A 
ATOM     18  F   UNL     1      42.843 132.446  24.300  1.00  0.00    -0.207 F 
BRANCH  14  19
ATOM     19  N   UNL     1      45.329 128.131  21.748  1.00  0.00    -0.456 N 
ATOM     20  H   UNL     1      45.659 128.218  20.761  1.00  0.00     0.026 HD
BRANCH  19  21
ATOM     21  C   UNL     1      45.350 126.833  22.356  1.00  0.00    -0.060 A 
ATOM     22  C   UNL     1      46.390 126.327  23.133  1.00  0.00     0.007 A 
ATOM     23  N   UNL     1      44.361 125.927  22.164  1.00  0.00    -0.436 NA
ATOM     24  C   UNL     1      46.004 125.041  23.418  1.00  0.00    -0.023 A 
ATOM     25  C   UNL     1      44.785 124.835  22.825  1.00  0.00    -0.034 A 
ATOM     26  C   UNL     1      46.661 124.035  24.125  1.00  0.00     0.008 A 
ATOM     27  C   UNL     1      44.138 123.603  22.901  1.00  0.00     0.004 A 
ATOM     28  C   UNL     1      46.030 122.781  24.218  1.00  0.00     0.001 A 
ATOM     29  C   UNL     1      44.774 122.567  23.609  1.00  0.00     0.000 A 
ENDBRANCH  19  21
ENDBRANCH  14  19
ENDBRANCH  10  12
ENDBRANCH   1  10
TORSDOF 6
ENDMDL
MODEL 3
REMARK VINA RESULT:      -5.1      2.357      7.437
REMARK SMILES N#CC1=CCCC[C@H]1OC(=O)c1cc(F)ccc1Nc1cc2ccccc2[n-]1
REMARK SMILES IDX 9 1 8 2 3 3 4 4 5 5 7 6 6 7 2 8 1 9 10 10 11 11 12 12 13 13
REMARK SMILES IDX 18 14 14 15 17 16 16 17 15 18 19 19 20 21 21 22 28 23 22 24
REMARK SMILES IDX 27 25 23 26 26 27 24 28 25 29
REMARK H PARENT 19 20
ROOT
ATOM      1  O   UNL     1      44.359 130.290  17.041  1.00  0.00    -0.453 OA
ENDROOT
BRANCH   1   2
ATOM      2  C   UNL     1      45.044 129.880  15.855  1.00  0.00     0.217 C 
ATOM      3  C   UNL     1      44.964 130.964  14.786  1.00  0.00     0.066 C 
ATOM      4  C   UNL     1      46.030 131.338  14.059  1.00  0.00    -0.008 C 
ATOM      5  C   UNL     1      47.418 130.825  14.319  1.00  0.00     0.029 C 
ATOM      6  C   UNL     1      46.492 129.541  16.249  1.00  0.00     0.051 C 
ATOM      7  C   UNL     1      47.397 129.467  15.022  1.00  0.00     0.008 C 
BRANCH   3   8
ATOM      8  C   UNL     1      43.676 131.506  14.427  1.00  0.00     0.098 C 
ATOM      9  N   UNL     1      42.643 131.939  14.138  1.00  0.00    -0.193 NA
ENDBRANCH   3   8
ENDBRANCH   1   2
BRANCH   1  10
ATOM     10  C   UNL     1      44.976 130.860  18.161  1.00  0.00     0.339 C 
ATOM     11  O   UNL     1      46.235 130.953  18.201  1.00  0.00    -0.246 OA
BRANCH  10  12
ATOM     12  C   UNL     1      44.158 131.379  19.291  1.00  0.00     0.066 A 
ATOM     13  C   UNL     1      43.048 132.201  19.006  1.00  0.00     0.055 A 
ATOM     14  C   UNL     1      44.429 131.052  20.649  1.00  0.00    -0.029 A 
ATOM     15  C   UNL     1      42.216 132.663  20.028  1.00  0.00     0.124 A 
ATOM     16  C   UNL     1      43.569 131.505  21.659  1.00  0.00     0.007 A 
ATOM     17  C   UNL     1      42.472 132.310  21.351  1.00  0.00     0.039 A 
ATOM     18  F   UNL     1      41.150 133.447  19.731  1.00  0.00    -0.207 F 
BRANCH  14  19
ATOM     19  N   UNL     1      45.557 130.255  21.033  1.00  0.00    -0.456 N 
ATOM     20  H   UNL     1      46.510 130.578  20.753  1.00  0.00     0.026 HD
BRANCH  19  21
ATOM     21  C   UNL     1      45.427 128.945  21.602  1.00  0.00    -0.060 A 
ATOM     22  C   UNL     1      46.134 127.817  21.191  1.00  0.00     0.007 A 
ATOM     23  N   UNL     1      44.524 128.663  22.572  1.00  0.00    -0.436 NA
ATOM     24  C   UNL     1      45.621 126.800  21.955  1.00  0.00    -0.023 A 
ATOM     25  C   UNL     1      44.661 127.340  22.771  1.00  0.00    -0.034 A 
ATOM     26  C   UNL     1      45.909 125.436  21.957  1.00  0.00     0.008 A 
ATOM     27  C   UNL     1      43.924 126.549  23.650  1.00  0.00     0.004 A 
ATOM     28  C   UNL     1      45.179 124.613  22.834  1.00  0.00     0.001 A 
ATOM     29  C   UNL     1      44.192 125.168  23.678  1.00  0.00     0.000 A 
ENDBRANCH  19  21
ENDBRANCH  14  19
ENDBRANCH  10  12
ENDBRANCH   1  10
TORSDOF 6
ENDMDL
MODEL 4
REMARK VINA RESULT:      -5.0      2.113      7.242
REMARK SMILES N#CC1=CCCC[C@H]1OC(=O)c1cc(F)ccc1Nc1cc2ccccc2[n-]1
REMARK SMILES IDX 9 1 8 2 3 3 4 4 5 5 7 6 6 7 2 8 1 9 10 10 11 11 12 12 13 13
REMARK SMILES IDX 18 14 14 15 17 16 16 17 15 18 19 19 20 21 21 22 28 23 22 24
REMARK SMILES IDX 27 25 23 26 26 27 24 28 25 29
REMARK H PARENT 19 20
ROOT
ATOM      1  O   UNL     1      44.731 130.423  17.726  1.00  0.00    -0.453 OA
ENDROOT
BRANCH   1   2
ATOM      2  C   UNL     1      44.756 131.289  16.589  1.00  0.00     0.217 C 
ATOM      3  C   UNL     1      45.441 130.606  15.410  1.00  0.00     0.066 C 
ATOM      4  C   UNL     1      44.939 130.647  14.164  1.00  0.00    -0.008 C 
ATOM      5  C   UNL     1      43.600 131.247  13.842  1.00  0.00     0.029 C 
ATOM      6  C   UNL     1      43.304 131.692  16.280  1.00  0.00     0.051 C 
ATOM      7  C   UNL     1      43.181 132.287  14.880  1.00  0.00     0.008 C 
BRANCH   3   8
ATOM      8  C   UNL     1      46.749 130.026  15.594  1.00  0.00     0.098 C 
ATOM      9  N   UNL     1      47.797 129.560  15.742  1.00  0.00    -0.193 NA
ENDBRANCH   3   8
ENDBRANCH   1   2
BRANCH   1  10
ATOM     10  C   UNL     1      45.173 130.776  19.007  1.00  0.00     0.339 C 
ATOM     11  O   UNL     1      46.398 130.669  19.296  1.00  0.00    -0.246 OA
BRANCH  10  12
ATOM     12  C   UNL     1      44.215 131.298  20.019  1.00  0.00     0.066 A 
ATOM     13  C   UNL     1      43.213 132.199  19.605  1.00  0.00     0.055 A 
ATOM     14  C   UNL     1      44.248 130.899  21.385  1.00  0.00    -0.029 A 
ATOM     15  C   UNL     1      42.255 132.670  20.506  1.00  0.00     0.124 A 
ATOM     16  C   UNL     1      43.264 131.363  22.269  1.00  0.00     0.007 A 
ATOM     17  C   UNL     1      42.276 132.247  21.834  1.00  0.00     0.039 A 
ATOM     18  F   UNL     1      41.296 133.531  20.087  1.00  0.00    -0.207 F 
BRANCH  14  19
ATOM     19  N   UNL     1      45.253 130.016  21.900  1.00  0.00    -0.456 N 
ATOM     20  H   UNL     1      46.254 130.308  21.825  1.00  0.00     0.026 HD
BRANCH  19  21
ATOM     21  C   UNL     1      44.970 128.677  22.326  1.00  0.00    -0.060 A 
ATOM     22  C   UNL     1      45.734 127.555  22.010  1.00  0.00     0.007 A 
ATOM     23  N   UNL     1      43.859 128.362  23.036  1.00  0.00    -0.436 NA
ATOM     24  C   UNL     1      45.037 126.507  22.558  1.00  0.00    -0.023 A 
ATOM     25  C   UNL     1      43.922 127.025  23.165  1.00  0.00    -0.034 A 
ATOM     26  C   UNL     1      45.292 125.137  22.528  1.00  0.00     0.008 A 
ATOM     27  C   UNL     1      42.984 126.203  23.787  1.00  0.00     0.004 A 
ATOM     28  C   UNL     1      44.362 124.284  23.149  1.00  0.00     0.001 A 
ATOM     29  C   UNL     1      43.214 124.815  23.776  1.00  0.00     0.000 A 
ENDBRANCH  19  21
ENDBRANCH  14  19
ENDBRANCH  10  12
ENDBRANCH   1  10
TORSDOF 6
ENDMDL
MODEL 5
REMARK VINA RESULT:      -4.9      1.845      2.587
REMARK SMILES N#CC1=CCCC[C@H]1OC(=O)c1cc(F)ccc1Nc1cc2ccccc2[n-]1
REMARK SMILES IDX 9 1 8 2 3 3 4 4 5 5 7 6 6 7 2 8 1 9 10 10 11 11 12 12 13 13
REMARK SMILES IDX 18 14 14 15 17 16 16 17 15 18 19 19 20 21 21 22 28 23 22 24
REMARK SMILES IDX 27 25 23 26 26 27 24 28 25 29
REMARK H PARENT 19 20
ROOT
ATOM      1  O   UNL     1      44.876 126.776  22.359  1.00  0.00    -0.453 OA
ENDROOT
BRANCH   1   2
ATOM      2  C   UNL     1      44.796 125.407  22.762  1.00  0.00     0.217 C 
ATOM      3  C   UNL     1      43.378 124.876  22.582  1.00  0.00     0.066 C 
ATOM      4  C   UNL     1      43.122 123.678  22.031  1.00  0.00    -0.008 C 
ATOM      5  C   UNL     1      44.191 122.814  21.422  1.00  0.00     0.029 C 
ATOM      6  C   UNL     1      45.833 124.621  21.942  1.00  0.00     0.051 C 
ATOM      7  C   UNL     1      45.568 123.119  22.010  1.00  0.00     0.008 C 
BRANCH   3   8
ATOM      8  C   UNL     1      42.274 125.605  23.157  1.00  0.00     0.098 C 
ATOM      9  N   UNL     1      41.389 126.190  23.619  1.00  0.00    -0.193 NA
ENDBRANCH   3   8
ENDBRANCH   1   2
BRANCH   1  10
ATOM     10  C   UNL     1      45.021 127.858  23.235  1.00  0.00     0.339 C 
ATOM     11  O   UNL     1      45.819 127.771  24.210  1.00  0.00    -0.246 OA
BRANCH  10  12
ATOM     12  C   UNL     1      44.260 129.118  23.011  1.00  0.00     0.066 A 
ATOM     13  C   UNL     1      43.156 129.403  23.841  1.00  0.00     0.055 A 
ATOM     14  C   UNL     1      44.622 130.066  22.014  1.00  0.00    -0.029 A 
ATOM     15  C   UNL     1      42.449 130.600  23.708  1.00  0.00     0.124 A 
ATOM     16  C   UNL     1      43.915 131.272  21.911  1.00  0.00     0.007 A 
ATOM     17  C   UNL     1      42.832 131.536  22.750  1.00  0.00     0.039 A 
ATOM     18  F   UNL     1      41.394 130.857  24.521  1.00  0.00    -0.207 F 
BRANCH  14  19
ATOM     19  N   UNL     1      45.706 129.842  21.102  1.00  0.00    -0.456 N 
ATOM     20  H   UNL     1      46.633 129.561  21.494  1.00  0.00     0.026 HD
BRANCH  19  21
ATOM     21  C   UNL     1      45.634 130.178  19.711  1.00  0.00    -0.060 A 
ATOM     22  C   UNL     1      45.883 129.298  18.658  1.00  0.00     0.007 A 
ATOM     23  N   UNL     1      45.380 131.437  19.281  1.00  0.00    -0.436 NA
ATOM     24  C   UNL     1      45.777 130.078  17.534  1.00  0.00    -0.023 A 
ATOM     25  C   UNL     1      45.474 131.351  17.943  1.00  0.00    -0.034 A 
ATOM     26  C   UNL     1      45.965 129.758  16.191  1.00  0.00     0.008 A 
ATOM     27  C   UNL     1      45.336 132.395  17.029  1.00  0.00     0.004 A 
ATOM     28  C   UNL     1      45.831 130.793  15.246  1.00  0.00     0.001 A 
ATOM     29  C   UNL     1      45.517 132.105  15.664  1.00  0.00     0.000 A 
ENDBRANCH  19  21
ENDBRANCH  14  19
ENDBRANCH  10  12
ENDBRANCH   1  10
TORSDOF 6
ENDMDL
MODEL 6
REMARK VINA RESULT:      -4.4      4.377      7.498
REMARK SMILES N#CC1=CCCC[C@H]1OC(=O)c1cc(F)ccc1Nc1cc2ccccc2[n-]1
REMARK SMILES IDX 9 1 8 2 3 3 4 4 5 5 7 6 6 7 2 8 1 9 10 10 11 11 12 12 13 13
REMARK SMILES IDX 18 14 14 15 17 16 16 17 15 18 19 19 20 21 21 22 28 23 22 24
REMARK SMILES IDX 27 25 23 26 26 27 24 28 25 29
REMARK H PARENT 19 20
ROOT
ATOM      1  O   UNL     1      46.021 131.152  16.939  1.00  0.00    -0.453 OA
ENDROOT
BRANCH   1   2
ATOM      2  C   UNL     1      46.096 130.290  15.802  1.00  0.00     0.217 C 
ATOM      3  C   UNL     1      45.533 130.981  14.566  1.00  0.00     0.066 C 
ATOM      4  C   UNL     1      46.151 130.940  13.373  1.00  0.00    -0.008 C 
ATOM      5  C   UNL     1      47.510 130.328  13.178  1.00  0.00     0.029 C 
ATOM      6  C   UNL     1      47.568 129.874  15.632  1.00  0.00     0.051 C 
ATOM      7  C   UNL     1      47.819 129.281  14.248  1.00  0.00     0.008 C 
BRANCH   3   8
ATOM      8  C   UNL     1      44.219 131.572  14.625  1.00  0.00     0.098 C 
ATOM      9  N   UNL     1      43.165 132.047  14.672  1.00  0.00    -0.193 NA
ENDBRANCH   3   8
ENDBRANCH   1   2
BRANCH   1  10
ATOM     10  C   UNL     1      45.671 130.740  18.231  1.00  0.00     0.339 C 
ATOM     11  O   UNL     1      46.312 129.804  18.783  1.00  0.00    -0.246 OA
BRANCH  10  12
ATOM     12  C   UNL     1      44.566 131.416  18.965  1.00  0.00     0.066 A 
ATOM     13  C   UNL     1      43.333 131.611  18.309  1.00  0.00     0.055 A 
ATOM     14  C   UNL     1      44.691 131.844  20.316  1.00  0.00    -0.029 A 
ATOM     15  C   UNL     1      42.249 132.186  18.976  1.00  0.00     0.124 A 
ATOM     16  C   UNL     1      43.585 132.397  20.976  1.00  0.00     0.007 A 
ATOM     17  C   UNL     1      42.372 132.571  20.309  1.00  0.00     0.039 A 
ATOM     18  F   UNL     1      41.070 132.359  18.329  1.00  0.00    -0.207 F 
BRANCH  14  19
ATOM     19  N   UNL     1      45.918 131.719  21.048  1.00  0.00    -0.456 N 
ATOM     20  H   UNL     1      46.125 130.809  21.516  1.00  0.00     0.026 HD
BRANCH  19  21
ATOM     21  C   UNL     1      46.770 132.836  21.334  1.00  0.00    -0.060 A 
ATOM     22  C   UNL     1      46.664 134.098  20.752  1.00  0.00     0.007 A 
ATOM     23  N   UNL     1      47.832 132.741  22.171  1.00  0.00    -0.436 NA
ATOM     24  C   UNL     1      47.728 134.797  21.265  1.00  0.00    -0.023 A 
ATOM     25  C   UNL     1      48.405 133.956  22.111  1.00  0.00    -0.034 A 
ATOM     26  C   UNL     1      48.161 136.097  21.013  1.00  0.00     0.008 A 
ATOM     27  C   UNL     1      49.565 134.364  22.766  1.00  0.00     0.004 A 
ATOM     28  C   UNL     1      49.330 136.535  21.661  1.00  0.00     0.001 A 
ATOM     29  C   UNL     1      50.028 135.672  22.535  1.00  0.00     0.000 A 
ENDBRANCH  19  21
ENDBRANCH  14  19
ENDBRANCH  10  12
ENDBRANCH   1  10
TORSDOF 6
ENDMDL
MODEL 7
REMARK VINA RESULT:      -4.1      2.389      3.217
REMARK SMILES N#CC1=CCCC[C@H]1OC(=O)c1cc(F)ccc1Nc1cc2ccccc2[n-]1
REMARK SMILES IDX 9 1 8 2 3 3 4 4 5 5 7 6 6 7 2 8 1 9 10 10 11 11 12 12 13 13
REMARK SMILES IDX 18 14 14 15 17 16 16 17 15 18 19 19 20 21 21 22 28 23 22 24
REMARK SMILES IDX 27 25 23 26 26 27 24 28 25 29
REMARK H PARENT 19 20
ROOT
ATOM      1  O   UNL     1      43.871 129.281  22.690  1.00  0.00    -0.453 OA
ENDROOT
BRANCH   1   2
ATOM      2  C   UNL     1      44.140 128.108  23.461  1.00  0.00     0.217 C 
ATOM      3  C   UNL     1      42.952 127.154  23.419  1.00  0.00     0.066 C 
ATOM      4  C   UNL     1      43.096 125.832  23.223  1.00  0.00    -0.008 C 
ATOM      5  C   UNL     1      44.416 125.194  22.896  1.00  0.00     0.029 C 
ATOM      6  C   UNL     1      45.429 127.475  22.908  1.00  0.00     0.051 C 
ATOM      7  C   UNL     1      45.591 126.037  23.392  1.00  0.00     0.008 C 
BRANCH   3   8
ATOM      8  C   UNL     1      41.638 127.649  23.752  1.00  0.00     0.098 C 
ATOM      9  N   UNL     1      40.585 128.046  24.017  1.00  0.00    -0.193 NA
ENDBRANCH   3   8
ENDBRANCH   1   2
BRANCH   1  10
ATOM     10  C   UNL     1      43.878 130.587  23.196  1.00  0.00     0.339 C 
ATOM     11  O   UNL     1      43.072 130.905  24.115  1.00  0.00    -0.246 OA
BRANCH  10  12
ATOM     12  C   UNL     1      44.845 131.592  22.677  1.00  0.00     0.066 A 
ATOM     13  C   UNL     1      45.506 132.436  23.594  1.00  0.00     0.055 A 
ATOM     14  C   UNL     1      45.156 131.716  21.295  1.00  0.00    -0.029 A 
ATOM     15  C   UNL     1      46.465 133.354  23.161  1.00  0.00     0.124 A 
ATOM     16  C   UNL     1      46.138 132.626  20.881  1.00  0.00     0.007 A 
ATOM     17  C   UNL     1      46.786 133.444  21.808  1.00  0.00     0.039 A 
ATOM     18  F   UNL     1      47.094 134.152  24.059  1.00  0.00    -0.207 F 
BRANCH  14  19
ATOM     19  N   UNL     1      44.505 130.926  20.290  1.00  0.00    -0.456 N 
ATOM     20  H   UNL     1      43.778 130.241  20.594  1.00  0.00     0.026 HD
BRANCH  19  21
ATOM     21  C   UNL     1      44.943 130.887  18.926  1.00  0.00    -0.060 A 
ATOM     22  C   UNL     1      45.783 129.918  18.379  1.00  0.00     0.007 A 
ATOM     23  N   UNL     1      44.628 131.858  18.035  1.00  0.00    -0.436 NA
ATOM     24  C   UNL     1      45.987 130.337  17.089  1.00  0.00    -0.023 A 
ATOM     25  C   UNL     1      45.281 131.500  16.916  1.00  0.00    -0.034 A 
ATOM     26  C   UNL     1      46.774 129.793  16.075  1.00  0.00     0.008 A 
ATOM     27  C   UNL     1      45.314 132.198  15.710  1.00  0.00     0.004 A 
ATOM     28  C   UNL     1      46.825 130.478  14.847  1.00  0.00     0.001 A 
ATOM     29  C   UNL     1      46.097 131.674  14.666  1.00  0.00     0.000 A 
ENDBRANCH  19  21
ENDBRANCH  14  19
ENDBRANCH  10  12
ENDBRANCH   1  10
TORSDOF 6
ENDMDL
MODEL 8
REMARK VINA RESULT:      -3.7      2.142      7.236
REMARK SMILES N#CC1=CCCC[C@H]1OC(=O)c1cc(F)ccc1Nc1cc2ccccc2[n-]1
REMARK SMILES IDX 9 1 8 2 3 3 4 4 5 5 7 6 6 7 2 8 1 9 10 10 11 11 12 12 13 13
REMARK SMILES IDX 18 14 14 15 17 16 16 17 15 18 19 19 20 21 21 22 28 23 22 24
REMARK SMILES IDX 27 25 23 26 26 27 24 28 25 29
REMARK H PARENT 19 20
ROOT
ATOM      1  O   UNL     1      45.109 130.149  18.084  1.00  0.00    -0.453 OA
ENDROOT
BRANCH   1   2
ATOM      2  C   UNL     1      45.764 130.635  16.911  1.00  0.00     0.217 C 
ATOM      3  C   UNL     1      45.155 130.013  15.659  1.00  0.00     0.066 C 
ATOM      4  C   UNL     1      44.857 130.737  14.567  1.00  0.00    -0.008 C 
ATOM      5  C   UNL     1      44.969 132.235  14.524  1.00  0.00     0.029 C 
ATOM      6  C   UNL     1      45.658 132.170  16.922  1.00  0.00     0.051 C 
ATOM      7  C   UNL     1      45.975 132.757  15.550  1.00  0.00     0.008 C 
BRANCH   3   8
ATOM      8  C   UNL     1      45.033 128.578  15.573  1.00  0.00     0.098 C 
ATOM      9  N   UNL     1      44.934 127.428  15.503  1.00  0.00    -0.193 NA
ENDBRANCH   3   8
ENDBRANCH   1   2
BRANCH   1  10
ATOM     10  C   UNL     1      45.375 130.588  19.387  1.00  0.00     0.339 C 
ATOM     11  O   UNL     1      46.545 130.491  19.851  1.00  0.00    -0.246 OA
BRANCH  10  12
ATOM     12  C   UNL     1      44.296 131.191  20.216  1.00  0.00     0.066 A 
ATOM     13  C   UNL     1      43.383 132.075  19.605  1.00  0.00     0.055 A 
ATOM     14  C   UNL     1      44.125 130.885  21.595  1.00  0.00    -0.029 A 
ATOM     15  C   UNL     1      42.319 132.619  20.327  1.00  0.00     0.124 A 
ATOM     16  C   UNL     1      43.038 131.421  22.297  1.00  0.00     0.007 A 
ATOM     17  C   UNL     1      42.142 132.287  21.669  1.00  0.00     0.039 A 
ATOM     18  F   UNL     1      41.449 133.463  19.719  1.00  0.00    -0.207 F 
BRANCH  14  19
ATOM     19  N   UNL     1      45.028 130.025  22.305  1.00  0.00    -0.456 N 
ATOM     20  H   UNL     1      46.010 130.350  22.450  1.00  0.00     0.026 HD
BRANCH  19  21
ATOM     21  C   UNL     1      44.706 128.671  22.645  1.00  0.00    -0.060 A 
ATOM     22  C   UNL     1      45.393 127.545  22.196  1.00  0.00     0.007 A 
ATOM     23  N   UNL     1      43.629 128.350  23.402  1.00  0.00    -0.436 NA
ATOM     24  C   UNL     1      44.683 126.488  22.707  1.00  0.00    -0.023 A 
ATOM     25  C   UNL     1      43.634 127.005  23.424  1.00  0.00    -0.034 A 
ATOM     26  C   UNL     1      44.868 125.115  22.556  1.00  0.00     0.008 A 
ATOM     27  C   UNL     1      42.698 126.178  24.043  1.00  0.00     0.004 A 
ATOM     28  C   UNL     1      43.938 124.257  23.171  1.00  0.00     0.001 A 
ATOM     29  C   UNL     1      42.859 124.787  23.912  1.00  0.00     0.000 A 
ENDBRANCH  19  21
ENDBRANCH  14  19
ENDBRANCH  10  12
ENDBRANCH   1  10
TORSDOF 6
ENDMDL
MODEL 9
REMARK VINA RESULT:      -3.5      3.816      5.287
REMARK SMILES N#CC1=CCCC[C@H]1OC(=O)c1cc(F)ccc1Nc1cc2ccccc2[n-]1
REMARK SMILES IDX 9 1 8 2 3 3 4 4 5 5 7 6 6 7 2 8 1 9 10 10 11 11 12 12 13 13
REMARK SMILES IDX 18 14 14 15 17 16 16 17 15 18 19 19 20 21 21 22 28 23 22 24
REMARK SMILES IDX 27 25 23 26 26 27 24 28 25 29
REMARK H PARENT 19 20
ROOT
ATOM      1  O   UNL     1      46.264 132.240  21.494  1.00  0.00    -0.453 OA
ENDROOT
BRANCH   1   2
ATOM      2  C   UNL     1      46.691 133.501  22.015  1.00  0.00     0.217 C 
ATOM      3  C   UNL     1      46.474 133.558  23.523  1.00  0.00     0.066 C 
ATOM      4  C   UNL     1      47.406 134.036  24.366  1.00  0.00    -0.008 C 
ATOM      5  C   UNL     1      48.786 134.429  23.922  1.00  0.00     0.029 C 
ATOM      6  C   UNL     1      48.165 133.692  21.619  1.00  0.00     0.051 C 
ATOM      7  C   UNL     1      48.819 134.801  22.439  1.00  0.00     0.008 C 
BRANCH   3   8
ATOM      8  C   UNL     1      45.176 133.238  24.062  1.00  0.00     0.098 C 
ATOM      9  N   UNL     1      44.134 132.979  24.493  1.00  0.00    -0.193 NA
ENDBRANCH   3   8
ENDBRANCH   1   2
BRANCH   1  10
ATOM     10  C   UNL     1      44.991 131.689  21.681  1.00  0.00     0.339 C 
ATOM     11  O   UNL     1      44.730 131.065  22.747  1.00  0.00    -0.246 OA
BRANCH  10  12
ATOM     12  C   UNL     1      43.936 131.857  20.643  1.00  0.00     0.066 A 
ATOM     13  C   UNL     1      42.753 132.546  20.982  1.00  0.00     0.055 A 
ATOM     14  C   UNL     1      44.086 131.379  19.312  1.00  0.00    -0.029 A 
ATOM     15  C   UNL     1      41.761 132.780  20.027  1.00  0.00     0.124 A 
ATOM     16  C   UNL     1      43.092 131.644  18.361  1.00  0.00     0.007 A 
ATOM     17  C   UNL     1      41.933 132.336  18.717  1.00  0.00     0.039 A 
ATOM     18  F   UNL     1      40.634 133.450  20.371  1.00  0.00    -0.207 F 
BRANCH  14  19
ATOM     19  N   UNL     1      45.239 130.636  18.891  1.00  0.00    -0.456 N 
ATOM     20  H   UNL     1      45.816 130.162  19.621  1.00  0.00     0.026 HD
BRANCH  19  21
ATOM     21  C   UNL     1      45.746 130.681  17.551  1.00  0.00    -0.060 A 
ATOM     22  C   UNL     1      45.676 131.783  16.701  1.00  0.00     0.007 A 
ATOM     23  N   UNL     1      46.294 129.598  16.947  1.00  0.00    -0.436 NA
ATOM     24  C   UNL     1      46.206 131.333  15.519  1.00  0.00    -0.023 A 
ATOM     25  C   UNL     1      46.567 130.023  15.701  1.00  0.00    -0.034 A 
ATOM     26  C   UNL     1      46.358 131.977  14.292  1.00  0.00     0.008 A 
ATOM     27  C   UNL     1      47.108 129.267  14.663  1.00  0.00     0.004 A 
ATOM     28  C   UNL     1      46.902 131.237  13.226  1.00  0.00     0.001 A 
ATOM     29  C   UNL     1      47.277 129.888  13.412  1.00  0.00     0.000 A 
ENDBRANCH  19  21
ENDBRANCH  14  19
ENDBRANCH  10  12
ENDBRANCH   1  10
TORSDOF 6
ENDMDL


