REMARK SMILES Nc1cc(NC2CC(=O)C2)c(C=O)cc1-c1ccc2c(c1)[N-]C(=O)C2
REMARK SMILES IDX 2 1 3 2 4 3 11 4 14 5 15 6 1 7 16 10 17 11 21 12 18 13 20 14
REMARK SMILES IDX 19 15 22 16 25 17 23 18 24 19 5 20 6 22 7 23 10 24 8 25 9 26
REMARK SMILES IDX 12 27 13 28
REMARK H PARENT 1 8 1 9 5 21
ROOT
ATOM      1  C   UNL     1       0.631   0.424  -0.469  1.00  0.00     0.041 A 
ATOM      2  C   UNL     1      -0.197  -0.507  -1.107  1.00  0.00     0.052 A 
ATOM      3  C   UNL     1      -1.019  -1.379  -0.372  1.00  0.00     0.047 A 
ATOM      4  C   UNL     1      -0.996  -1.321   1.043  1.00  0.00     0.038 A 
ATOM      5  C   UNL     1      -0.172  -0.379   1.678  1.00  0.00     0.024 A 
ATOM      6  C   UNL     1       0.652   0.484   0.942  1.00  0.00     0.005 A 
ENDROOT
BRANCH   1   7
ATOM      7  N   UNL     1       1.397   1.336  -1.270  1.00  0.00    -0.398 N 
ATOM      8  H   UNL     1       1.412   1.243  -2.310  1.00  0.00     0.156 HD
ATOM      9  H   UNL     1       1.898   2.151  -0.855  1.00  0.00     0.156 HD
ENDBRANCH   1   7
BRANCH   6  10
ATOM     10  C   UNL     1       1.542   1.411   1.674  1.00  0.00    -0.018 A 
ATOM     11  C   UNL     1       2.945   1.344   1.497  1.00  0.00     0.009 A 
ATOM     12  C   UNL     1       0.999   2.338   2.587  1.00  0.00    -0.007 A 
ATOM     13  C   UNL     1       3.796   2.207   2.206  1.00  0.00     0.003 A 
ATOM     14  C   UNL     1       1.866   3.183   3.278  1.00  0.00    -0.130 A 
ATOM     15  C   UNL     1       3.229   3.121   3.092  1.00  0.00    -0.057 A 
ATOM     16  N   UNL     1       1.483   4.169   4.222  1.00  0.00    -0.626 NA
ATOM     17  C   UNL     1       3.920   4.123   3.949  1.00  0.00     0.089 C 
ATOM     18  C   UNL     1       2.730   4.734   4.623  1.00  0.00     0.059 C 
ATOM     19  O   UNL     1       2.809   5.663   5.470  1.00  0.00    -0.320 OA
ENDBRANCH   6  10
BRANCH   3  20
ATOM     20  N   UNL     1      -1.926  -2.255  -1.064  1.00  0.00    -0.381 N 
ATOM     21  H   UNL     1      -2.895  -2.364  -0.686  1.00  0.00     0.160 HD
BRANCH  20  22
ATOM     22  C   UNL     1      -1.606  -2.842  -2.369  1.00  0.00     0.094 C 
ATOM     23  C   UNL     1      -2.441  -4.048  -2.692  1.00  0.00     0.100 C 
ATOM     24  C   UNL     1      -2.315  -2.149  -3.494  1.00  0.00     0.100 C 
ATOM     25  C   UNL     1      -3.168  -3.359  -3.833  1.00  0.00     0.137 C 
ATOM     26  O   UNL     1      -4.033  -3.644  -4.644  1.00  0.00    -0.300 OA
ENDBRANCH  20  22
ENDBRANCH   3  20
BRANCH   4  27
ATOM     27  C   UNL     1      -1.770  -2.247   1.902  1.00  0.00     0.262 C 
ATOM     28  O   UNL     1      -2.224  -3.336   1.464  1.00  0.00    -0.298 OA
ENDBRANCH   4  27
TORSDOF 5


