REMARK SMILES Nc1cccc2c1CN(C1CCC(=O)NC1=O)C2=O
REMARK SMILES IDX 6 1 7 2 8 3 9 4 18 5 4 6 3 7 2 8 5 9 19 10 10 11 11 12 16 13
REMARK SMILES IDX 12 14 15 15 17 16 13 17 14 19 1 20
REMARK H PARENT 15 18 1 21 1 22
REMARK Flexibility Score: inf
ROOT
ATOM      1  C   UNL     1      -2.081   0.811   0.123  1.00  0.00     0.047 A 
ATOM      2  C   UNL     1      -1.717  -0.519  -0.093  1.00  0.00     0.007 A 
ATOM      3  C   UNL     1      -0.211  -0.546  -0.155  1.00  0.00     0.159 C 
ATOM      4  N   UNL     1       0.233   0.839   0.037  1.00  0.00    -0.322 N 
ATOM      5  C   UNL     1      -0.849   1.621   0.197  1.00  0.00     0.255 C 
ATOM      6  C   UNL     1      -4.396   0.164   0.104  1.00  0.00     0.003 A 
ATOM      7  C   UNL     1      -4.032  -1.153  -0.100  1.00  0.00     0.026 A 
ATOM      8  C   UNL     1      -2.688  -1.498  -0.203  1.00  0.00     0.037 A 
ATOM      9  C   UNL     1      -3.433   1.146   0.221  1.00  0.00     0.014 A 
ATOM     10  O   UNL     1      -0.818   2.822   0.377  1.00  0.00    -0.269 OA
ENDROOT
BRANCH   4  11
ATOM     11  C   UNL     1       1.625   1.296   0.052  1.00  0.00     0.176 C 
ATOM     12  C   UNL     1       2.254   0.974   1.412  1.00  0.00     0.045 C 
ATOM     13  C   UNL     1       2.398   0.589  -1.030  1.00  0.00     0.249 C 
ATOM     14  C   UNL     1       2.298  -0.548   1.582  1.00  0.00     0.103 C 
ATOM     15  N   UNL     1       3.035  -0.567  -0.789  1.00  0.00    -0.295 N 
ATOM     16  O   UNL     1       2.445   1.073  -2.140  1.00  0.00    -0.272 OA
ATOM     17  C   UNL     1       3.034  -1.155   0.417  1.00  0.00     0.226 C 
ATOM     18  H   UNL     1       3.515  -0.995  -1.515  1.00  0.00     0.172 HD
ATOM     19  O   UNL     1       3.638  -2.194   0.572  1.00  0.00    -0.275 OA
ENDBRANCH   4  11
BRANCH   8  20
ATOM     20  N   UNL     1      -2.320  -2.828  -0.419  1.00  0.00    -0.398 N 
ATOM     21  H   UNL     1      -1.382  -3.066  -0.492  1.00  0.00     0.156 HD
ATOM     22  H   UNL     1      -3.002  -3.513  -0.497  1.00  0.00     0.156 HD
ENDBRANCH   8  20
TORSDOF 2
