REMARK VINA RESULT:      -6.9      0.000      0.000
REMARK SMILES Nc1cccc2c1CN(C1CCC(=O)NC1=O)C2=O
REMARK SMILES IDX 6 1 7 2 8 3 9 4 18 5 4 6 3 7 2 8 5 9 19 10 10 11 11 12 16 13
REMARK SMILES IDX 12 14 15 15 17 16 13 17 14 19 1 20
REMARK H PARENT 15 18 1 21 1 22
REMARK Flexibility Score: inf
ROOT
ATOM      1  C   UNL     1      45.154 131.020  18.992  1.00  0.00     0.047 A 
ATOM      2  C   UNL     1      43.899 131.629  19.041  1.00  0.00     0.007 A 
ATOM      3  C   UNL     1      43.304 131.497  17.662  1.00  0.00     0.159 C 
ATOM      4  N   UNL     1      44.299 130.785  16.852  1.00  0.00    -0.322 N 
ATOM      5  C   UNL     1      45.366 130.511  17.622  1.00  0.00     0.255 C 
ATOM      6  C   UNL     1      45.492 131.564  21.308  1.00  0.00     0.003 A 
ATOM      7  C   UNL     1      44.245 132.158  21.357  1.00  0.00     0.026 A 
ATOM      8  C   UNL     1      43.445 132.195  20.219  1.00  0.00     0.037 A 
ATOM      9  C   UNL     1      45.949 130.992  20.139  1.00  0.00     0.014 A 
ATOM     10  O   UNL     1      46.363 129.928  17.246  1.00  0.00    -0.269 OA
ENDROOT
BRANCH   4  11
ATOM     11  C   UNL     1      44.154 130.431  15.438  1.00  0.00     0.176 C 
ATOM     12  C   UNL     1      44.291 131.693  14.579  1.00  0.00     0.045 C 
ATOM     13  C   UNL     1      45.231 129.451  15.052  1.00  0.00     0.249 C 
ATOM     14  C   UNL     1      45.711 132.244  14.742  1.00  0.00     0.103 C 
ATOM     15  N   UNL     1      46.412 129.868  14.571  1.00  0.00    -0.295 N 
ATOM     16  O   UNL     1      45.027 128.264  15.180  1.00  0.00    -0.272 OA
ATOM     17  C   UNL     1      46.704 131.166  14.395  1.00  0.00     0.226 C 
ATOM     18  H   UNL     1      47.083 129.206  14.342  1.00  0.00     0.172 HD
ATOM     19  O   UNL     1      47.786 131.476  13.946  1.00  0.00    -0.275 OA
ENDBRANCH   4  11
BRANCH   8  20
ATOM     20  N   UNL     1      42.188 132.803  20.265  1.00  0.00    -0.398 N 
ATOM     21  H   UNL     1      41.387 132.271  20.139  1.00  0.00     0.156 HD
ATOM     22  H   UNL     1      42.117 133.757  20.422  1.00  0.00     0.156 HD
ENDBRANCH   8  20
TORSDOF 2
