# created with PyMOL 2.5.0
@<TRIPOS>MOLECULE
LVY
32 34 1                 
SMALL
USER_CHARGES
@<TRIPOS>ATOM
1	   C	45.641	130.318	14.319	C.3	1	UNK0	0.000	
2	   C	46.394	131.517	13.733	C.3	1	UNK0	0.000	
3	   C	47.662	131.752	14.561	C.3	1	UNK0	0.000	
4	   C	48.474	130.485	14.591	C.2	1	UNK0	0.000	
5	   N	47.890	129.280	14.498	N.pl3	1	UNK0	0.000	
6	   C	46.564	129.129	14.363	C.2	1	UNK0	0.000	
7	   C	43.869	131.244	17.478	C.2	1	UNK0	0.000	
8	   C	45.133	131.021	18.025	C.2	1	UNK0	0.000	
9	   C	46.031	130.624	16.881	C.3	1	UNK0	0.000	
10	   N	45.193	130.640	15.677	N.pl3	1	UNK0	0.000	
11	   C	43.945	130.998	16.024	C.2	1	UNK0	0.000	
12	   C	43.033	131.778	19.667	C.2	1	UNK0	0.000	
13	   C	44.288	131.566	20.204	C.2	1	UNK0	0.000	
14	   C	45.343	131.182	19.383	C.2	1	UNK0	0.000	
15	   C	42.817	131.625	18.313	C.2	1	UNK0	0.000	
16	   O	43.012	131.104	15.253	O.2	1	UNK0	0.000	
17	   N	46.610	130.959	19.927	N.pl3	1	UNK0	0.000	
18	   O	46.100	128.013	14.275	O.2	1	UNK0	0.000	
19	   O	49.679	130.554	14.702	O.2	1	UNK0	0.000	
20	   H	44.779	130.088	13.695	 H	1	UNK0	0.000	
21	   H	46.667	131.308	12.698	 H	1	UNK0	0.000	
22	   H	45.761	132.403	13.773	 H	1	UNK0	0.000	
23	   H	48.250	132.551	14.109	 H	1	UNK0	0.000	
24	   H	47.385	132.032	15.578	 H	1	UNK0	0.000	
25	   H	48.449	128.488	14.530	 H	1	UNK0	0.000	
26	   H	41.834	131.799	17.899	 H	1	UNK0	0.000	
27	   H	46.847	131.339	16.778	 H	1	UNK0	0.000	
28	   H	46.429	129.623	17.047	 H	1	UNK0	0.000	
29	   H	42.217	132.076	20.310	 H	1	UNK0	0.000	
30	   H	44.449	131.689	21.265	 H	1	UNK0	0.000	
31	   H	47.344	130.690	19.352	 H	1	UNK0	0.000	
32	   H	46.756	131.071	20.879	 H	1	UNK0	0.000	
@<TRIPOS>BOND
1 1 2 1
2 1 6 1
3 1 10 1
4 1 20 1
5 2 3 1
6 2 21 1
7 2 22 1
8 3 4 1
9 3 23 1
10 3 24 1
11 4 5 1
12 4 19 2
13 5 6 1
14 5 25 1
15 6 18 2
16 7 8 1
17 7 11 1
18 7 15 2
19 8 9 1
20 8 14 2
21 9 10 1
22 9 27 1
23 9 28 1
24 10 11 1
25 11 16 2
26 12 13 2
27 12 15 1
28 12 29 1
29 13 14 1
30 13 30 1
31 14 17 1
32 15 26 1
33 17 31 1
34 17 32 1
@<TRIPOS>SUBSTRUCTURE
1	UNK0	1	GROUP	1 ****	UNK
