REMARK VINA RESULT:      -7.2      2.937      6.341
REMARK  3 active torsions:
REMARK  status: ('A' for Active; 'I' for Inactive)
REMARK       I    between atoms: N1_2  and  C3_4 
REMARK    1  A    between atoms: C3_4  and  O2_6 
REMARK    2  A    between atoms: O2_6  and  C4_7 
REMARK    3  A    between atoms: C13_16  and  N2_17 
ROOT
HETATM    1  C4  LIG X 999      44.217 131.493  20.493  1.00  0.00     0.108 A 
HETATM    2  C5  LIG X 999      43.015 131.992  19.990  1.00  0.00     0.040 A 
HETATM    3  C6  LIG X 999      42.777 132.023  18.620  1.00  0.00     0.015 A 
HETATM    4  C7  LIG X 999      43.755 131.578  17.722  1.00  0.00    -0.024 A 
HETATM    5  C8  LIG X 999      43.505 131.622  16.342  1.00  0.00     0.012 A 
HETATM    6  C9  LIG X 999      44.483 131.213  15.436  1.00  0.00     0.001 A 
HETATM    7  C10 LIG X 999      45.720 130.767  15.898  1.00  0.00     0.001 A 
HETATM    8  C11 LIG X 999      45.985 130.714  17.268  1.00  0.00     0.014 A 
HETATM    9  C12 LIG X 999      45.003 131.102  18.208  1.00  0.00     0.003 A 
HETATM   10  C13 LIG X 999      45.235 131.061  19.610  1.00  0.00     0.071 A 
ENDROOT
BRANCH   1  11
HETATM   11  O2  LIG X 999      44.376 131.442  21.884  1.00  0.00    -0.259 OA
BRANCH  11  12
HETATM   12  C3  LIG X 999      44.073 130.315  22.658  1.00  0.00     0.367 C 
HETATM   13  N1  LIG X 999      43.047 130.392  23.661  1.00  0.00    -0.336 N 
HETATM   14  C1  LIG X 999      42.342 131.659  23.870  1.00  0.00     0.154 C 
HETATM   15  C2  LIG X 999      42.723 129.210  24.465  1.00  0.00     0.154 C 
HETATM   16  O1  LIG X 999      44.687 129.228  22.463  1.00  0.00    -0.238 OA
ENDBRANCH  11  12
ENDBRANCH   1  11
BRANCH  10  17
HETATM   17  N2  LIG X 999      46.495 130.628  20.149  1.00  0.00    -0.396 N 
HETATM   18  H13 LIG X 999      46.706 129.625  20.339  1.00  0.00     0.156 HD
HETATM   19  H14 LIG X 999      47.216 131.323  20.447  1.00  0.00     0.156 HD
ENDBRANCH  10  17
TORSDOF 3
