REMARK VINA RESULT:      -5.6      9.073     10.051
REMARK  2 active torsions:
REMARK  status: ('A' for Active; 'I' for Inactive)
REMARK    1  A    between atoms: N1_1  and  C1_2 
REMARK    2  A    between atoms: C2_5  and  C3_6 
ROOT
HETATM    1  C3  LIG X 999      51.408 136.868  23.015  1.00  0.00     0.030 A 
HETATM    2  C4  LIG X 999      52.178 137.776  23.762  1.00  0.00     0.017 A 
HETATM    3  C5  LIG X 999      52.170 139.137  23.468  1.00  0.00     0.002 A 
HETATM    4  C6  LIG X 999      51.390 139.624  22.423  1.00  0.00     0.012 A 
HETATM    5  C7  LIG X 999      50.589 138.753  21.673  1.00  0.00    -0.025 A 
HETATM    6  C8  LIG X 999      49.788 139.262  20.638  1.00  0.00     0.012 A 
HETATM    7  C9  LIG X 999      48.957 138.412  19.909  1.00  0.00     0.001 A 
HETATM    8  C10 LIG X 999      48.907 137.053  20.214  1.00  0.00     0.001 A 
HETATM    9  C11 LIG X 999      49.700 136.529  21.238  1.00  0.00     0.013 A 
HETATM   10  C12 LIG X 999      50.575 137.361  21.971  1.00  0.00    -0.011 A 
ENDROOT
BRANCH   1  11
HETATM   11  C2  LIG X 999      51.541 135.427  23.337  1.00  0.00     0.203 A 
HETATM   12  N3  LIG X 999      52.649 134.697  23.075  1.00  0.00    -0.145 NA
HETATM   13  N2  LIG X 999      52.370 133.467  23.472  1.00  0.00    -0.240 N 
HETATM   14  C1  LIG X 999      51.117 133.483  23.949  1.00  0.00     0.240 A 
HETATM   15  H3  LIG X 999      53.019 132.652  23.411  1.00  0.00     0.193 HD
HETATM   16  O1  LIG X 999      50.595 134.681  23.868  1.00  0.00    -0.257 OA
BRANCH  14  17
HETATM   17  N1  LIG X 999      50.441 132.344  24.474  1.00  0.00    -0.364 N 
HETATM   18  H1  LIG X 999      49.938 132.408  25.386  1.00  0.00     0.159 HD
HETATM   19  H2  LIG X 999      50.445 131.440  23.952  1.00  0.00     0.159 HD
ENDBRANCH  14  17
ENDBRANCH   1  11
TORSDOF 2
