REMARK VINA RESULT:      -6.5      0.000      0.000
REMARK  4 active torsions:
REMARK  status: ('A' for Active; 'I' for Inactive)
REMARK    1  A    between atoms: O1_2  and  C1_3 
REMARK    2  A    between atoms: C1_3  and  O4_18 
REMARK       I    between atoms: N1_4  and  C2_5 
REMARK    3  A    between atoms: C2_5  and  C3_7 
REMARK    4  A    between atoms: O4_18  and  C13_19 
ROOT
HETATM    1  C3  LIG X 999      44.014 131.420  21.917  1.00  0.00     0.071 A 
HETATM    2  C4  LIG X 999      42.849 132.019  21.398  1.00  0.00     0.123 A 
HETATM    3  O3  LIG X 999      41.837 132.462  22.244  1.00  0.00    -0.191 OA
HETATM    4  C5  LIG X 999      42.685 132.159  20.016  1.00  0.00     0.053 A 
HETATM    5  C6  LIG X 999      43.666 131.688  19.134  1.00  0.00    -0.023 A 
HETATM    6  C7  LIG X 999      43.506 131.823  17.745  1.00  0.00     0.012 A 
HETATM    7  C8  LIG X 999      44.490 131.343  16.875  1.00  0.00     0.001 A 
HETATM    8  C9  LIG X 999      45.637 130.726  17.382  1.00  0.00     0.001 A 
HETATM    9  C10 LIG X 999      45.807 130.585  18.762  1.00  0.00     0.012 A 
HETATM   10  C11 LIG X 999      44.827 131.062  19.646  1.00  0.00    -0.025 A 
HETATM   11  C12 LIG X 999      44.989 130.928  21.034  1.00  0.00     0.032 A 
ENDROOT
BRANCH   1  12
HETATM   12  C2  LIG X 999      44.213 131.265  23.377  1.00  0.00     0.283 C 
HETATM   13  N1  LIG X 999      44.009 130.015  24.053  1.00  0.00    -0.162 NA
HETATM   14  C1  LIG X 999      43.099 129.132  23.759  1.00  0.00     0.289 C 
HETATM   15  O2  LIG X 999      44.609 132.255  24.048  1.00  0.00    -0.265 OA
BRANCH  14  16
HETATM   16  O1  LIG X 999      42.160 129.384  22.762  1.00  0.00    -0.325 OA
HETATM   17  H1  LIG X 999      41.396 130.027  22.924  1.00  0.00     0.221 HD
ENDBRANCH  14  16
BRANCH  14  18
HETATM   18  O4  LIG X 999      43.025 127.918  24.459  1.00  0.00    -0.294 OA
BRANCH  18  19
HETATM   19  C13 LIG X 999      43.436 126.642  23.956  1.00  0.00     0.224 C 
HETATM   20 CL1  LIG X 999      44.604 126.818  22.614  1.00  0.00    -0.095 Cl
HETATM   21  C14 LIG X 999      42.236 125.796  23.533  1.00  0.00     0.057 C 
ENDBRANCH  18  19
ENDBRANCH  14  18
ENDBRANCH   1  12
TORSDOF 4
