MODEL 1
REMARK VINA RESULT:      -3.2      0.000      0.000
REMARK  4 active torsions:
REMARK  status: ('A' for Active; 'I' for Inactive)
REMARK    1  A    between atoms: C5_5  and  O1_6 
REMARK    2  A    between atoms: O1_6  and  C6_7 
REMARK       I    between atoms: C6_7  and  N1_9 
REMARK    3  A    between atoms: C9_12  and  N2_13 
REMARK    4  A    between atoms: C11_18  and  N5_19 
ROOT
HETATM    1  N2  LIG X 999      48.118 124.201  20.804  1.00  0.00    -0.068 NA
HETATM    2  N3  LIG X 999      48.821 123.286  20.374  1.00  0.00    -0.162 NA
HETATM    3  N4  LIG X 999      49.527 122.375  19.942  1.00  0.00     0.068 N 
ENDROOT
BRANCH   1   4
HETATM    4  C9  LIG X 999      47.573 124.211  22.135  1.00  0.00     0.151 C 
HETATM    5  C5  LIG X 999      47.965 125.293  22.963  1.00  0.00     0.114 C 
HETATM    6  C4  LIG X 999      47.259 125.740  24.110  1.00  0.00     0.040 C 
HETATM    7  C3  LIG X 999      45.927 125.448  24.417  1.00  0.00     0.003 C 
HETATM    8  C2  LIG X 999      44.946 125.224  23.449  1.00  0.00     0.000 C 
HETATM    9  C1  LIG X 999      43.974 124.230  23.594  1.00  0.00     0.000 C 
HETATM   10  C13 LIG X 999      44.181 123.008  24.261  1.00  0.00     0.002 C 
HETATM   11  C12 LIG X 999      45.432 122.415  24.538  1.00  0.00     0.036 C 
HETATM   12  C11 LIG X 999      46.654 122.733  23.899  1.00  0.00     0.117 C 
HETATM   13  C10 LIG X 999      46.704 123.171  22.560  1.00  0.00     0.100 C 
HETATM   14 CL1  LIG X 999      45.618 122.413  21.388  1.00  0.00    -0.079 Cl
BRANCH   5  15
HETATM   15  O1  LIG X 999      49.132 125.974  22.583  1.00  0.00    -0.259 OA
BRANCH  15  16
HETATM   16  C6  LIG X 999      50.298 126.062  23.357  1.00  0.00     0.367 C 
HETATM   17  O2  LIG X 999      50.241 126.465  24.551  1.00  0.00    -0.238 OA
HETATM   18  N1  LIG X 999      51.555 125.636  22.803  1.00  0.00    -0.336 N 
HETATM   19  C7  LIG X 999      52.772 125.705  23.615  1.00  0.00     0.154 C 
HETATM   20  C8  LIG X 999      51.598 125.143  21.424  1.00  0.00     0.154 C 
ENDBRANCH  15  16
ENDBRANCH   5  15
BRANCH  12  21
HETATM   21  N5  LIG X 999      47.897 122.593  24.606  1.00  0.00    -0.071 NA
HETATM   22  N6  LIG X 999      48.978 122.484  24.025  1.00  0.00    -0.162 NA
HETATM   23  N7  LIG X 999      50.058 122.376  23.447  1.00  0.00     0.068 N 
ENDBRANCH  12  21
ENDBRANCH   1   4
TORSDOF 4
ENDMDL
MODEL 2
REMARK VINA RESULT:      -1.8      8.253      9.659
REMARK  4 active torsions:
REMARK  status: ('A' for Active; 'I' for Inactive)
REMARK    1  A    between atoms: C5_5  and  O1_6 
REMARK    2  A    between atoms: O1_6  and  C6_7 
REMARK       I    between atoms: C6_7  and  N1_9 
REMARK    3  A    between atoms: C9_12  and  N2_13 
REMARK    4  A    between atoms: C11_18  and  N5_19 
ROOT
HETATM    1  N2  LIG X 999      45.759 129.565  18.478  1.00  0.00    -0.068 NA
HETATM    2  N3  LIG X 999      46.369 129.769  17.428  1.00  0.00    -0.162 NA
HETATM    3  N4  LIG X 999      46.975 129.968  16.376  1.00  0.00     0.068 N 
ENDROOT
BRANCH   1   4
HETATM    4  C9  LIG X 999      45.269 130.625  19.318  1.00  0.00     0.151 C 
HETATM    5  C5  LIG X 999      44.587 131.680  18.660  1.00  0.00     0.114 C 
HETATM    6  C4  LIG X 999      43.678 132.576  19.281  1.00  0.00     0.040 C 
HETATM    7  C3  LIG X 999      43.042 132.377  20.509  1.00  0.00     0.003 C 
HETATM    8  C2  LIG X 999      42.707 131.116  21.007  1.00  0.00     0.000 C 
HETATM    9  C1  LIG X 999      42.857 130.787  22.357  1.00  0.00     0.000 C 
HETATM   10  C13 LIG X 999      43.862 131.308  23.194  1.00  0.00     0.002 C 
HETATM   11  C12 LIG X 999      45.071 131.900  22.771  1.00  0.00     0.036 C 
HETATM   12  C11 LIG X 999      45.655 131.756  21.489  1.00  0.00     0.117 C 
HETATM   13  C10 LIG X 999      45.488 130.586  20.721  1.00  0.00     0.100 C 
HETATM   14 CL1  LIG X 999      45.524 129.025  21.551  1.00  0.00    -0.079 Cl
BRANCH   5  15
HETATM   15  O1  LIG X 999      44.827 131.810  17.283  1.00  0.00    -0.259 OA
BRANCH  15  16
HETATM   16  C6  LIG X 999      43.841 131.747  16.287  1.00  0.00     0.367 C 
HETATM   17  O2  LIG X 999      42.619 131.809  16.596  1.00  0.00    -0.238 OA
HETATM   18  N1  LIG X 999      44.229 131.668  14.905  1.00  0.00    -0.336 N 
HETATM   19  C7  LIG X 999      43.204 131.624  13.860  1.00  0.00     0.154 C 
HETATM   20  C8  LIG X 999      45.653 131.626  14.563  1.00  0.00     0.154 C 
ENDBRANCH  15  16
ENDBRANCH   5  15
BRANCH  12  21
HETATM   21  N5  LIG X 999      46.462 132.810  20.941  1.00  0.00    -0.071 NA
HETATM   22  N6  LIG X 999      47.239 133.473  21.630  1.00  0.00    -0.162 NA
HETATM   23  N7  LIG X 999      48.014 134.137  22.317  1.00  0.00     0.068 N 
ENDBRANCH  12  21
ENDBRANCH   1   4
TORSDOF 4
ENDMDL
MODEL 3
REMARK VINA RESULT:      -1.8      6.015      7.518
REMARK  4 active torsions:
REMARK  status: ('A' for Active; 'I' for Inactive)
REMARK    1  A    between atoms: C5_5  and  O1_6 
REMARK    2  A    between atoms: O1_6  and  C6_7 
REMARK       I    between atoms: C6_7  and  N1_9 
REMARK    3  A    between atoms: C9_12  and  N2_13 
REMARK    4  A    between atoms: C11_18  and  N5_19 
ROOT
HETATM    1  N2  LIG X 999      45.774 129.829  20.446  1.00  0.00    -0.068 NA
HETATM    2  N3  LIG X 999      45.475 130.410  19.402  1.00  0.00    -0.162 NA
HETATM    3  N4  LIG X 999      45.179 130.986  18.356  1.00  0.00     0.068 N 
ENDROOT
BRANCH   1   4
HETATM    4  C9  LIG X 999      44.914 129.797  21.598  1.00  0.00     0.151 C 
HETATM    5  C5  LIG X 999      45.051 128.672  22.450  1.00  0.00     0.114 C 
HETATM    6  C4  LIG X 999      44.647 128.624  23.810  1.00  0.00     0.040 C 
HETATM    7  C3  LIG X 999      44.383 129.727  24.625  1.00  0.00     0.003 C 
HETATM    8  C2  LIG X 999      45.017 130.963  24.477  1.00  0.00     0.000 C 
HETATM    9  C1  LIG X 999      44.329 132.171  24.615  1.00  0.00     0.000 C 
HETATM   10  C13 LIG X 999      42.976 132.359  24.273  1.00  0.00     0.002 C 
HETATM   11  C12 LIG X 999      42.218 131.542  23.408  1.00  0.00     0.036 C 
HETATM   12  C11 LIG X 999      42.745 130.630  22.462  1.00  0.00     0.117 C 
HETATM   13  C10 LIG X 999      43.985 130.847  21.828  1.00  0.00     0.100 C 
HETATM   14 CL1  LIG X 999      44.398 132.494  21.335  1.00  0.00    -0.079 Cl
BRANCH   5  15
HETATM   15  O1  LIG X 999      45.660 127.539  21.888  1.00  0.00    -0.259 OA
BRANCH  15  16
HETATM   16  C6  LIG X 999      45.307 126.212  22.175  1.00  0.00     0.367 C 
HETATM   17  O2  LIG X 999      44.096 125.859  22.164  1.00  0.00    -0.238 OA
HETATM   18  N1  LIG X 999      46.336 125.239  22.425  1.00  0.00    -0.336 N 
HETATM   19  C7  LIG X 999      45.973 123.847  22.703  1.00  0.00     0.154 C 
HETATM   20  C8  LIG X 999      47.739 125.660  22.404  1.00  0.00     0.154 C 
ENDBRANCH  15  16
ENDBRANCH   5  15
BRANCH  12  21
HETATM   21  N5  LIG X 999      42.006 129.451  22.106  1.00  0.00    -0.071 NA
HETATM   22  N6  LIG X 999      41.482 128.721  22.949  1.00  0.00    -0.162 NA
HETATM   23  N7  LIG X 999      40.958 127.990  23.788  1.00  0.00     0.068 N 
ENDBRANCH  12  21
ENDBRANCH   1   4
TORSDOF 4
ENDMDL
MODEL 4
REMARK VINA RESULT:      -1.3      7.641      8.995
REMARK  4 active torsions:
REMARK  status: ('A' for Active; 'I' for Inactive)
REMARK    1  A    between atoms: C5_5  and  O1_6 
REMARK    2  A    between atoms: O1_6  and  C6_7 
REMARK       I    between atoms: C6_7  and  N1_9 
REMARK    3  A    between atoms: C9_12  and  N2_13 
REMARK    4  A    between atoms: C11_18  and  N5_19 
ROOT
HETATM    1  N2  LIG X 999      42.520 131.709  19.741  1.00  0.00    -0.068 NA
HETATM    2  N3  LIG X 999      41.753 132.643  19.976  1.00  0.00    -0.162 NA
HETATM    3  N4  LIG X 999      40.982 133.573  20.208  1.00  0.00     0.068 N 
ENDROOT
BRANCH   1   4
HETATM    4  C9  LIG X 999      43.637 131.381  20.587  1.00  0.00     0.151 C 
HETATM    5  C5  LIG X 999      44.924 131.650  20.055  1.00  0.00     0.114 C 
HETATM    6  C4  LIG X 999      46.106 131.812  20.823  1.00  0.00     0.040 C 
HETATM    7  C3  LIG X 999      46.162 132.083  22.192  1.00  0.00     0.003 C 
HETATM    8  C2  LIG X 999      45.182 132.808  22.874  1.00  0.00     0.000 C 
HETATM    9  C1  LIG X 999      44.747 132.446  24.152  1.00  0.00     0.000 C 
HETATM   10  C13 LIG X 999      44.684 131.121  24.625  1.00  0.00     0.002 C 
HETATM   11  C12 LIG X 999      44.659 129.957  23.829  1.00  0.00     0.036 C 
HETATM   12  C11 LIG X 999      44.329 129.905  22.453  1.00  0.00     0.117 C 
HETATM   13  C10 LIG X 999      43.421 130.812  21.870  1.00  0.00     0.100 C 
HETATM   14 CL1  LIG X 999      41.984 131.271  22.792  1.00  0.00    -0.079 Cl
BRANCH   5  15
HETATM   15  O1  LIG X 999      45.003 131.785  18.659  1.00  0.00    -0.259 OA
BRANCH  15  16
HETATM   16  C6  LIG X 999      45.392 130.769  17.775  1.00  0.00     0.367 C 
HETATM   17  O2  LIG X 999      46.218 129.888  18.142  1.00  0.00    -0.238 OA
HETATM   18  N1  LIG X 999      44.804 130.701  16.465  1.00  0.00    -0.336 N 
HETATM   19  C7  LIG X 999      45.191 129.628  15.545  1.00  0.00     0.154 C 
HETATM   20  C8  LIG X 999      43.825 131.715  16.066  1.00  0.00     0.154 C 
ENDBRANCH  15  16
ENDBRANCH   5  15
BRANCH  12  21
HETATM   21  N5  LIG X 999      44.906 128.896  21.609  1.00  0.00    -0.071 NA
HETATM   22  N6  LIG X 999      45.239 127.789  22.036  1.00  0.00    -0.162 NA
HETATM   23  N7  LIG X 999      45.572 126.684  22.461  1.00  0.00     0.068 N 
ENDBRANCH  12  21
ENDBRANCH   1   4
TORSDOF 4
ENDMDL
MODEL 5
REMARK VINA RESULT:      -1.0      7.691      9.166
REMARK  4 active torsions:
REMARK  status: ('A' for Active; 'I' for Inactive)
REMARK    1  A    between atoms: C5_5  and  O1_6 
REMARK    2  A    between atoms: O1_6  and  C6_7 
REMARK       I    between atoms: C6_7  and  N1_9 
REMARK    3  A    between atoms: C9_12  and  N2_13 
REMARK    4  A    between atoms: C11_18  and  N5_19 
ROOT
HETATM    1  N2  LIG X 999      45.973 132.860  21.077  1.00  0.00    -0.068 NA
HETATM    2  N3  LIG X 999      47.054 133.058  21.633  1.00  0.00    -0.162 NA
HETATM    3  N4  LIG X 999      48.132 133.261  22.189  1.00  0.00     0.068 N 
ENDROOT
BRANCH   1   4
HETATM    4  C9  LIG X 999      45.129 131.736  21.382  1.00  0.00     0.151 C 
HETATM    5  C5  LIG X 999      45.250 130.612  20.525  1.00  0.00     0.114 C 
HETATM    6  C4  LIG X 999      44.864 129.288  20.858  1.00  0.00     0.040 C 
HETATM    7  C3  LIG X 999      44.640 128.800  22.148  1.00  0.00     0.003 C 
HETATM    8  C2  LIG X 999      45.303 129.281  23.279  1.00  0.00     0.000 C 
HETATM    9  C1  LIG X 999      44.647 129.470  24.499  1.00  0.00     0.000 C 
HETATM   10  C13 LIG X 999      43.295 129.841  24.625  1.00  0.00     0.002 C 
HETATM   11  C12 LIG X 999      42.504 130.447  23.626  1.00  0.00     0.036 C 
HETATM   12  C11 LIG X 999      42.995 131.114  22.478  1.00  0.00     0.117 C 
HETATM   13  C10 LIG X 999      44.230 131.792  22.480  1.00  0.00     0.100 C 
HETATM   14 CL1  LIG X 999      44.678 132.715  23.921  1.00  0.00    -0.079 Cl
BRANCH   5  15
HETATM   15  O1  LIG X 999      45.822 130.851  19.266  1.00  0.00    -0.259 OA
BRANCH  15  16
HETATM   16  C6  LIG X 999      45.111 131.244  18.123  1.00  0.00     0.367 C 
HETATM   17  O2  LIG X 999      44.162 132.070  18.216  1.00  0.00    -0.238 OA
HETATM   18  N1  LIG X 999      45.505 130.747  16.832  1.00  0.00    -0.336 N 
HETATM   19  C7  LIG X 999      44.780 131.172  15.633  1.00  0.00     0.154 C 
HETATM   20  C8  LIG X 999      46.629 129.812  16.739  1.00  0.00     0.154 C 
ENDBRANCH  15  16
ENDBRANCH   5  15
BRANCH  12  21
HETATM   21  N5  LIG X 999      42.221 131.133  21.267  1.00  0.00    -0.071 NA
HETATM   22  N6  LIG X 999      41.973 132.176  20.659  1.00  0.00    -0.162 NA
HETATM   23  N7  LIG X 999      41.723 133.215  20.051  1.00  0.00     0.068 N 
ENDBRANCH  12  21
ENDBRANCH   1   4
TORSDOF 4
ENDMDL
MODEL 6
REMARK VINA RESULT:      -0.5      7.478      8.879
REMARK  4 active torsions:
REMARK  status: ('A' for Active; 'I' for Inactive)
REMARK    1  A    between atoms: C5_5  and  O1_6 
REMARK    2  A    between atoms: O1_6  and  C6_7 
REMARK       I    between atoms: C6_7  and  N1_9 
REMARK    3  A    between atoms: C9_12  and  N2_13 
REMARK    4  A    between atoms: C11_18  and  N5_19 
ROOT
HETATM    1  N2  LIG X 999      45.653 129.092  21.109  1.00  0.00    -0.068 NA
HETATM    2  N3  LIG X 999      45.387 127.992  21.596  1.00  0.00    -0.162 NA
HETATM    3  N4  LIG X 999      45.127 126.893  22.083  1.00  0.00     0.068 N 
ENDROOT
BRANCH   1   4
HETATM    4  C9  LIG X 999      45.002 130.307  21.518  1.00  0.00     0.151 C 
HETATM    5  C5  LIG X 999      44.547 131.154  20.475  1.00  0.00     0.114 C 
HETATM    6  C4  LIG X 999      43.541 132.146  20.610  1.00  0.00     0.040 C 
HETATM    7  C3  LIG X 999      42.606 132.228  21.644  1.00  0.00     0.003 C 
HETATM    8  C2  LIG X 999      42.112 131.114  22.325  1.00  0.00     0.000 C 
HETATM    9  C1  LIG X 999      41.900 131.123  23.707  1.00  0.00     0.000 C 
HETATM   10  C13 LIG X 999      42.675 131.857  24.625  1.00  0.00     0.002 C 
HETATM   11  C12 LIG X 999      43.971 132.366  24.397  1.00  0.00     0.036 C 
HETATM   12  C11 LIG X 999      44.858 131.936  23.380  1.00  0.00     0.117 C 
HETATM   13  C10 LIG X 999      44.853 130.612  22.897  1.00  0.00     0.100 C 
HETATM   14 CL1  LIG X 999      44.622 129.297  24.056  1.00  0.00    -0.079 Cl
BRANCH   5  15
HETATM   15  O1  LIG X 999      45.135 130.958  19.215  1.00  0.00    -0.259 OA
BRANCH  15  16
HETATM   16  C6  LIG X 999      44.520 131.247  17.988  1.00  0.00     0.367 C 
HETATM   17  O2  LIG X 999      43.469 131.944  17.952  1.00  0.00    -0.238 OA
HETATM   18  N1  LIG X 999      45.125 130.794  16.765  1.00  0.00    -0.336 N 
HETATM   19  C7  LIG X 999      44.498 131.112  15.479  1.00  0.00     0.154 C 
HETATM   20  C8  LIG X 999      46.361 130.011  16.824  1.00  0.00     0.154 C 
ENDBRANCH  15  16
ENDBRANCH   5  15
BRANCH  12  21
HETATM   21  N5  LIG X 999      45.814 132.851  22.822  1.00  0.00    -0.071 NA
HETATM   22  N6  LIG X 999      46.513 133.585  23.523  1.00  0.00    -0.162 NA
HETATM   23  N7  LIG X 999      47.210 134.319  24.221  1.00  0.00     0.068 N 
ENDBRANCH  12  21
ENDBRANCH   1   4
TORSDOF 4
ENDMDL
