REMARK VINA RESULT:      -4.0      1.695      1.951
REMARK  4 active torsions:
REMARK  status: ('A' for Active; 'I' for Inactive)
REMARK    1  A    between atoms: C5_5  and  C6_6 
REMARK    2  A    between atoms: C7_7  and  C8_8 
REMARK    3  A    between atoms: C11_13  and  C12_14 
REMARK    4  A    between atoms: C13_17  and  N3_18 
ROOT
HETATM    1  N3  LIG X 999      39.631 126.813  23.604  1.00  0.00    -0.023 NA
HETATM    2  N4  LIG X 999      38.553 126.291  23.891  1.00  0.00    -0.158 NA
HETATM    3  N5  LIG X 999      37.477 125.769  24.177  1.00  0.00     0.068 N 
ENDROOT
BRANCH   1   4
HETATM    4  C13 LIG X 999      40.828 126.039  23.567  1.00  0.00     0.326 A 
HETATM    5  N2  LIG X 999      40.852 124.721  23.309  1.00  0.00    -0.099 NA
HETATM    6  N1  LIG X 999      42.127 124.367  23.362  1.00  0.00    -0.124 NA
HETATM    7  C12 LIG X 999      42.827 125.483  23.656  1.00  0.00     0.184 A 
HETATM    8  O3  LIG X 999      42.029 126.520  23.776  1.00  0.00    -0.255 OA
BRANCH   7   9
HETATM    9  C11 LIG X 999      44.338 125.538  23.778  1.00  0.00     0.054 C 
HETATM   10  C3  LIG X 999      45.007 125.599  22.360  1.00  0.00     0.030 C 
HETATM   11  C2  LIG X 999      46.481 125.258  22.431  1.00  0.00    -0.021 C 
HETATM   12  C4  LIG X 999      44.776 126.958  21.664  1.00  0.00     0.027 C 
HETATM   13  C1  LIG X 999      46.923 124.352  23.307  1.00  0.00    -0.004 C 
HETATM   14  C15 LIG X 999      46.010 123.768  24.306  1.00  0.00    -0.003 C 
HETATM   15  C14 LIG X 999      44.790 124.279  24.501  1.00  0.00    -0.008 C 
HETATM   16  C5  LIG X 999      45.216 128.138  22.548  1.00  0.00     0.066 C 
HETATM   17  C9  LIG X 999      44.499 128.095  23.905  1.00  0.00     0.019 C 
HETATM   18  C10 LIG X 999      44.771 126.768  24.624  1.00  0.00     0.024 C 
BRANCH  16  19
HETATM   19  C6  LIG X 999      44.926 129.409  21.867  1.00  0.00    -0.090 C 
HETATM   20  C7  LIG X 999      44.688 130.450  21.309  1.00  0.00     0.005 C 
BRANCH  20  21
HETATM   21  C8  LIG X 999      44.406 131.690  20.643  1.00  0.00     0.258 C 
HETATM   22  O1  LIG X 999      45.329 132.314  20.059  1.00  0.00    -0.637 OA
HETATM   23  O2  LIG X 999      43.115 132.199  20.644  1.00  0.00    -0.637 OA
ENDBRANCH  20  21
ENDBRANCH  16  19
ENDBRANCH   7   9
ENDBRANCH   1   4
TORSDOF 4
