REMARK VINA RESULT:      -5.3      7.803      9.588
REMARK  1 active torsions:
REMARK  status: ('A' for Active; 'I' for Inactive)
REMARK    1  A    between atoms: N1_2  and  C1_3 
ROOT
HETATM    1  C1  LIG X 999      44.124 125.736  22.650  1.00  0.00     0.143 C 
HETATM    2  N2  LIG X 999      43.175 126.492  23.255  1.00  0.00    -0.229 NA
HETATM    3  C2  LIG X 999      41.934 126.014  23.530  1.00  0.00     0.070 C 
HETATM    4  C3  LIG X 999      41.000 126.883  24.092  1.00  0.00     0.033 C 
HETATM    5  C4  LIG X 999      39.716 126.446  24.384  1.00  0.00     0.014 C 
HETATM    6  C5  LIG X 999      39.374 125.101  24.222  1.00  0.00    -0.025 C 
HETATM    7  C6  LIG X 999      38.102 124.664  24.625  1.00  0.00     0.012 C 
HETATM    8  C7  LIG X 999      37.783 123.309  24.599  1.00  0.00     0.001 C 
HETATM    9  C8  LIG X 999      38.741 122.378  24.211  1.00  0.00     0.001 C 
HETATM   10  C9  LIG X 999      40.007 122.799  23.793  1.00  0.00     0.013 C 
HETATM   11  C10 LIG X 999      40.327 124.175  23.706  1.00  0.00    -0.013 C 
HETATM   12  C11 LIG X 999      41.590 124.665  23.230  1.00  0.00     0.010 C 
HETATM   13  C12 LIG X 999      42.528 123.923  22.440  1.00  0.00    -0.045 C 
HETATM   14  C13 LIG X 999      42.193 122.661  21.682  1.00  0.00     0.049 C 
HETATM   15  C14 LIG X 999      43.811 124.449  22.222  1.00  0.00     0.059 C 
ENDROOT
BRANCH   1  16
HETATM   16  N1  LIG X 999      45.302 126.224  22.433  1.00  0.00    -0.282 NA
HETATM   17  H1  LIG X 999      46.168 125.709  22.708  1.00  0.00     0.188 HD
ENDBRANCH   1  16
TORSDOF 1
