MODEL 1
REMARK VINA RESULT:      -8.2      0.000      0.000
REMARK  2 active torsions:
REMARK  status: ('A' for Active; 'I' for Inactive)
REMARK    1  A    between atoms: N1_1  and  C1_2 
REMARK    2  A    between atoms: C2_5  and  C3_6 
ROOT
HETATM    1  C3  LIG X 999      44.338 131.399  17.339  1.00  0.00     0.030 A 
HETATM    2  C4  LIG X 999      43.070 131.832  16.911  1.00  0.00     0.017 A 
HETATM    3  C5  LIG X 999      42.086 132.190  17.829  1.00  0.00     0.002 A 
HETATM    4  C6  LIG X 999      42.341 132.121  19.196  1.00  0.00     0.012 A 
HETATM    5  C7  LIG X 999      43.583 131.668  19.660  1.00  0.00    -0.025 A 
HETATM    6  C8  LIG X 999      43.819 131.579  21.041  1.00  0.00     0.012 A 
HETATM    7  C9  LIG X 999      45.036 131.094  21.518  1.00  0.00     0.001 A 
HETATM    8  C10 LIG X 999      46.022 130.681  20.624  1.00  0.00     0.001 A 
HETATM    9  C11 LIG X 999      45.806 130.766  19.246  1.00  0.00     0.013 A 
HETATM   10  C12 LIG X 999      44.595 131.284  18.735  1.00  0.00    -0.011 A 
ENDROOT
BRANCH   1  11
HETATM   11  C2  LIG X 999      45.356 131.120  16.298  1.00  0.00     0.205 A 
HETATM   12  N3  LIG X 999      45.941 132.073  15.542  1.00  0.00    -0.119 NA
HETATM   13  N2  LIG X 999      46.811 131.455  14.759  1.00  0.00    -0.103 NA
HETATM   14  C1  LIG X 999      46.724 130.151  15.075  1.00  0.00     0.265 A 
HETATM   15  O1  LIG X 999      45.842 129.933  16.018  1.00  0.00    -0.255 OA
BRANCH  14  16
HETATM   16  N1  LIG X 999      47.502 129.131  14.457  1.00  0.00    -0.362 N 
HETATM   17  H1  LIG X 999      47.137 128.155  14.400  1.00  0.00     0.159 HD
HETATM   18  H2  LIG X 999      48.441 129.352  14.058  1.00  0.00     0.159 HD
ENDBRANCH  14  16
ENDBRANCH   1  11
TORSDOF 2
ENDMDL
MODEL 2
REMARK VINA RESULT:      -7.7      1.166      2.900
REMARK  2 active torsions:
REMARK  status: ('A' for Active; 'I' for Inactive)
REMARK    1  A    between atoms: N1_1  and  C1_2 
REMARK    2  A    between atoms: C2_5  and  C3_6 
ROOT
HETATM    1  C3  LIG X 999      45.341 130.943  18.329  1.00  0.00     0.030 A 
HETATM    2  C4  LIG X 999      46.300 130.635  19.311  1.00  0.00     0.017 A 
HETATM    3  C5  LIG X 999      46.028 130.819  20.664  1.00  0.00     0.002 A 
HETATM    4  C6  LIG X 999      44.793 131.316  21.071  1.00  0.00     0.012 A 
HETATM    5  C7  LIG X 999      43.823 131.660  20.121  1.00  0.00    -0.025 A 
HETATM    6  C8  LIG X 999      42.590 132.184  20.543  1.00  0.00     0.012 A 
HETATM    7  C9  LIG X 999      41.630 132.566  19.607  1.00  0.00     0.001 A 
HETATM    8  C10 LIG X 999      41.893 132.441  18.245  1.00  0.00     0.001 A 
HETATM    9  C11 LIG X 999      43.112 131.917  17.806  1.00  0.00     0.013 A 
HETATM   10  C12 LIG X 999      44.091 131.492  18.732  1.00  0.00    -0.011 A 
ENDROOT
BRANCH   1  11
HETATM   11  C2  LIG X 999      45.680 130.637  16.919  1.00  0.00     0.205 A 
HETATM   12  N3  LIG X 999      45.500 129.428  16.346  1.00  0.00    -0.119 NA
HETATM   13  N2  LIG X 999      45.879 129.546  15.083  1.00  0.00    -0.103 NA
HETATM   14  C1  LIG X 999      46.268 130.825  14.938  1.00  0.00     0.265 A 
HETATM   15  O1  LIG X 999      46.146 131.504  16.051  1.00  0.00    -0.255 OA
BRANCH  14  16
HETATM   16  N1  LIG X 999      46.751 131.374  13.715  1.00  0.00    -0.362 N 
HETATM   17  H1  LIG X 999      47.717 131.767  13.663  1.00  0.00     0.159 HD
HETATM   18  H2  LIG X 999      46.144 131.386  12.866  1.00  0.00     0.159 HD
ENDBRANCH  14  16
ENDBRANCH   1  11
TORSDOF 2
ENDMDL
MODEL 3
REMARK VINA RESULT:      -7.5      1.160      1.359
REMARK  2 active torsions:
REMARK  status: ('A' for Active; 'I' for Inactive)
REMARK    1  A    between atoms: N1_1  and  C1_2 
REMARK    2  A    between atoms: C2_5  and  C3_6 
ROOT
HETATM    1  C3  LIG X 999      43.685 131.697  17.673  1.00  0.00     0.030 A 
HETATM    2  C4  LIG X 999      42.369 132.192  17.636  1.00  0.00     0.017 A 
HETATM    3  C5  LIG X 999      41.666 132.454  18.809  1.00  0.00     0.002 A 
HETATM    4  C6  LIG X 999      42.259 132.226  20.048  1.00  0.00     0.012 A 
HETATM    5  C7  LIG X 999      43.558 131.708  20.125  1.00  0.00    -0.025 A 
HETATM    6  C8  LIG X 999      44.135 131.459  21.380  1.00  0.00     0.012 A 
HETATM    7  C9  LIG X 999      45.412 130.907  21.471  1.00  0.00     0.001 A 
HETATM    8  C10 LIG X 999      46.120 130.588  20.315  1.00  0.00     0.001 A 
HETATM    9  C11 LIG X 999      45.564 130.832  19.056  1.00  0.00     0.013 A 
HETATM   10  C12 LIG X 999      44.285 131.420  18.934  1.00  0.00    -0.011 A 
ENDROOT
BRANCH   1  11
HETATM   11  C2  LIG X 999      44.391 131.527  16.380  1.00  0.00     0.205 A 
HETATM   12  N3  LIG X 999      43.798 131.085  15.251  1.00  0.00    -0.119 NA
HETATM   13  N2  LIG X 999      44.726 131.099  14.306  1.00  0.00    -0.103 NA
HETATM   14  C1  LIG X 999      45.843 131.555  14.898  1.00  0.00     0.265 A 
HETATM   15  O1  LIG X 999      45.651 131.826  16.165  1.00  0.00    -0.255 OA
BRANCH  14  16
HETATM   16  N1  LIG X 999      47.086 131.726  14.224  1.00  0.00    -0.362 N 
HETATM   17  H1  LIG X 999      47.237 131.296  13.285  1.00  0.00     0.159 HD
HETATM   18  H2  LIG X 999      47.852 132.283  14.664  1.00  0.00     0.159 HD
ENDBRANCH  14  16
ENDBRANCH   1  11
TORSDOF 2
ENDMDL
MODEL 4
REMARK VINA RESULT:      -6.0      4.488      5.749
REMARK  2 active torsions:
REMARK  status: ('A' for Active; 'I' for Inactive)
REMARK    1  A    between atoms: N1_1  and  C1_2 
REMARK    2  A    between atoms: C2_5  and  C3_6 
ROOT
HETATM    1  C3  LIG X 999      43.420 131.581  21.179  1.00  0.00     0.030 A 
HETATM    2  C4  LIG X 999      42.230 132.330  21.194  1.00  0.00     0.017 A 
HETATM    3  C5  LIG X 999      41.674 132.819  20.014  1.00  0.00     0.002 A 
HETATM    4  C6  LIG X 999      42.294 132.574  18.792  1.00  0.00     0.012 A 
HETATM    5  C7  LIG X 999      43.495 131.855  18.740  1.00  0.00    -0.025 A 
HETATM    6  C8  LIG X 999      44.123 131.636  17.504  1.00  0.00     0.012 A 
HETATM    7  C9  LIG X 999      45.337 130.955  17.442  1.00  0.00     0.001 A 
HETATM    8  C10 LIG X 999      45.943 130.498  18.610  1.00  0.00     0.001 A 
HETATM    9  C11 LIG X 999      45.331 130.702  19.850  1.00  0.00     0.013 A 
HETATM   10  C12 LIG X 999      44.084 131.361  19.939  1.00  0.00    -0.011 A 
ENDROOT
BRANCH   1  11
HETATM   11  C2  LIG X 999      43.897 131.025  22.468  1.00  0.00     0.205 A 
HETATM   12  N3  LIG X 999      44.053 131.757  23.592  1.00  0.00    -0.119 NA
HETATM   13  N2  LIG X 999      44.456 130.920  24.536  1.00  0.00    -0.103 NA
HETATM   14  C1  LIG X 999      44.522 129.713  23.949  1.00  0.00     0.265 A 
HETATM   15  O1  LIG X 999      44.178 129.762  22.687  1.00  0.00    -0.255 OA
BRANCH  14  16
HETATM   16  N1  LIG X 999      44.917 128.522  24.624  1.00  0.00    -0.362 N 
HETATM   17  H1  LIG X 999      45.471 128.579  25.507  1.00  0.00     0.159 HD
HETATM   18  H2  LIG X 999      44.655 127.587  24.241  1.00  0.00     0.159 HD
ENDBRANCH  14  16
ENDBRANCH   1  11
TORSDOF 2
ENDMDL
MODEL 5
REMARK VINA RESULT:      -5.6      2.715      5.094
REMARK  2 active torsions:
REMARK  status: ('A' for Active; 'I' for Inactive)
REMARK    1  A    between atoms: N1_1  and  C1_2 
REMARK    2  A    between atoms: C2_5  and  C3_6 
ROOT
HETATM    1  C3  LIG X 999      44.810 131.183  16.972  1.00  0.00     0.030 A 
HETATM    2  C4  LIG X 999      43.583 131.798  16.668  1.00  0.00     0.017 A 
HETATM    3  C5  LIG X 999      43.176 131.978  15.348  1.00  0.00     0.002 A 
HETATM    4  C6  LIG X 999      43.986 131.549  14.300  1.00  0.00     0.012 A 
HETATM    5  C7  LIG X 999      45.227 130.957  14.563  1.00  0.00    -0.025 A 
HETATM    6  C8  LIG X 999      46.045 130.552  13.495  1.00  0.00     0.012 A 
HETATM    7  C9  LIG X 999      47.300 129.996  13.741  1.00  0.00     0.001 A 
HETATM    8  C10 LIG X 999      47.755 129.850  15.050  1.00  0.00     0.001 A 
HETATM    9  C11 LIG X 999      46.953 130.243  16.125  1.00  0.00     0.013 A 
HETATM   10  C12 LIG X 999      45.665 130.780  15.906  1.00  0.00    -0.011 A 
ENDROOT
BRANCH   1  11
HETATM   11  C2  LIG X 999      45.128 130.953  18.401  1.00  0.00     0.205 A 
HETATM   12  N3  LIG X 999      45.895 129.936  18.849  1.00  0.00    -0.119 NA
HETATM   13  N2  LIG X 999      45.983 130.076  20.162  1.00  0.00    -0.103 NA
HETATM   14  C1  LIG X 999      45.270 131.177  20.460  1.00  0.00     0.265 A 
HETATM   15  O1  LIG X 999      44.747 131.725  19.392  1.00  0.00    -0.255 OA
BRANCH  14  16
HETATM   16  N1  LIG X 999      45.108 131.685  21.780  1.00  0.00    -0.362 N 
HETATM   17  H1  LIG X 999      44.153 131.794  22.187  1.00  0.00     0.159 HD
HETATM   18  H2  LIG X 999      45.942 131.951  22.349  1.00  0.00     0.159 HD
ENDBRANCH  14  16
ENDBRANCH   1  11
TORSDOF 2
ENDMDL
MODEL 6
REMARK VINA RESULT:      -5.5      9.177     10.428
REMARK  2 active torsions:
REMARK  status: ('A' for Active; 'I' for Inactive)
REMARK    1  A    between atoms: N1_1  and  C1_2 
REMARK    2  A    between atoms: C2_5  and  C3_6 
ROOT
HETATM    1  C3  LIG X 999      51.481 136.858  22.966  1.00  0.00     0.030 A 
HETATM    2  C4  LIG X 999      52.335 137.746  23.644  1.00  0.00     0.017 A 
HETATM    3  C5  LIG X 999      52.311 139.113  23.374  1.00  0.00     0.002 A 
HETATM    4  C6  LIG X 999      51.436 139.624  22.419  1.00  0.00     0.012 A 
HETATM    5  C7  LIG X 999      50.591 138.767  21.704  1.00  0.00    -0.025 A 
HETATM    6  C8  LIG X 999      49.732 139.293  20.726  1.00  0.00     0.012 A 
HETATM    7  C9  LIG X 999      48.912 138.448  19.980  1.00  0.00     0.001 A 
HETATM    8  C10 LIG X 999      48.950 137.071  20.193  1.00  0.00     0.001 A 
HETATM    9  C11 LIG X 999      49.796 136.529  21.164  1.00  0.00     0.013 A 
HETATM   10  C12 LIG X 999      50.613 137.366  21.957  1.00  0.00    -0.011 A 
ENDROOT
BRANCH   1  11
HETATM   11  C2  LIG X 999      51.509 135.433  23.374  1.00  0.00     0.205 A 
HETATM   12  N3  LIG X 999      52.626 134.675  23.385  1.00  0.00    -0.119 NA
HETATM   13  N2  LIG X 999      52.269 133.482  23.835  1.00  0.00    -0.103 NA
HETATM   14  C1  LIG X 999      50.951 133.565  24.086  1.00  0.00     0.265 A 
HETATM   15  O1  LIG X 999      50.475 134.754  23.813  1.00  0.00    -0.255 OA
BRANCH  14  16
HETATM   16  N1  LIG X 999      50.169 132.488  24.592  1.00  0.00    -0.362 N 
HETATM   17  H1  LIG X 999      50.502 131.940  25.416  1.00  0.00     0.159 HD
HETATM   18  H2  LIG X 999      49.259 132.241  24.144  1.00  0.00     0.159 HD
ENDBRANCH  14  16
ENDBRANCH   1  11
TORSDOF 2
ENDMDL
MODEL 7
REMARK VINA RESULT:      -5.3      5.006      6.295
REMARK  2 active torsions:
REMARK  status: ('A' for Active; 'I' for Inactive)
REMARK    1  A    between atoms: N1_1  and  C1_2 
REMARK    2  A    between atoms: C2_5  and  C3_6 
ROOT
HETATM    1  C3  LIG X 999      44.253 129.372  22.905  1.00  0.00     0.030 A 
HETATM    2  C4  LIG X 999      43.286 129.800  23.832  1.00  0.00     0.017 A 
HETATM    3  C5  LIG X 999      42.557 130.968  23.622  1.00  0.00     0.002 A 
HETATM    4  C6  LIG X 999      42.779 131.739  22.484  1.00  0.00     0.012 A 
HETATM    5  C7  LIG X 999      43.754 131.360  21.553  1.00  0.00    -0.025 A 
HETATM    6  C8  LIG X 999      43.985 132.159  20.422  1.00  0.00     0.012 A 
HETATM    7  C9  LIG X 999      44.978 131.814  19.507  1.00  0.00     0.001 A 
HETATM    8  C10 LIG X 999      45.757 130.678  19.716  1.00  0.00     0.001 A 
HETATM    9  C11 LIG X 999      45.539 129.868  20.833  1.00  0.00     0.013 A 
HETATM   10  C12 LIG X 999      44.518 130.175  21.760  1.00  0.00    -0.011 A 
ENDROOT
BRANCH   1  11
HETATM   11  C2  LIG X 999      44.922 128.074  23.161  1.00  0.00     0.205 A 
HETATM   12  N3  LIG X 999      45.367 127.681  24.374  1.00  0.00    -0.119 NA
HETATM   13  N2  LIG X 999      45.868 126.466  24.219  1.00  0.00    -0.103 NA
HETATM   14  C1  LIG X 999      45.701 126.166  22.919  1.00  0.00     0.265 A 
HETATM   15  O1  LIG X 999      45.120 127.138  22.262  1.00  0.00    -0.255 OA
BRANCH  14  16
HETATM   16  N1  LIG X 999      46.108 124.934  22.330  1.00  0.00    -0.362 N 
HETATM   17  H1  LIG X 999      45.562 124.526  21.539  1.00  0.00     0.159 HD
HETATM   18  H2  LIG X 999      46.953 124.434  22.683  1.00  0.00     0.159 HD
ENDBRANCH  14  16
ENDBRANCH   1  11
TORSDOF 2
ENDMDL
