REMARK VINA RESULT:      -6.4      2.944      6.508
REMARK  1 active torsions:
REMARK  status: ('A' for Active; 'I' for Inactive)
REMARK    1  A    between atoms: C2_2  and  N1_3 
ROOT
HETATM    1  N1  LIG X 999      45.726 130.806  16.363  1.00  0.00    -0.073 NA
HETATM    2  N2  LIG X 999      45.006 131.243  15.465  1.00  0.00    -0.162 NA
HETATM    3  N3  LIG X 999      44.288 131.678  14.566  1.00  0.00     0.068 N 
ENDROOT
BRANCH   1   4
HETATM    4  C2  LIG X 999      45.366 130.899  17.749  1.00  0.00     0.094 A 
HETATM    5  C1  LIG X 999      46.172 130.351  18.763  1.00  0.00     0.035 A 
HETATM    6  C11 LIG X 999      45.795 130.458  20.104  1.00  0.00     0.014 A 
HETATM    7  C10 LIG X 999      44.606 131.116  20.451  1.00  0.00    -0.024 A 
HETATM    8  C4  LIG X 999      43.790 131.669  19.437  1.00  0.00    -0.024 A 
HETATM    9  C9  LIG X 999      44.218 131.229  21.796  1.00  0.00     0.034 A 
HETATM   10  C3  LIG X 999      44.177 131.557  18.093  1.00  0.00     0.046 A 
HETATM   11  C5  LIG X 999      42.600 132.328  19.785  1.00  0.00     0.014 A 
HETATM   12  C6  LIG X 999      42.222 132.434  21.126  1.00  0.00     0.023 A 
HETATM   13  C7  LIG X 999      43.028 131.887  22.131  1.00  0.00     0.045 A 
HETATM   14  C8  LIG X 999      42.633 132.002  23.512  1.00  0.00     0.099 C 
HETATM   15  N4  LIG X 999      42.315 132.094  24.621  1.00  0.00    -0.191 NA
ENDBRANCH   1   4
TORSDOF 1
