REMARK VINA RESULT:      -6.8      1.451      5.360
REMARK  3 active torsions:
REMARK  status: ('A' for Active; 'I' for Inactive)
REMARK    1  A    between atoms: C3_3  and  O1_4 
REMARK    2  A    between atoms: O1_4  and  C4_5 
REMARK    3  A    between atoms: C13_14  and  C14_15 
ROOT
HETATM    1  C1  LIG X 999      42.565 129.035  23.585  1.00  0.00     0.014 C 
HETATM    2  C2  LIG X 999      43.041 130.112  23.332  1.00  0.00    -0.091 C 
HETATM    3  C3  LIG X 999      43.619 131.422  23.025  1.00  0.00     0.268 C 
ENDROOT
BRANCH   3   4
HETATM    4  O1  LIG X 999      43.236 131.803  21.707  1.00  0.00    -0.339 OA
BRANCH   4   5
HETATM    5  C4  LIG X 999      43.941 131.471  20.536  1.00  0.00     0.084 A 
HETATM    6  C5  LIG X 999      45.209 130.868  20.602  1.00  0.00     0.039 A 
HETATM    7  C6  LIG X 999      45.918 130.572  19.443  1.00  0.00     0.015 A 
HETATM    8  C7  LIG X 999      45.372 130.855  18.187  1.00  0.00    -0.025 A 
HETATM    9  C8  LIG X 999      46.098 130.538  17.027  1.00  0.00     0.012 A 
HETATM   10  C12 LIG X 999      44.086 131.450  18.086  1.00  0.00    -0.010 A 
HETATM   11  C9  LIG X 999      45.559 130.791  15.768  1.00  0.00     0.001 A 
HETATM   12  C10 LIG X 999      44.288 131.352  15.653  1.00  0.00     0.001 A 
HETATM   13  C11 LIG X 999      43.553 131.674  16.796  1.00  0.00     0.013 A 
HETATM   14  C13 LIG X 999      43.369 131.770  19.276  1.00  0.00     0.046 A 
BRANCH  14  15
HETATM   15  C14 LIG X 999      42.046 132.445  19.219  1.00  0.00     0.273 C 
HETATM   16  O2  LIG X 999      41.699 133.275  20.101  1.00  0.00    -0.301 OA
ENDBRANCH  14  15
ENDBRANCH   4   5
ENDBRANCH   3   4
TORSDOF 3
