MODEL 1
REMARK VINA RESULT:      -8.3      0.000      0.000
REMARK  4 active torsions:
REMARK  status: ('A' for Active; 'I' for Inactive)
REMARK    1  A    between atoms: C3_3  and  O1_4 
REMARK    2  A    between atoms: O1_4  and  C4_5 
REMARK    3  A    between atoms: C4_5  and  O2_6 
REMARK    4  A    between atoms: C5_8  and  C6_9 
ROOT
HETATM    1  C1  LIG X 999      47.642 131.346  12.871  1.00  0.00     0.014 C 
HETATM    2  C2  LIG X 999      47.554 130.359  13.558  1.00  0.00    -0.091 C 
HETATM    3  C3  LIG X 999      47.447 129.162  14.392  1.00  0.00     0.270 C 
ENDROOT
BRANCH   3   4
HETATM    4  O1  LIG X 999      47.301 129.552  15.755  1.00  0.00    -0.319 OA
BRANCH   4   5
HETATM    5  C4  LIG X 999      46.084 129.894  16.369  1.00  0.00     0.179 C 
HETATM    6  C5  LIG X 999      45.925 131.038  17.060  1.00  0.00     0.075 C 
BRANCH   5   7
HETATM    7  O2  LIG X 999      45.012 129.017  16.229  1.00  0.00    -0.341 OA
HETATM    8  H4  LIG X 999      44.555 128.899  15.333  1.00  0.00     0.220 HD
ENDBRANCH   5   7
BRANCH   6   9
HETATM    9  C6  LIG X 999      44.653 131.410  17.726  1.00  0.00    -0.021 A 
HETATM   10  C7  LIG X 999      43.540 131.750  16.936  1.00  0.00     0.012 A 
HETATM   11  C8  LIG X 999      42.312 132.056  17.523  1.00  0.00     0.002 A 
HETATM   12  C9  LIG X 999      42.167 132.018  18.908  1.00  0.00     0.012 A 
HETATM   13  C10 LIG X 999      43.254 131.673  19.723  1.00  0.00    -0.025 A 
HETATM   14  C11 LIG X 999      43.099 131.634  21.118  1.00  0.00     0.012 A 
HETATM   15  C15 LIG X 999      44.512 131.363  19.138  1.00  0.00    -0.015 A 
HETATM   16  C12 LIG X 999      44.178 131.301  21.937  1.00  0.00     0.001 A 
HETATM   17  C13 LIG X 999      45.420 131.006  21.374  1.00  0.00     0.001 A 
HETATM   18  C14 LIG X 999      45.592 131.039  19.988  1.00  0.00     0.013 A 
ENDBRANCH   6   9
ENDBRANCH   4   5
ENDBRANCH   3   4
TORSDOF 4
ENDMDL
MODEL 2
REMARK VINA RESULT:      -8.2      1.072      2.584
REMARK  4 active torsions:
REMARK  status: ('A' for Active; 'I' for Inactive)
REMARK    1  A    between atoms: C3_3  and  O1_4 
REMARK    2  A    between atoms: O1_4  and  C4_5 
REMARK    3  A    between atoms: C4_5  and  O2_6 
REMARK    4  A    between atoms: C5_8  and  C6_9 
ROOT
HETATM    1  C1  LIG X 999      48.438 129.511  13.388  1.00  0.00     0.014 C 
HETATM    2  C2  LIG X 999      47.466 130.203  13.557  1.00  0.00    -0.091 C 
HETATM    3  C3  LIG X 999      46.285 131.043  13.762  1.00  0.00     0.270 C 
ENDROOT
BRANCH   3   4
HETATM    4  O1  LIG X 999      45.301 130.301  14.477  1.00  0.00    -0.319 OA
BRANCH   4   5
HETATM    5  C4  LIG X 999      45.238 130.183  15.876  1.00  0.00     0.179 C 
HETATM    6  C5  LIG X 999      45.051 131.246  16.678  1.00  0.00     0.075 C 
BRANCH   5   7
HETATM    7  O2  LIG X 999      45.354 128.910  16.429  1.00  0.00    -0.341 OA
HETATM    8  H4  LIG X 999      45.637 128.790  17.394  1.00  0.00     0.220 HD
ENDBRANCH   5   7
BRANCH   6   9
HETATM    9  C6  LIG X 999      44.996 131.142  18.157  1.00  0.00    -0.021 A 
HETATM   10  C7  LIG X 999      46.093 130.596  18.848  1.00  0.00     0.012 A 
HETATM   11  C8  LIG X 999      46.100 130.529  20.241  1.00  0.00     0.002 A 
HETATM   12  C9  LIG X 999      45.019 131.015  20.973  1.00  0.00     0.012 A 
HETATM   13  C10 LIG X 999      43.915 131.574  20.316  1.00  0.00    -0.025 A 
HETATM   14  C11 LIG X 999      42.831 132.064  21.062  1.00  0.00     0.012 A 
HETATM   15  C15 LIG X 999      43.892 131.645  18.896  1.00  0.00    -0.015 A 
HETATM   16  C12 LIG X 999      41.723 132.614  20.415  1.00  0.00     0.001 A 
HETATM   17  C13 LIG X 999      41.686 132.677  19.022  1.00  0.00     0.001 A 
HETATM   18  C14 LIG X 999      42.756 132.195  18.265  1.00  0.00     0.013 A 
ENDBRANCH   6   9
ENDBRANCH   4   5
ENDBRANCH   3   4
TORSDOF 4
ENDMDL
MODEL 3
REMARK VINA RESULT:      -7.8      1.393      1.813
REMARK  4 active torsions:
REMARK  status: ('A' for Active; 'I' for Inactive)
REMARK    1  A    between atoms: C3_3  and  O1_4 
REMARK    2  A    between atoms: O1_4  and  C4_5 
REMARK    3  A    between atoms: C4_5  and  O2_6 
REMARK    4  A    between atoms: C5_8  and  C6_9 
ROOT
HETATM    1  C1  LIG X 999      48.399 129.227  13.614  1.00  0.00     0.014 C 
HETATM    2  C2  LIG X 999      47.738 130.229  13.713  1.00  0.00    -0.091 C 
HETATM    3  C3  LIG X 999      46.934 131.446  13.833  1.00  0.00     0.270 C 
ENDROOT
BRANCH   3   4
HETATM    4  O1  LIG X 999      45.661 131.114  14.380  1.00  0.00    -0.319 OA
BRANCH   4   5
HETATM    5  C4  LIG X 999      45.151 131.608  15.593  1.00  0.00     0.179 C 
HETATM    6  C5  LIG X 999      44.177 130.976  16.272  1.00  0.00     0.075 C 
BRANCH   5   7
HETATM    7  O2  LIG X 999      45.701 132.780  16.103  1.00  0.00    -0.341 OA
HETATM    8  H4  LIG X 999      45.752 132.935  17.103  1.00  0.00     0.220 HD
ENDBRANCH   5   7
BRANCH   6   9
HETATM    9  C6  LIG X 999      43.617 131.488  17.547  1.00  0.00    -0.021 A 
HETATM   10  C7  LIG X 999      42.364 132.126  17.538  1.00  0.00     0.012 A 
HETATM   11  C8  LIG X 999      41.781 132.575  18.723  1.00  0.00     0.002 A 
HETATM   12  C9  LIG X 999      42.431 132.388  19.940  1.00  0.00     0.012 A 
HETATM   13  C10 LIG X 999      43.676 131.747  19.985  1.00  0.00    -0.025 A 
HETATM   14  C11 LIG X 999      44.324 131.560  21.217  1.00  0.00     0.012 A 
HETATM   15  C15 LIG X 999      44.284 131.288  18.785  1.00  0.00    -0.015 A 
HETATM   16  C12 LIG X 999      45.569 130.932  21.269  1.00  0.00     0.001 A 
HETATM   17  C13 LIG X 999      46.179 130.488  20.096  1.00  0.00     0.001 A 
HETATM   18  C14 LIG X 999      45.548 130.666  18.862  1.00  0.00     0.013 A 
ENDBRANCH   6   9
ENDBRANCH   4   5
ENDBRANCH   3   4
TORSDOF 4
ENDMDL
MODEL 4
REMARK VINA RESULT:      -7.1      2.070      6.057
REMARK  4 active torsions:
REMARK  status: ('A' for Active; 'I' for Inactive)
REMARK    1  A    between atoms: C3_3  and  O1_4 
REMARK    2  A    between atoms: O1_4  and  C4_5 
REMARK    3  A    between atoms: C4_5  and  O2_6 
REMARK    4  A    between atoms: C5_8  and  C6_9 
ROOT
HETATM    1  C1  LIG X 999      43.202 131.456  22.380  1.00  0.00     0.014 C 
HETATM    2  C2  LIG X 999      44.068 130.726  21.967  1.00  0.00    -0.091 C 
HETATM    3  C3  LIG X 999      45.119 129.840  21.465  1.00  0.00     0.270 C 
ENDROOT
BRANCH   3   4
HETATM    4  O1  LIG X 999      45.922 130.551  20.527  1.00  0.00    -0.319 OA
BRANCH   4   5
HETATM    5  C4  LIG X 999      45.487 130.995  19.266  1.00  0.00     0.179 C 
HETATM    6  C5  LIG X 999      45.606 130.240  18.159  1.00  0.00     0.075 C 
BRANCH   5   7
HETATM    7  O2  LIG X 999      44.896 132.253  19.186  1.00  0.00    -0.341 OA
HETATM    8  H4  LIG X 999      44.762 132.815  20.017  1.00  0.00     0.220 HD
ENDBRANCH   5   7
BRANCH   6   9
HETATM    9  C6  LIG X 999      45.164 130.697  16.818  1.00  0.00    -0.021 A 
HETATM   10  C7  LIG X 999      43.938 131.375  16.695  1.00  0.00     0.012 A 
HETATM   11  C8  LIG X 999      43.513 131.865  15.460  1.00  0.00     0.002 A 
HETATM   12  C9  LIG X 999      44.306 131.699  14.327  1.00  0.00     0.012 A 
HETATM   13  C10 LIG X 999      45.538 131.036  14.418  1.00  0.00    -0.025 A 
HETATM   14  C11 LIG X 999      46.333 130.875  13.272  1.00  0.00     0.012 A 
HETATM   15  C15 LIG X 999      45.982 130.528  15.670  1.00  0.00    -0.015 A 
HETATM   16  C12 LIG X 999      47.555 130.208  13.352  1.00  0.00     0.001 A 
HETATM   17  C13 LIG X 999      47.995 129.695  14.573  1.00  0.00     0.001 A 
HETATM   18  C14 LIG X 999      47.217 129.848  15.723  1.00  0.00     0.013 A 
ENDBRANCH   6   9
ENDBRANCH   4   5
ENDBRANCH   3   4
TORSDOF 4
ENDMDL
MODEL 5
REMARK VINA RESULT:      -7.0      1.546      2.100
REMARK  4 active torsions:
REMARK  status: ('A' for Active; 'I' for Inactive)
REMARK    1  A    between atoms: C3_3  and  O1_4 
REMARK    2  A    between atoms: O1_4  and  C4_5 
REMARK    3  A    between atoms: C4_5  and  O2_6 
REMARK    4  A    between atoms: C5_8  and  C6_9 
ROOT
HETATM    1  C1  LIG X 999      47.623 131.020  13.240  1.00  0.00     0.014 C 
HETATM    2  C2  LIG X 999      46.595 131.008  13.869  1.00  0.00    -0.091 C 
HETATM    3  C3  LIG X 999      45.347 130.993  14.633  1.00  0.00     0.270 C 
ENDROOT
BRANCH   3   4
HETATM    4  O1  LIG X 999      45.648 131.086  16.023  1.00  0.00    -0.319 OA
BRANCH   4   5
HETATM    5  C4  LIG X 999      44.721 131.406  17.029  1.00  0.00     0.179 C 
HETATM    6  C5  LIG X 999      45.038 131.372  18.336  1.00  0.00     0.075 C 
BRANCH   5   7
HETATM    7  O2  LIG X 999      43.442 131.792  16.639  1.00  0.00    -0.341 OA
HETATM    8  H4  LIG X 999      42.879 132.391  17.231  1.00  0.00     0.220 HD
ENDBRANCH   5   7
BRANCH   6   9
HETATM    9  C6  LIG X 999      44.070 131.694  19.412  1.00  0.00    -0.021 A 
HETATM   10  C7  LIG X 999      43.057 132.637  19.162  1.00  0.00     0.012 A 
HETATM   11  C8  LIG X 999      42.096 132.930  20.131  1.00  0.00     0.002 A 
HETATM   12  C9  LIG X 999      42.121 132.280  21.362  1.00  0.00     0.012 A 
HETATM   13  C10 LIG X 999      43.111 131.328  21.640  1.00  0.00    -0.025 A 
HETATM   14  C11 LIG X 999      43.127 130.676  22.883  1.00  0.00     0.012 A 
HETATM   15  C15 LIG X 999      44.099 131.023  20.663  1.00  0.00    -0.015 A 
HETATM   16  C12 LIG X 999      44.115 129.734  23.170  1.00  0.00     0.001 A 
HETATM   17  C13 LIG X 999      45.095 129.436  22.224  1.00  0.00     0.001 A 
HETATM   18  C14 LIG X 999      45.094 130.075  20.981  1.00  0.00     0.013 A 
ENDBRANCH   6   9
ENDBRANCH   4   5
ENDBRANCH   3   4
TORSDOF 4
ENDMDL
MODEL 6
REMARK VINA RESULT:      -6.6      3.247      6.066
REMARK  4 active torsions:
REMARK  status: ('A' for Active; 'I' for Inactive)
REMARK    1  A    between atoms: C3_3  and  O1_4 
REMARK    2  A    between atoms: O1_4  and  C4_5 
REMARK    3  A    between atoms: C4_5  and  O2_6 
REMARK    4  A    between atoms: C5_8  and  C6_9 
ROOT
HETATM    1  C1  LIG X 999      45.326 126.909  22.456  1.00  0.00     0.014 C 
HETATM    2  C2  LIG X 999      45.012 127.655  23.349  1.00  0.00    -0.091 C 
HETATM    3  C3  LIG X 999      44.631 128.562  24.433  1.00  0.00     0.270 C 
ENDROOT
BRANCH   3   4
HETATM    4  O1  LIG X 999      44.586 129.896  23.933  1.00  0.00    -0.319 OA
BRANCH   4   5
HETATM    5  C4  LIG X 999      43.870 130.307  22.796  1.00  0.00     0.179 C 
HETATM    6  C5  LIG X 999      44.434 131.039  21.818  1.00  0.00     0.075 C 
BRANCH   5   7
HETATM    7  O2  LIG X 999      42.539 129.914  22.685  1.00  0.00    -0.341 OA
HETATM    8  H4  LIG X 999      42.002 129.673  23.508  1.00  0.00     0.220 HD
ENDBRANCH   5   7
BRANCH   6   9
HETATM    9  C6  LIG X 999      43.692 131.493  20.617  1.00  0.00    -0.021 A 
HETATM   10  C7  LIG X 999      42.479 132.187  20.782  1.00  0.00     0.012 A 
HETATM   11  C8  LIG X 999      41.777 132.674  19.680  1.00  0.00     0.002 A 
HETATM   12  C9  LIG X 999      42.276 132.490  18.393  1.00  0.00     0.012 A 
HETATM   13  C10 LIG X 999      43.486 131.812  18.194  1.00  0.00    -0.025 A 
HETATM   14  C11 LIG X 999      43.983 131.632  16.893  1.00  0.00     0.012 A 
HETATM   15  C15 LIG X 999      44.210 131.305  19.308  1.00  0.00    -0.015 A 
HETATM   16  C12 LIG X 999      45.182 130.949  16.686  1.00  0.00     0.001 A 
HETATM   17  C13 LIG X 999      45.894 130.438  17.771  1.00  0.00     0.001 A 
HETATM   18  C14 LIG X 999      45.414 130.609  19.072  1.00  0.00     0.013 A 
ENDBRANCH   6   9
ENDBRANCH   4   5
ENDBRANCH   3   4
TORSDOF 4
ENDMDL
MODEL 7
REMARK VINA RESULT:      -6.2      2.466      3.883
REMARK  4 active torsions:
REMARK  status: ('A' for Active; 'I' for Inactive)
REMARK    1  A    between atoms: C3_3  and  O1_4 
REMARK    2  A    between atoms: O1_4  and  C4_5 
REMARK    3  A    between atoms: C4_5  and  O2_6 
REMARK    4  A    between atoms: C5_8  and  C6_9 
ROOT
HETATM    1  C1  LIG X 999      46.761 131.359  14.523  1.00  0.00     0.014 C 
HETATM    2  C2  LIG X 999      45.915 131.532  15.363  1.00  0.00    -0.091 C 
HETATM    3  C3  LIG X 999      44.888 131.744  16.384  1.00  0.00     0.270 C 
ENDROOT
BRANCH   3   4
HETATM    4  O1  LIG X 999      45.461 131.544  17.673  1.00  0.00    -0.319 OA
BRANCH   4   5
HETATM    5  C4  LIG X 999      44.732 131.410  18.867  1.00  0.00     0.179 C 
HETATM    6  C5  LIG X 999      45.300 130.988  20.012  1.00  0.00     0.075 C 
BRANCH   5   7
HETATM    7  O2  LIG X 999      43.383 131.751  18.850  1.00  0.00    -0.341 OA
HETATM    8  H4  LIG X 999      42.765 131.383  18.137  1.00  0.00     0.220 HD
ENDBRANCH   5   7
BRANCH   6   9
HETATM    9  C6  LIG X 999      44.544 130.828  21.278  1.00  0.00    -0.021 A 
HETATM   10  C7  LIG X 999      43.729 131.882  21.728  1.00  0.00     0.012 A 
HETATM   11  C8  LIG X 999      42.963 131.751  22.886  1.00  0.00     0.002 A 
HETATM   12  C9  LIG X 999      42.987 130.563  23.613  1.00  0.00     0.012 A 
HETATM   13  C10 LIG X 999      43.781 129.489  23.187  1.00  0.00    -0.025 A 
HETATM   14  C11 LIG X 999      43.797 128.294  23.923  1.00  0.00     0.012 A 
HETATM   15  C15 LIG X 999      44.570 129.611  22.010  1.00  0.00    -0.015 A 
HETATM   16  C12 LIG X 999      44.593 127.225  23.511  1.00  0.00     0.001 A 
HETATM   17  C13 LIG X 999      45.379 127.338  22.365  1.00  0.00     0.001 A 
HETATM   18  C14 LIG X 999      45.374 128.519  21.619  1.00  0.00     0.013 A 
ENDBRANCH   6   9
ENDBRANCH   4   5
ENDBRANCH   3   4
TORSDOF 4
ENDMDL
