REMARK VINA RESULT:      -8.4      2.533      6.529
REMARK  4 active torsions:
REMARK  status: ('A' for Active; 'I' for Inactive)
REMARK    1  A    between atoms: O1_2  and  C1_3 
REMARK    2  A    between atoms: C1_3  and  C14_17 
REMARK    3  A    between atoms: N1_4  and  C2_5 
REMARK    4  A    between atoms: C2_5  and  C3_6 
ROOT
HETATM    1  C3  LIG X 999      45.593 130.855  17.674  1.00  0.00    -0.033 A 
HETATM    2  C4  LIG X 999      45.245 132.052  17.025  1.00  0.00     0.010 A 
HETATM    3  C5  LIG X 999      45.659 132.297  15.714  1.00  0.00     0.013 A 
HETATM    4  C6  LIG X 999      46.423 131.345  15.026  1.00  0.00    -0.026 A 
HETATM    5  C7  LIG X 999      46.845 131.582  13.708  1.00  0.00     0.012 A 
HETATM    6  C8  LIG X 999      47.603 130.623  13.031  1.00  0.00     0.001 A 
HETATM    7  C9  LIG X 999      47.946 129.423  13.662  1.00  0.00     0.001 A 
HETATM    8  C10 LIG X 999      47.532 129.176  14.974  1.00  0.00     0.012 A 
HETATM    9  C11 LIG X 999      46.771 130.131  15.665  1.00  0.00    -0.025 A 
HETATM   10  C12 LIG X 999      46.351 129.893  16.982  1.00  0.00     0.021 A 
ENDROOT
BRANCH   1  11
HETATM   11  C2  LIG X 999      45.118 130.592  19.086  1.00  0.00     0.139 C 
HETATM   12  C13 LIG X 999      46.278 130.764  20.073  1.00  0.00     0.039 C 
BRANCH  11  13
HETATM   13  N1  LIG X 999      44.024 131.509  19.414  1.00  0.00    -0.261 NA
HETATM   14  C1  LIG X 999      43.414 131.546  20.561  1.00  0.00     0.132 C 
BRANCH  14  15
HETATM   15  O1  LIG X 999      43.758 130.658  21.580  1.00  0.00    -0.348 OA
HETATM   16  H1  LIG X 999      44.633 130.148  21.558  1.00  0.00     0.219 HD
ENDBRANCH  14  15
BRANCH  14  17
HETATM   17  C14 LIG X 999      42.302 132.530  20.772  1.00  0.00     0.081 C 
HETATM   18  C15 LIG X 999      41.649 132.893  19.443  1.00  0.00     0.013 C 
ENDBRANCH  14  17
ENDBRANCH  11  13
ENDBRANCH   1  11
TORSDOF 4
