REMARK VINA RESULT:      -6.5      1.811      2.788
REMARK  4 active torsions:
REMARK  status: ('A' for Active; 'I' for Inactive)
REMARK    1  A    between atoms: C3_3  and  O1_4 
REMARK    2  A    between atoms: O1_4  and  C4_5 
REMARK    3  A    between atoms: C13_14  and  C14_15 
REMARK    4  A    between atoms: C14_15  and  O2_16 
ROOT
HETATM    1  C1  LIG X 999      46.504 130.906  14.927  1.00  0.00     0.014 C 
HETATM    2  C2  LIG X 999      46.171 130.626  16.051  1.00  0.00    -0.091 C 
HETATM    3  C3  LIG X 999      45.766 130.286  17.415  1.00  0.00     0.268 C 
ENDROOT
BRANCH   3   4
HETATM    4  O1  LIG X 999      45.472 131.483  18.127  1.00  0.00    -0.339 OA
BRANCH   4   5
HETATM    5  C4  LIG X 999      44.665 131.554  19.275  1.00  0.00     0.079 A 
HETATM    6  C5  LIG X 999      45.202 131.407  20.569  1.00  0.00     0.049 A 
HETATM    7  C6  LIG X 999      44.378 131.497  21.699  1.00  0.00    -0.023 A 
HETATM    8  C7  LIG X 999      44.912 131.352  22.989  1.00  0.00     0.012 A 
HETATM    9  C11 LIG X 999      42.994 131.743  21.539  1.00  0.00    -0.025 A 
HETATM   10  C8  LIG X 999      44.082 131.449  24.108  1.00  0.00     0.001 A 
HETATM   11  C9  LIG X 999      42.715 131.693  23.951  1.00  0.00     0.001 A 
HETATM   12  C10 LIG X 999      42.170 131.840  22.672  1.00  0.00     0.012 A 
HETATM   13  C12 LIG X 999      42.459 131.887  20.254  1.00  0.00     0.024 A 
HETATM   14  C13 LIG X 999      43.281 131.781  19.120  1.00  0.00    -0.001 A 
BRANCH  14  15
HETATM   15  C14 LIG X 999      42.688 131.968  17.750  1.00  0.00     0.205 C 
BRANCH  15  16
HETATM   16  O2  LIG X 999      41.603 132.849  17.830  1.00  0.00    -0.396 OA
HETATM   17  H12 LIG X 999      41.641 133.409  17.012  1.00  0.00     0.209 HD
ENDBRANCH  15  16
ENDBRANCH  14  15
ENDBRANCH   4   5
ENDBRANCH   3   4
TORSDOF 4
