REMARK VINA RESULT:      -3.0      2.654      6.206
REMARK  5 active torsions:
REMARK  status: ('A' for Active; 'I' for Inactive)
REMARK    1  A    between atoms: C3_3  and  N1_4 
REMARK    2  A    between atoms: N1_4  and  C6_7 
REMARK    3  A    between atoms: C6_7  and  C7_8 
REMARK    4  A    between atoms: C9_10  and  C10_11 
REMARK    5  A    between atoms: C11_14  and  N4_15 
ROOT
HETATM    1  C1  LIG X 999      46.301 126.239  22.337  1.00  0.00     0.013 C 
HETATM    2  C2  LIG X 999      45.101 126.294  22.435  1.00  0.00    -0.089 C 
HETATM    3  C3  LIG X 999      43.631 126.363  22.554  1.00  0.00     0.329 C 
ENDROOT
BRANCH   3   4
HETATM    4  N1  LIG X 999      43.165 127.081  23.779  1.00  0.00    -0.061 N 
HETATM    5  C4  LIG X 999      44.340 127.544  24.563  1.00  0.00     0.273 C 
HETATM    6  C5  LIG X 999      42.414 126.120  24.625  1.00  0.00     0.273 C 
BRANCH   4   7
HETATM    7  C6  LIG X 999      42.311 128.273  23.462  1.00  0.00     0.275 C 
BRANCH   7   8
HETATM    8  C7  LIG X 999      43.089 129.529  23.117  1.00  0.00    -0.035 C 
HETATM    9  C8  LIG X 999      43.987 129.528  22.110  1.00  0.00     0.001 C 
HETATM   10  C9  LIG X 999      44.620 130.823  21.648  1.00  0.00     0.054 C 
HETATM   11  C12 LIG X 999      45.966 130.556  20.928  1.00  0.00     0.023 C 
HETATM   12  C16 LIG X 999      44.916 131.693  22.906  1.00  0.00     0.028 C 
HETATM   13  C13 LIG X 999      46.670 131.875  20.549  1.00  0.00     0.002 C 
HETATM   14  C14 LIG X 999      46.874 132.789  21.770  1.00  0.00     0.001 C 
HETATM   15  C15 LIG X 999      45.562 133.036  22.531  1.00  0.00     0.010 C 
HETATM   16  C17 LIG X 999      43.686 131.827  23.767  1.00  0.00    -0.020 C 
HETATM   17  C18 LIG X 999      42.870 130.775  23.906  1.00  0.00     0.005 C 
BRANCH  10  18
HETATM   18  C10 LIG X 999      43.637 131.469  20.683  1.00  0.00     0.184 A 
HETATM   19  N2  LIG X 999      42.526 132.146  21.045  1.00  0.00    -0.124 NA
HETATM   20  N3  LIG X 999      41.910 132.496  19.926  1.00  0.00    -0.099 NA
HETATM   21  C11 LIG X 999      42.664 132.009  18.927  1.00  0.00     0.326 A 
HETATM   22  O1  LIG X 999      43.720 131.374  19.375  1.00  0.00    -0.255 OA
BRANCH  21  23
HETATM   23  N4  LIG X 999      42.342 132.166  17.547  1.00  0.00    -0.023 NA
HETATM   24  N5  LIG X 999      43.118 131.780  16.673  1.00  0.00    -0.158 NA
HETATM   25  N6  LIG X 999      43.895 131.394  15.799  1.00  0.00     0.068 N 
ENDBRANCH  21  23
ENDBRANCH  10  18
ENDBRANCH   7   8
ENDBRANCH   4   7
ENDBRANCH   3   4
TORSDOF 5
