REMARK VINA RESULT:      -5.3      7.458      8.390
REMARK  3 active torsions:
REMARK  status: ('A' for Active; 'I' for Inactive)
REMARK    1  A    between atoms: C2_2  and  N1_3 
REMARK       I    between atoms: N2_8  and  C7_9 
REMARK    2  A    between atoms: C7_9  and  C8_11 
REMARK    3  A    between atoms: C9_12  and  C10_13 
ROOT
HETATM    1  C8  LIG X 999      45.361 126.020  22.781  1.00  0.00     0.001 C 
HETATM    2  C9  LIG X 999      46.469 125.634  22.504  1.00  0.00    -0.057 C 
ENDROOT
BRANCH   1   3
HETATM    3  C7  LIG X 999      44.041 126.491  23.103  1.00  0.00     0.313 C 
HETATM    4  N2  LIG X 999      42.947 125.571  23.249  1.00  0.00    -0.269 N 
HETATM    5  N1  LIG X 999      43.079 124.205  22.925  1.00  0.00    -0.226 NA
HETATM    6  C6  LIG X 999      41.815 125.891  24.100  1.00  0.00     0.153 C 
HETATM    7  C3  LIG X 999      42.200 123.516  23.888  1.00  0.00     0.119 C 
HETATM    8  C4  LIG X 999      41.205 124.542  24.456  1.00  0.00     0.016 C 
HETATM    9  C5  LIG X 999      39.799 124.368  23.871  1.00  0.00     0.013 C 
HETATM   10  O1  LIG X 999      43.859 127.726  23.282  1.00  0.00    -0.257 OA
BRANCH   5  11
HETATM   11  C2  LIG X 999      42.604 123.993  21.540  1.00  0.00     0.109 C 
HETATM   12  C1  LIG X 999      42.709 122.526  21.133  1.00  0.00     0.023 C 
ENDBRANCH   5  11
ENDBRANCH   1   3
BRANCH   2  13
HETATM   13  C10 LIG X 999      47.791 125.182  22.165  1.00  0.00     0.019 A 
HETATM   14  C11 LIG X 999      48.905 125.706  22.832  1.00  0.00     0.021 A 
HETATM   15  C12 LIG X 999      50.192 125.271  22.505  1.00  0.00     0.013 A 
HETATM   16  C13 LIG X 999      50.377 124.306  21.503  1.00  0.00    -0.026 A 
HETATM   17  C14 LIG X 999      51.665 123.862  21.166  1.00  0.00     0.012 A 
HETATM   18  C18 LIG X 999      49.252 123.774  20.826  1.00  0.00    -0.025 A 
HETATM   19  C15 LIG X 999      51.835 122.900  20.166  1.00  0.00     0.001 A 
HETATM   20  C16 LIG X 999      50.726 122.375  19.498  1.00  0.00     0.001 A 
HETATM   21  C17 LIG X 999      49.437 122.809  19.824  1.00  0.00     0.012 A 
HETATM   22  C19 LIG X 999      47.964 124.217  21.163  1.00  0.00     0.032 A 
ENDBRANCH   2  13
TORSDOF 3
