REMARK VINA RESULT:      -9.4      0.000      0.000
REMARK  2 active torsions:
REMARK  status: ('A' for Active; 'I' for Inactive)
REMARK    1  A    between atoms: C6_6  and  C7_7 
REMARK    2  A    between atoms: C8_11  and  N3_12 
ROOT
HETATM    1  N3  LIG X 999      46.771 131.342  13.633  1.00  0.00    -0.025 NA
HETATM    2  N4  LIG X 999      47.576 130.419  13.512  1.00  0.00    -0.158 NA
HETATM    3  N5  LIG X 999      48.382 129.497  13.390  1.00  0.00     0.068 N 
ENDROOT
BRANCH   1   4
HETATM    4  C8  LIG X 999      45.829 131.365  14.707  1.00  0.00     0.302 A 
HETATM    5  N2  LIG X 999      44.501 131.514  14.562  1.00  0.00    -0.236 N 
HETATM    6  N1  LIG X 999      43.973 131.484  15.774  1.00  0.00    -0.145 NA
HETATM    7  H5  LIG X 999      43.961 131.632  13.677  1.00  0.00     0.193 HD
HETATM    8  C7  LIG X 999      45.013 131.317  16.622  1.00  0.00     0.202 A 
HETATM    9  O1  LIG X 999      46.155 131.244  15.969  1.00  0.00    -0.253 OA
BRANCH   8  10
HETATM   10  C6  LIG X 999      44.887 131.229  18.090  1.00  0.00     0.020 A 
HETATM   11  C5  LIG X 999      43.764 131.764  18.744  1.00  0.00     0.028 A 
HETATM   12  C4  LIG X 999      43.648 131.678  20.140  1.00  0.00    -0.025 A 
HETATM   13  C3  LIG X 999      42.529 132.212  20.799  1.00  0.00     0.012 A 
HETATM   14  C11 LIG X 999      44.667 131.048  20.892  1.00  0.00    -0.026 A 
HETATM   15  C2  LIG X 999      42.424 132.119  22.190  1.00  0.00     0.001 A 
HETATM   16  C1  LIG X 999      43.431 131.497  22.932  1.00  0.00     0.001 A 
HETATM   17  C12 LIG X 999      44.550 130.961  22.289  1.00  0.00     0.012 A 
HETATM   18  C10 LIG X 999      45.786 130.515  20.235  1.00  0.00     0.013 A 
HETATM   19  C9  LIG X 999      45.893 130.605  18.845  1.00  0.00     0.017 A 
ENDBRANCH   8  10
ENDBRANCH   1   4
TORSDOF 2
