REMARK VINA RESULT:      -5.2      7.109      8.853
REMARK  1 active torsions:
REMARK  status: ('A' for Active; 'I' for Inactive)
REMARK    1  A    between atoms: C4_4  and  N1_5 
ROOT
HETATM    1  C1  LIG X 999      40.202 127.589  24.319  1.00  0.00     0.049 C 
HETATM    2  C2  LIG X 999      41.495 126.911  23.939  1.00  0.00    -0.045 C 
HETATM    3  C3  LIG X 999      42.637 127.730  23.918  1.00  0.00     0.057 C 
HETATM    4  C4  LIG X 999      43.814 127.278  23.328  1.00  0.00     0.122 C 
HETATM    5  N2  LIG X 999      43.845 126.057  22.745  1.00  0.00    -0.231 NA
HETATM    6  C5  LIG X 999      42.786 125.209  22.778  1.00  0.00     0.070 C 
HETATM    7  C6  LIG X 999      42.884 123.998  22.092  1.00  0.00     0.033 C 
HETATM    8  C7  LIG X 999      41.826 123.101  22.088  1.00  0.00     0.014 C 
HETATM    9  C8  LIG X 999      40.688 123.348  22.862  1.00  0.00    -0.025 C 
HETATM   10  C9  LIG X 999      39.677 122.375  22.924  1.00  0.00     0.012 C 
HETATM   11  C10 LIG X 999      38.598 122.537  23.788  1.00  0.00     0.001 C 
HETATM   12  C11 LIG X 999      38.539 123.648  24.625  1.00  0.00     0.001 C 
HETATM   13  C12 LIG X 999      39.530 124.631  24.563  1.00  0.00     0.013 C 
HETATM   14  C13 LIG X 999      40.583 124.551  23.621  1.00  0.00    -0.013 C 
HETATM   15  C14 LIG X 999      41.595 125.559  23.475  1.00  0.00     0.010 C 
ENDROOT
BRANCH   4  16
HETATM   16  N1  LIG X 999      44.969 128.116  23.279  1.00  0.00    -0.384 N 
HETATM   17  H5  LIG X 999      45.320 128.599  24.136  1.00  0.00     0.157 HD
HETATM   18  H6  LIG X 999      45.482 128.254  22.380  1.00  0.00     0.157 HD
ENDBRANCH   4  16
TORSDOF 1
