REMARK VINA RESULT:      -4.9      1.790      3.051
REMARK  4 active torsions:
REMARK  status: ('A' for Active; 'I' for Inactive)
REMARK    1  A    between atoms: O1_2  and  C1_3 
REMARK    2  A    between atoms: C1_3  and  O4_18 
REMARK       I    between atoms: N1_4  and  C2_5 
REMARK    3  A    between atoms: C2_5  and  C3_7 
REMARK    4  A    between atoms: O4_18  and  C13_19 
ROOT
HETATM    1  C3  LIG X 999      43.550 131.938  19.547  1.00  0.00     0.071 A 
HETATM    2  C4  LIG X 999      44.860 131.592  19.936  1.00  0.00     0.123 A 
HETATM    3  O3  LIG X 999      45.277 131.749  21.254  1.00  0.00    -0.191 OA
HETATM    4  C5  LIG X 999      45.769 131.103  18.992  1.00  0.00     0.053 A 
HETATM    5  C6  LIG X 999      45.394 130.971  17.649  1.00  0.00    -0.023 A 
HETATM    6  C7  LIG X 999      46.302 130.483  16.696  1.00  0.00     0.012 A 
HETATM    7  C8  LIG X 999      45.918 130.360  15.358  1.00  0.00     0.001 A 
HETATM    8  C9  LIG X 999      44.629 130.724  14.960  1.00  0.00     0.001 A 
HETATM    9  C10 LIG X 999      43.716 131.212  15.899  1.00  0.00     0.012 A 
HETATM   10  C11 LIG X 999      44.089 131.340  17.246  1.00  0.00    -0.025 A 
HETATM   11  C12 LIG X 999      43.179 131.826  18.197  1.00  0.00     0.032 A 
ENDROOT
BRANCH   1  12
HETATM   12  C2  LIG X 999      42.568 132.455  20.529  1.00  0.00     0.283 C 
HETATM   13  N1  LIG X 999      42.630 132.124  21.925  1.00  0.00    -0.162 NA
HETATM   14  C1  LIG X 999      43.004 130.980  22.419  1.00  0.00     0.289 C 
HETATM   15  O2  LIG X 999      41.666 133.241  20.136  1.00  0.00    -0.265 OA
BRANCH  14  16
HETATM   16  O1  LIG X 999      43.316 129.912  21.581  1.00  0.00    -0.325 OA
HETATM   17  H1  LIG X 999      43.204 129.993  20.578  1.00  0.00     0.221 HD
ENDBRANCH  14  16
BRANCH  14  18
HETATM   18  O4  LIG X 999      43.072 130.785  23.807  1.00  0.00    -0.294 OA
BRANCH  18  19
HETATM   19  C13 LIG X 999      42.966 129.523  24.475  1.00  0.00     0.224 C 
HETATM   20 CL1  LIG X 999      44.427 128.526  24.218  1.00  0.00    -0.095 Cl
HETATM   21  C14 LIG X 999      41.706 128.771  24.051  1.00  0.00     0.057 C 
ENDBRANCH  18  19
ENDBRANCH  14  18
ENDBRANCH   1  12
TORSDOF 4
