REMARK VINA RESULT:      -8.3      1.475      2.206
REMARK  6 active torsions:
REMARK  status: ('A' for Active; 'I' for Inactive)
REMARK    1  A    between atoms: C4_5  and  C5_6 
REMARK       I    between atoms: C5_6  and  N2_8 
REMARK    2  A    between atoms: N2_8  and  C6_9 
REMARK    3  A    between atoms: C6_9  and  O2_10 
REMARK    4  A    between atoms: O2_10  and  C7_11 
REMARK    5  A    between atoms: C7_11  and  O4_13 
REMARK    6  A    between atoms: O4_13  and  C8_14 
ROOT
HETATM    1  C7  LIG X 999      44.235 132.059  19.355  1.00  0.00     0.413 C 
HETATM    2  O3  LIG X 999      45.297 132.112  20.033  1.00  0.00    -0.229 OA
ENDROOT
BRANCH   1   3
HETATM    3  O2  LIG X 999      43.003 131.851  19.981  1.00  0.00    -0.276 OA
BRANCH   3   4
HETATM    4  C6  LIG X 999      42.821 131.855  21.395  1.00  0.00     0.334 C 
BRANCH   4   5
HETATM    5  N2  LIG X 999      43.077 130.525  21.936  1.00  0.00    -0.224 NA
HETATM    6  C5  LIG X 999      43.886 130.264  23.089  1.00  0.00     0.292 C 
HETATM    7  O1  LIG X 999      44.338 131.215  23.782  1.00  0.00    -0.264 OA
BRANCH   6   8
HETATM    8  C4  LIG X 999      44.176 128.877  23.475  1.00  0.00     0.119 A 
HETATM    9  C3  LIG X 999      43.651 128.204  24.567  1.00  0.00     0.055 A 
HETATM   10  C2  LIG X 999      44.232 126.950  24.518  1.00  0.00     0.112 A 
HETATM   11  N1  LIG X 999      45.043 126.895  23.443  1.00  0.00    -0.307 N 
HETATM   12  C1  LIG X 999      45.902 125.778  23.075  1.00  0.00     0.177 C 
HETATM   13  N3  LIG X 999      45.022 128.061  22.818  1.00  0.00    -0.294 N 
HETATM   14  H15 LIG X 999      45.584 128.294  21.969  1.00  0.00     0.187 HD
ENDBRANCH   6   8
ENDBRANCH   4   5
ENDBRANCH   3   4
ENDBRANCH   1   3
BRANCH   1  15
HETATM   15  O4  LIG X 999      44.271 132.161  17.960  1.00  0.00    -0.256 OA
BRANCH  15  16
HETATM   16  C8  LIG X 999      45.081 131.394  17.109  1.00  0.00     0.082 A 
HETATM   17  C9  LIG X 999      45.422 130.060  17.399  1.00  0.00     0.038 A 
HETATM   18  C10 LIG X 999      46.240 129.332  16.530  1.00  0.00     0.015 A 
HETATM   19  C11 LIG X 999      46.736 129.929  15.362  1.00  0.00    -0.026 A 
HETATM   20  C12 LIG X 999      47.556 129.207  14.481  1.00  0.00     0.012 A 
HETATM   21  C16 LIG X 999      46.412 131.276  15.074  1.00  0.00    -0.023 A 
HETATM   22  C13 LIG X 999      48.049 129.816  13.324  1.00  0.00     0.001 A 
HETATM   23  C14 LIG X 999      47.729 131.145  13.038  1.00  0.00     0.001 A 
HETATM   24  C15 LIG X 999      46.915 131.876  13.908  1.00  0.00     0.012 A 
HETATM   25  C17 LIG X 999      45.592 131.998  15.954  1.00  0.00     0.049 A 
ENDBRANCH  15  16
ENDBRANCH   1  15
TORSDOF 6
