REMARK VINA RESULT:      -5.2      2.089      8.505
REMARK  6 active torsions:
REMARK  status: ('A' for Active; 'I' for Inactive)
REMARK    1  A    between atoms: C2_2  and  C3_3 
REMARK    2  A    between atoms: C3_3  and  O1_4 
REMARK    3  A    between atoms: O1_4  and  C4_5 
REMARK    4  A    between atoms: C4_5  and  C6_7 
REMARK    5  A    between atoms: C6_7  and  C7_8 
REMARK       I    between atoms: N1_10  and  C9_11 
REMARK    6  A    between atoms: C9_11  and  C10_13 
ROOT
HETATM    1  C7  LIG X 999      44.918 130.660  20.679  1.00  0.00     0.043 A 
HETATM    2  C8  LIG X 999      44.257 130.431  21.868  1.00  0.00     0.144 A 
HETATM    3  N1  LIG X 999      44.695 129.239  22.321  1.00  0.00    -0.213 N 
HETATM    4  C9  LIG X 999      44.329 128.611  23.560  1.00  0.00     0.274 C 
HETATM    5  O2  LIG X 999      43.731 129.288  24.441  1.00  0.00    -0.266 OA
HETATM    6  N2  LIG X 999      45.591 128.767  21.465  1.00  0.00    -0.013 NA
HETATM    7  N3  LIG X 999      45.736 129.614  20.459  1.00  0.00    -0.286 N 
HETATM    8  H20 LIG X 999      46.378 129.473  19.649  1.00  0.00     0.184 HD
ENDROOT
BRANCH   4   9
HETATM    9  C10 LIG X 999      44.653 127.193  23.838  1.00  0.00     0.034 A 
HETATM   10  C11 LIG X 999      43.618 126.268  24.048  1.00  0.00     0.018 A 
HETATM   11  C12 LIG X 999      43.905 124.924  24.303  1.00  0.00     0.013 A 
HETATM   12  C13 LIG X 999      45.233 124.481  24.340  1.00  0.00    -0.026 A 
HETATM   13  C14 LIG X 999      45.532 123.133  24.595  1.00  0.00     0.012 A 
HETATM   14  C18 LIG X 999      46.284 125.402  24.114  1.00  0.00    -0.025 A 
HETATM   15  C15 LIG X 999      46.861 122.703  24.624  1.00  0.00     0.001 A 
HETATM   16  C16 LIG X 999      47.899 123.611  24.400  1.00  0.00     0.001 A 
HETATM   17  C17 LIG X 999      47.616 124.956  24.145  1.00  0.00     0.012 A 
HETATM   18  C19 LIG X 999      45.987 126.749  23.860  1.00  0.00     0.029 A 
ENDBRANCH   4   9
BRANCH   1  19
HETATM   19  C6  LIG X 999      44.813 131.873  19.800  1.00  0.00     0.091 C 
BRANCH  19  20
HETATM   20  C4  LIG X 999      44.232 131.555  18.407  1.00  0.00     0.123 C 
HETATM   21  C5  LIG X 999      42.810 132.102  18.255  1.00  0.00     0.040 C 
BRANCH  20  22
HETATM   22  O1  LIG X 999      45.043 132.116  17.385  1.00  0.00    -0.382 OA
BRANCH  22  23
HETATM   23  C3  LIG X 999      45.509 131.114  16.504  1.00  0.00     0.194 C 
BRANCH  23  24
HETATM   24  C2  LIG X 999      45.981 131.751  15.232  1.00  0.00    -0.011 C 
HETATM   25  C1  LIG X 999      46.343 131.019  14.175  1.00  0.00     0.009 C 
ENDBRANCH  23  24
ENDBRANCH  22  23
ENDBRANCH  20  22
ENDBRANCH  19  20
ENDBRANCH   1  19
TORSDOF 6
