REMARK VINA RESULT:      -8.9      0.000      0.000
REMARK  2 active torsions:
REMARK  status: ('A' for Active; 'I' for Inactive)
REMARK    1  A    between atoms: C1_2  and  C2_4 
REMARK    2  A    between atoms: C3_5  and  C4_6 
ROOT
HETATM    1  C4  LIG X 999      45.230 131.084  16.931  1.00  0.00     0.019 A 
HETATM    2  C5  LIG X 999      43.928 131.567  16.750  1.00  0.00     0.021 A 
HETATM    3  C6  LIG X 999      43.118 131.839  17.856  1.00  0.00     0.013 A 
HETATM    4  C7  LIG X 999      43.605 131.631  19.155  1.00  0.00    -0.026 A 
HETATM    5  C8  LIG X 999      42.800 131.901  20.273  1.00  0.00     0.012 A 
HETATM    6  C9  LIG X 999      43.297 131.689  21.563  1.00  0.00     0.001 A 
HETATM    7  C10 LIG X 999      44.597 131.208  21.746  1.00  0.00     0.001 A 
HETATM    8  C11 LIG X 999      45.409 130.935  20.641  1.00  0.00     0.012 A 
HETATM    9  C12 LIG X 999      44.922 131.143  19.340  1.00  0.00    -0.025 A 
HETATM   10  C13 LIG X 999      45.727 130.873  18.223  1.00  0.00     0.032 A 
ENDROOT
BRANCH   1  11
HETATM   11  C3  LIG X 999      46.059 130.806  15.786  1.00  0.00    -0.056 C 
HETATM   12  C2  LIG X 999      46.752 130.572  14.828  1.00  0.00     0.010 C 
BRANCH  12  13
HETATM   13  C1  LIG X 999      47.576 130.295  13.686  1.00  0.00     0.258 C 
HETATM   14  O1  LIG X 999      48.309 129.273  13.673  1.00  0.00    -0.637 OA
HETATM   15  O2  LIG X 999      47.566 131.156  12.598  1.00  0.00    -0.637 OA
ENDBRANCH  12  13
ENDBRANCH   1  11
TORSDOF 2
