REMARK VINA RESULT:      -8.3      0.000      0.000
REMARK  7 active torsions:
REMARK  status: ('A' for Active; 'I' for Inactive)
REMARK    1  A    between atoms: C2_2  and  C4_4 
REMARK    2  A    between atoms: C4_4  and  C5_5 
REMARK       I    between atoms: C5_5  and  N1_7 
REMARK    3  A    between atoms: N1_7  and  C6_8 
REMARK    4  A    between atoms: C6_8  and  C7_9 
REMARK    5  A    between atoms: C7_9  and  C8_10 
REMARK    6  A    between atoms: C8_10  and  O2_11 
REMARK    7  A    between atoms: O2_11  and  C9_12 
ROOT
HETATM    1  O2  LIG X 999      44.914 130.669  18.600  1.00  0.00    -0.351 OA
ENDROOT
BRANCH   1   2
HETATM    2  C8  LIG X 999      44.827 131.640  19.645  1.00  0.00     0.177 C 
BRANCH   2   3
HETATM    3  C7  LIG X 999      43.412 131.725  20.241  1.00  0.00     0.048 C 
BRANCH   3   4
HETATM    4  C6  LIG X 999      43.383 131.498  21.759  1.00  0.00     0.154 C 
BRANCH   4   5
HETATM    5  N1  LIG X 999      44.255 130.393  22.148  1.00  0.00    -0.256 NA
HETATM    6  C5  LIG X 999      43.832 129.296  22.965  1.00  0.00     0.238 C 
HETATM    7  O1  LIG X 999      42.627 129.192  23.322  1.00  0.00    -0.272 OA
BRANCH   6   8
HETATM    8  C4  LIG X 999      44.825 128.258  23.389  1.00  0.00     0.108 C 
BRANCH   8   9
HETATM    9  C2  LIG X 999      44.678 126.954  22.579  1.00  0.00    -0.014 C 
HETATM   10  C1  LIG X 999      46.046 126.325  22.272  1.00  0.00     0.010 C 
HETATM   11  C3  LIG X 999      43.800 125.956  23.342  1.00  0.00     0.010 C 
ENDBRANCH   8   9
ENDBRANCH   6   8
ENDBRANCH   4   5
ENDBRANCH   3   4
ENDBRANCH   2   3
ENDBRANCH   1   2
BRANCH   1  12
HETATM   12  C9  LIG X 999      45.518 130.861  17.347  1.00  0.00     0.069 A 
HETATM   13  C10 LIG X 999      45.316 132.086  16.703  1.00  0.00     0.037 A 
HETATM   14  C11 LIG X 999      45.852 132.326  15.436  1.00  0.00     0.015 A 
HETATM   15  C12 LIG X 999      46.610 131.339  14.795  1.00  0.00    -0.026 A 
HETATM   16  C13 LIG X 999      47.143 131.563  13.516  1.00  0.00     0.012 A 
HETATM   17  C17 LIG X 999      46.841 130.102  15.444  1.00  0.00    -0.023 A 
HETATM   18  C14 LIG X 999      47.901 130.570  12.888  1.00  0.00     0.001 A 
HETATM   19  C15 LIG X 999      48.132 129.350  13.529  1.00  0.00     0.001 A 
HETATM   20  C16 LIG X 999      47.606 129.115  14.803  1.00  0.00     0.012 A 
HETATM   21  C18 LIG X 999      46.302 129.873  16.720  1.00  0.00     0.049 A 
ENDBRANCH   1  12
TORSDOF 7
