REMARK VINA RESULT:      -4.8      5.653      7.321
REMARK  4 active torsions:
REMARK  status: ('A' for Active; 'I' for Inactive)
REMARK    1  A    between atoms: C5_5  and  N1_6 
REMARK    2  A    between atoms: C7_10  and  S1_11 
REMARK    3  A    between atoms: S1_11  and  C8_14 
REMARK    4  A    between atoms: C8_14  and  C9_15 
ROOT
HETATM    1  N1  LIG X 999      45.918 130.106  20.781  1.00  0.00    -0.072 NA
HETATM    2  N2  LIG X 999      45.429 130.634  19.781  1.00  0.00    -0.162 NA
HETATM    3  N3  LIG X 999      44.941 131.161  18.783  1.00  0.00     0.068 N 
ENDROOT
BRANCH   1   4
HETATM    4  C5  LIG X 999      45.132 129.357  21.723  1.00  0.00     0.105 A 
HETATM    5  C4  LIG X 999      44.169 130.017  22.519  1.00  0.00     0.006 A 
HETATM    6  C3  LIG X 999      43.955 131.407  22.411  1.00  0.00     0.014 A 
HETATM    7  C13 LIG X 999      43.400 129.274  23.451  1.00  0.00    -0.022 A 
HETATM    8  C2  LIG X 999      43.002 132.040  23.213  1.00  0.00     0.001 A 
HETATM    9  C1  LIG X 999      42.251 131.302  24.129  1.00  0.00     0.001 A 
HETATM   10  C14 LIG X 999      42.447 129.925  24.251  1.00  0.00     0.012 A 
HETATM   11  C12 LIG X 999      43.595 127.892  23.575  1.00  0.00     0.035 A 
HETATM   12  C7  LIG X 999      44.546 127.238  22.784  1.00  0.00     0.063 A 
HETATM   13  C6  LIG X 999      45.313 127.968  21.869  1.00  0.00     0.058 A 
BRANCH  12  14
HETATM   14  S1  LIG X 999      44.811 125.507  22.977  1.00  0.00     0.186 S 
HETATM   15  O1  LIG X 999      44.775 125.149  24.437  1.00  0.00    -0.222 OA
HETATM   16  O2  LIG X 999      46.160 125.133  22.427  1.00  0.00    -0.222 OA
BRANCH  14  17
HETATM   17  C8  LIG X 999      43.540 124.604  22.115  1.00  0.00     0.239 C 
BRANCH  17  18
HETATM   18  C9  LIG X 999      42.232 124.896  22.706  1.00  0.00    -0.092 C 
HETATM   19  C10 LIG X 999      41.160 125.152  23.194  1.00  0.00    -0.110 C 
HETATM   20  C11 LIG X 999      39.862 125.473  23.785  1.00  0.00     0.112 C 
ENDBRANCH  17  18
ENDBRANCH  14  17
ENDBRANCH  12  14
ENDBRANCH   1   4
TORSDOF 4
