REMARK VINA RESULT:      -6.9      1.701      2.110
REMARK  3 active torsions:
REMARK  status: ('A' for Active; 'I' for Inactive)
REMARK    1  A    between atoms: C3_3  and  S1_4 
REMARK    2  A    between atoms: S1_4  and  C4_7 
REMARK    3  A    between atoms: C13_16  and  N1_17 
ROOT
HETATM    1  C1  LIG X 999      43.167 131.801  13.841  1.00  0.00     0.013 C 
HETATM    2  C2  LIG X 999      43.853 130.968  14.379  1.00  0.00    -0.102 C 
HETATM    3  C3  LIG X 999      44.690 129.958  15.031  1.00  0.00     0.238 C 
ENDROOT
BRANCH   3   4
HETATM    4  S1  LIG X 999      45.948 130.748  16.015  1.00  0.00     0.185 S 
HETATM    5  O1  LIG X 999      47.181 129.890  16.045  1.00  0.00    -0.222 OA
HETATM    6  O2  LIG X 999      46.302 132.074  15.402  1.00  0.00    -0.222 OA
BRANCH   4   7
HETATM    7  C4  LIG X 999      45.351 131.002  17.654  1.00  0.00     0.060 A 
HETATM    8  C5  LIG X 999      46.120 130.607  18.753  1.00  0.00     0.024 A 
HETATM    9  C6  LIG X 999      45.634 130.781  20.050  1.00  0.00     0.011 A 
HETATM   10  C7  LIG X 999      44.359 131.335  20.271  1.00  0.00    -0.019 A 
HETATM   11  C8  LIG X 999      43.598 131.773  19.159  1.00  0.00    -0.048 A 
HETATM   12  C13 LIG X 999      43.887 131.569  21.699  1.00  0.00     0.251 C 
HETATM   13  C9  LIG X 999      44.092 131.574  17.859  1.00  0.00     0.031 A 
HETATM   14  C10 LIG X 999      42.221 132.369  19.326  1.00  0.00     0.039 C 
HETATM   15  C11 LIG X 999      42.006 132.945  20.726  1.00  0.00     0.007 C 
HETATM   16  C12 LIG X 999      42.385 131.909  21.782  1.00  0.00     0.040 C 
BRANCH  12  17
HETATM   17  N1  LIG X 999      44.191 130.406  22.537  1.00  0.00     0.087 N 
HETATM   18  H14 LIG X 999      44.921 129.821  22.067  1.00  0.00     0.313 HD
HETATM   19  H15 LIG X 999      43.328 129.821  22.628  1.00  0.00     0.313 HD
ENDBRANCH  12  17
ENDBRANCH   4   7
ENDBRANCH   3   4
TORSDOF 3
