REMARK VINA RESULT:      -8.7      0.000      0.000
REMARK  5 active torsions:
REMARK  status: ('A' for Active; 'I' for Inactive)
REMARK    1  A    between atoms: C3_3  and  O1_4 
REMARK    2  A    between atoms: O1_4  and  C4_5 
REMARK    3  A    between atoms: C4_5  and  C5_7 
REMARK    4  A    between atoms: C5_7  and  C6_8 
REMARK    5  A    between atoms: C11_13  and  O3_14 
ROOT
HETATM    1  C1  LIG X 999      47.626 131.371  12.637  1.00  0.00     0.014 C 
HETATM    2  C2  LIG X 999      47.754 130.420  13.367  1.00  0.00    -0.091 C 
HETATM    3  C3  LIG X 999      47.909 129.263  14.255  1.00  0.00     0.271 C 
ENDROOT
BRANCH   3   4
HETATM    4  O1  LIG X 999      47.249 129.500  15.496  1.00  0.00    -0.309 OA
BRANCH   4   5
HETATM    5  C4  LIG X 999      45.918 129.924  15.590  1.00  0.00     0.263 C 
HETATM    6  O2  LIG X 999      44.969 129.124  15.366  1.00  0.00    -0.265 OA
BRANCH   5   7
HETATM    7  C5  LIG X 999      45.625 131.355  15.909  1.00  0.00     0.149 C 
BRANCH   7   8
HETATM    8  C6  LIG X 999      44.831 131.444  17.183  1.00  0.00    -0.048 A 
HETATM    9  C7  LIG X 999      43.462 131.750  17.142  1.00  0.00     0.008 A 
HETATM   10  C8  LIG X 999      42.725 131.868  18.323  1.00  0.00     0.013 A 
HETATM   11  C9  LIG X 999      43.352 131.693  19.566  1.00  0.00    -0.023 A 
HETATM   12  C10 LIG X 999      42.620 131.811  20.758  1.00  0.00     0.049 A 
HETATM   13  C15 LIG X 999      44.735 131.398  19.617  1.00  0.00    -0.025 A 
HETATM   14  C11 LIG X 999      43.256 131.639  22.003  1.00  0.00     0.069 A 
HETATM   15  C13 LIG X 999      44.625 131.348  22.040  1.00  0.00     0.037 A 
HETATM   16  C14 LIG X 999      45.362 131.229  20.859  1.00  0.00     0.015 A 
HETATM   17  C16 LIG X 999      45.466 131.281  18.425  1.00  0.00     0.020 A 
BRANCH  14  18
HETATM   18  O3  LIG X 999      42.568 131.747  23.221  1.00  0.00    -0.356 OA
HETATM   19  C12 LIG X 999      43.191 131.992  24.478  1.00  0.00     0.210 C 
ENDBRANCH  14  18
ENDBRANCH   7   8
ENDBRANCH   5   7
ENDBRANCH   4   5
ENDBRANCH   3   4
TORSDOF 5
