MODEL 1
REMARK VINA RESULT:      -8.2      0.000      0.000
REMARK  2 active torsions:
REMARK  status: ('A' for Active; 'I' for Inactive)
REMARK    1  A    between atoms: C2_2  and  N1_3 
REMARK    2  A    between atoms: C3_6  and  O1_7 
ROOT
HETATM    1  N1  LIG X 999      46.714 129.904  14.945  1.00  0.00    -0.070 NA
HETATM    2  N2  LIG X 999      47.226 130.654  14.113  1.00  0.00    -0.162 NA
HETATM    3  N3  LIG X 999      47.739 131.402  13.282  1.00  0.00     0.068 N 
ENDROOT
BRANCH   1   4
HETATM    4  C2  LIG X 999      45.862 130.387  15.995  1.00  0.00     0.127 A 
HETATM    5  C1  LIG X 999      46.166 130.152  17.349  1.00  0.00     0.049 A 
HETATM    6  C11 LIG X 999      45.324 130.630  18.361  1.00  0.00    -0.023 A 
HETATM    7  C6  LIG X 999      44.153 131.358  18.014  1.00  0.00    -0.022 A 
HETATM    8  C10 LIG X 999      45.627 130.396  19.717  1.00  0.00     0.021 A 
HETATM    9  C5  LIG X 999      43.855 131.590  16.665  1.00  0.00     0.051 A 
HETATM   10  C7  LIG X 999      43.304 131.843  19.029  1.00  0.00     0.021 A 
HETATM   11  C3  LIG X 999      44.706 131.107  15.651  1.00  0.00     0.100 A 
HETATM   12  C8  LIG X 999      43.636 131.585  20.359  1.00  0.00    -0.024 A 
HETATM   13  C9  LIG X 999      44.758 130.887  20.691  1.00  0.00    -0.024 A 
HETATM   14  C15 LIG X 999      42.911 132.012  21.575  1.00  0.00     0.276 C 
HETATM   15  C12 LIG X 999      44.887 130.782  22.160  1.00  0.00     0.276 C 
HETATM   16  N4  LIG X 999      43.624 131.360  22.720  1.00  0.00    -0.067 N 
HETATM   17  C13 LIG X 999      42.783 130.281  23.292  1.00  0.00     0.272 C 
HETATM   18  C14 LIG X 999      43.925 132.348  23.779  1.00  0.00     0.272 C 
BRANCH  11  19
HETATM   19  O1  LIG X 999      44.435 131.322  14.290  1.00  0.00    -0.353 OA
HETATM   20  C4  LIG X 999      43.152 131.646  13.762  1.00  0.00     0.210 C 
ENDBRANCH  11  19
ENDBRANCH   1   4
TORSDOF 2
ENDMDL
MODEL 2
REMARK VINA RESULT:      -7.4      1.732      2.730
REMARK  2 active torsions:
REMARK  status: ('A' for Active; 'I' for Inactive)
REMARK    1  A    between atoms: C2_2  and  N1_3 
REMARK    2  A    between atoms: C3_6  and  O1_7 
ROOT
HETATM    1  N1  LIG X 999      44.892 131.981  15.195  1.00  0.00    -0.070 NA
HETATM    2  N2  LIG X 999      43.932 131.685  14.482  1.00  0.00    -0.162 NA
HETATM    3  N3  LIG X 999      42.974 131.390  13.770  1.00  0.00     0.068 N 
ENDROOT
BRANCH   1   4
HETATM    4  C2  LIG X 999      45.009 131.534  16.555  1.00  0.00     0.127 A 
HETATM    5  C1  LIG X 999      44.122 131.983  17.551  1.00  0.00     0.049 A 
HETATM    6  C11 LIG X 999      44.251 131.536  18.872  1.00  0.00    -0.023 A 
HETATM    7  C6  LIG X 999      45.288 130.622  19.206  1.00  0.00    -0.022 A 
HETATM    8  C10 LIG X 999      43.363 131.983  19.870  1.00  0.00     0.021 A 
HETATM    9  C5  LIG X 999      46.168 130.178  18.211  1.00  0.00     0.051 A 
HETATM   10  C7  LIG X 999      45.420 130.168  20.534  1.00  0.00     0.021 A 
HETATM   11  C3  LIG X 999      46.034 130.631  16.883  1.00  0.00     0.100 A 
HETATM   12  C8  LIG X 999      44.524 130.640  21.494  1.00  0.00    -0.024 A 
HETATM   13  C9  LIG X 999      43.531 131.515  21.174  1.00  0.00    -0.024 A 
HETATM   14  C15 LIG X 999      44.461 130.286  22.929  1.00  0.00     0.276 C 
HETATM   15  C12 LIG X 999      42.711 131.829  22.363  1.00  0.00     0.276 C 
HETATM   16  N4  LIG X 999      43.405 131.170  23.516  1.00  0.00    -0.067 N 
HETATM   17  C13 LIG X 999      44.029 132.195  24.386  1.00  0.00     0.272 C 
HETATM   18  C14 LIG X 999      42.446 130.377  24.319  1.00  0.00     0.272 C 
BRANCH  11  19
HETATM   19  O1  LIG X 999      46.901 130.205  15.863  1.00  0.00    -0.353 OA
HETATM   20  C4  LIG X 999      46.582 129.212  14.893  1.00  0.00     0.210 C 
ENDBRANCH  11  19
ENDBRANCH   1   4
TORSDOF 2
ENDMDL
MODEL 3
REMARK VINA RESULT:      -6.8      2.620      7.100
REMARK  2 active torsions:
REMARK  status: ('A' for Active; 'I' for Inactive)
REMARK    1  A    between atoms: C2_2  and  N1_3 
REMARK    2  A    between atoms: C3_6  and  O1_7 
ROOT
HETATM    1  N1  LIG X 999      44.478 130.154  24.022  1.00  0.00    -0.070 NA
HETATM    2  N2  LIG X 999      44.647 128.971  24.323  1.00  0.00    -0.162 NA
HETATM    3  N3  LIG X 999      44.817 127.791  24.625  1.00  0.00     0.068 N 
ENDROOT
BRANCH   1   4
HETATM    4  C2  LIG X 999      44.233 130.578  22.672  1.00  0.00     0.127 A 
HETATM    5  C1  LIG X 999      45.076 130.181  21.617  1.00  0.00     0.049 A 
HETATM    6  C11 LIG X 999      44.821 130.604  20.307  1.00  0.00    -0.023 A 
HETATM    7  C6  LIG X 999      43.703 131.442  20.043  1.00  0.00    -0.022 A 
HETATM    8  C10 LIG X 999      45.663 130.206  19.249  1.00  0.00     0.021 A 
HETATM    9  C5  LIG X 999      42.868 131.834  21.097  1.00  0.00     0.051 A 
HETATM   10  C7  LIG X 999      43.442 131.867  18.725  1.00  0.00     0.021 A 
HETATM   11  C3  LIG X 999      43.127 131.406  22.414  1.00  0.00     0.100 A 
HETATM   12  C8  LIG X 999      44.303 131.457  17.707  1.00  0.00    -0.024 A 
HETATM   13  C9  LIG X 999      45.375 130.655  17.959  1.00  0.00    -0.024 A 
HETATM   14  C15 LIG X 999      44.211 131.761  16.263  1.00  0.00     0.276 C 
HETATM   15  C12 LIG X 999      46.099 130.348  16.708  1.00  0.00     0.276 C 
HETATM   16  N4  LIG X 999      45.451 131.186  15.649  1.00  0.00    -0.067 N 
HETATM   17  C13 LIG X 999      46.365 132.277  15.236  1.00  0.00     0.272 C 
HETATM   18  C14 LIG X 999      45.115 130.365  14.465  1.00  0.00     0.272 C 
BRANCH  11  19
HETATM   19  O1  LIG X 999      42.309 131.782  23.492  1.00  0.00    -0.353 OA
HETATM   20  C4  LIG X 999      42.753 132.523  24.624  1.00  0.00     0.210 C 
ENDBRANCH  11  19
ENDBRANCH   1   4
TORSDOF 2
ENDMDL
MODEL 4
REMARK VINA RESULT:      -5.9      2.284      6.882
REMARK  2 active torsions:
REMARK  status: ('A' for Active; 'I' for Inactive)
REMARK    1  A    between atoms: C2_2  and  N1_3 
REMARK    2  A    between atoms: C3_6  and  O1_7 
ROOT
HETATM    1  N1  LIG X 999      43.817 131.557  23.232  1.00  0.00    -0.070 NA
HETATM    2  N2  LIG X 999      44.042 130.518  23.854  1.00  0.00    -0.162 NA
HETATM    3  N3  LIG X 999      44.268 129.481  24.476  1.00  0.00     0.068 N 
ENDROOT
BRANCH   1   4
HETATM    4  C2  LIG X 999      43.752 131.598  21.798  1.00  0.00     0.127 A 
HETATM    5  C1  LIG X 999      44.796 131.089  21.004  1.00  0.00     0.049 A 
HETATM    6  C11 LIG X 999      44.715 131.137  19.607  1.00  0.00    -0.023 A 
HETATM    7  C6  LIG X 999      43.568 131.706  18.989  1.00  0.00    -0.022 A 
HETATM    8  C10 LIG X 999      45.759 130.626  18.810  1.00  0.00     0.021 A 
HETATM    9  C5  LIG X 999      42.531 132.212  19.784  1.00  0.00     0.051 A 
HETATM   10  C7  LIG X 999      43.481 131.754  17.583  1.00  0.00     0.021 A 
HETATM   11  C3  LIG X 999      42.617 132.161  21.190  1.00  0.00     0.100 A 
HETATM   12  C8  LIG X 999      44.539 131.244  16.829  1.00  0.00    -0.024 A 
HETATM   13  C9  LIG X 999      45.638 130.699  17.422  1.00  0.00    -0.024 A 
HETATM   14  C15 LIG X 999      44.652 131.170  15.357  1.00  0.00     0.276 C 
HETATM   15  C12 LIG X 999      46.589 130.210  16.401  1.00  0.00     0.276 C 
HETATM   16  N4  LIG X 999      46.033 130.658  15.084  1.00  0.00    -0.067 N 
HETATM   17  C13 LIG X 999      46.873 131.741  14.521  1.00  0.00     0.272 C 
HETATM   18  C14 LIG X 999      45.992 129.532  14.124  1.00  0.00     0.272 C 
BRANCH  11  19
HETATM   19  O1  LIG X 999      41.595 132.659  22.014  1.00  0.00    -0.353 OA
HETATM   20  C4  LIG X 999      40.627 133.622  21.609  1.00  0.00     0.210 C 
ENDBRANCH  11  19
ENDBRANCH   1   4
TORSDOF 2
ENDMDL
MODEL 5
REMARK VINA RESULT:      -5.8      2.598      7.442
REMARK  2 active torsions:
REMARK  status: ('A' for Active; 'I' for Inactive)
REMARK    1  A    between atoms: C2_2  and  N1_3 
REMARK    2  A    between atoms: C3_6  and  O1_7 
ROOT
HETATM    1  N1  LIG X 999      42.284 131.666  23.301  1.00  0.00    -0.070 NA
HETATM    2  N2  LIG X 999      41.690 130.814  23.963  1.00  0.00    -0.162 NA
HETATM    3  N3  LIG X 999      41.096 129.965  24.625  1.00  0.00     0.068 N 
ENDROOT
BRANCH   1   4
HETATM    4  C2  LIG X 999      43.182 131.324  22.233  1.00  0.00     0.127 A 
HETATM    5  C1  LIG X 999      42.932 131.732  20.909  1.00  0.00     0.049 A 
HETATM    6  C11 LIG X 999      43.818 131.389  19.881  1.00  0.00    -0.023 A 
HETATM    7  C6  LIG X 999      44.978 130.623  20.179  1.00  0.00    -0.022 A 
HETATM    8  C10 LIG X 999      43.570 131.798  18.556  1.00  0.00     0.021 A 
HETATM    9  C5  LIG X 999      45.222 130.220  21.499  1.00  0.00     0.051 A 
HETATM   10  C7  LIG X 999      45.874 130.279  19.147  1.00  0.00     0.021 A 
HETATM   11  C3  LIG X 999      44.328 130.567  22.530  1.00  0.00     0.100 A 
HETATM   12  C8  LIG X 999      45.590 130.697  17.847  1.00  0.00    -0.024 A 
HETATM   13  C9  LIG X 999      44.478 131.430  17.561  1.00  0.00    -0.024 A 
HETATM   14  C15 LIG X 999      46.391 130.471  16.625  1.00  0.00     0.276 C 
HETATM   15  C12 LIG X 999      44.432 131.764  16.122  1.00  0.00     0.276 C 
HETATM   16  N4  LIG X 999      45.569 131.014  15.497  1.00  0.00    -0.067 N 
HETATM   17  C13 LIG X 999      45.047 129.901  14.669  1.00  0.00     0.272 C 
HETATM   18  C14 LIG X 999      46.380 131.911  14.643  1.00  0.00     0.272 C 
BRANCH  11  19
HETATM   19  O1  LIG X 999      44.544 130.178  23.862  1.00  0.00    -0.353 OA
HETATM   20  C4  LIG X 999      44.545 128.830  24.321  1.00  0.00     0.210 C 
ENDBRANCH  11  19
ENDBRANCH   1   4
TORSDOF 2
ENDMDL
MODEL 6
REMARK VINA RESULT:      -5.2      5.009      7.328
REMARK  2 active torsions:
REMARK  status: ('A' for Active; 'I' for Inactive)
REMARK    1  A    between atoms: C2_2  and  N1_3 
REMARK    2  A    between atoms: C3_6  and  O1_7 
ROOT
HETATM    1  N1  LIG X 999      44.872 131.480  21.328  1.00  0.00    -0.070 NA
HETATM    2  N2  LIG X 999      44.781 131.546  20.101  1.00  0.00    -0.162 NA
HETATM    3  N3  LIG X 999      44.689 131.614  18.877  1.00  0.00     0.068 N 
ENDROOT
BRANCH   1   4
HETATM    4  C2  LIG X 999      44.556 130.286  22.060  1.00  0.00     0.127 A 
HETATM    5  C1  LIG X 999      45.176 129.058  21.759  1.00  0.00     0.049 A 
HETATM    6  C11 LIG X 999      44.856 127.904  22.484  1.00  0.00    -0.023 A 
HETATM    7  C6  LIG X 999      43.897 127.975  23.532  1.00  0.00    -0.022 A 
HETATM    8  C10 LIG X 999      45.476 126.675  22.185  1.00  0.00     0.021 A 
HETATM    9  C5  LIG X 999      43.284 129.200  23.827  1.00  0.00     0.051 A 
HETATM   10  C7  LIG X 999      43.574 126.816  24.265  1.00  0.00     0.021 A 
HETATM   11  C3  LIG X 999      43.609 130.359  23.096  1.00  0.00     0.100 A 
HETATM   12  C8  LIG X 999      44.205 125.617  23.934  1.00  0.00    -0.024 A 
HETATM   13  C9  LIG X 999      45.124 125.549  22.930  1.00  0.00    -0.024 A 
HETATM   14  C15 LIG X 999      44.039 124.295  24.576  1.00  0.00     0.276 C 
HETATM   15  C12 LIG X 999      45.657 124.175  22.807  1.00  0.00     0.276 C 
HETATM   16  N4  LIG X 999      44.846 123.341  23.750  1.00  0.00    -0.067 N 
HETATM   17  C13 LIG X 999      43.945 122.444  22.988  1.00  0.00     0.272 C 
HETATM   18  C14 LIG X 999      45.726 122.520  24.612  1.00  0.00     0.272 C 
BRANCH  11  19
HETATM   19  O1  LIG X 999      43.011 131.600  23.367  1.00  0.00    -0.353 OA
HETATM   20  C4  LIG X 999      43.067 132.266  24.625  1.00  0.00     0.210 C 
ENDBRANCH  11  19
ENDBRANCH   1   4
TORSDOF 2
ENDMDL
