REMARK VINA RESULT:      -6.4      2.298      3.412
REMARK  6 active torsions:
REMARK  status: ('A' for Active; 'I' for Inactive)
REMARK    1  A    between atoms: S1_2  and  C1_3 
REMARK    2  A    between atoms: C1_3  and  N2_15 
REMARK    3  A    between atoms: N1_4  and  C2_5 
REMARK    4  A    between atoms: N2_15  and  C12_17 
REMARK    5  A    between atoms: C12_17  and  C13_18 
REMARK    6  A    between atoms: C13_18  and  C14_19 
ROOT
HETATM    1  C2  LIG X 999      44.242 131.442  19.633  1.00  0.00     0.060 A 
HETATM    2  C3  LIG X 999      45.474 130.778  19.673  1.00  0.00     0.032 A 
HETATM    3  C4  LIG X 999      46.143 130.450  18.492  1.00  0.00     0.014 A 
HETATM    4  C5  LIG X 999      45.575 130.764  17.249  1.00  0.00    -0.026 A 
HETATM    5  C6  LIG X 999      46.239 130.440  16.055  1.00  0.00     0.012 A 
HETATM    6  C7  LIG X 999      45.656 130.749  14.822  1.00  0.00     0.001 A 
HETATM    7  C8  LIG X 999      44.409 131.379  14.771  1.00  0.00     0.001 A 
HETATM    8  C9  LIG X 999      43.738 131.706  15.954  1.00  0.00     0.012 A 
HETATM    9  C10 LIG X 999      44.314 131.406  17.197  1.00  0.00    -0.024 A 
HETATM   10  C11 LIG X 999      43.650 131.728  18.391  1.00  0.00     0.044 A 
ENDROOT
BRANCH   1  11
HETATM   11  N1  LIG X 999      43.563 131.720  20.867  1.00  0.00    -0.225 NA
HETATM   12  C1  LIG X 999      43.796 131.173  22.026  1.00  0.00     0.160 C 
BRANCH  12  13
HETATM   13  S1  LIG X 999      42.877 131.790  23.436  1.00  0.00    -0.105 SA
HETATM   14  H1  LIG X 999      43.094 130.605  24.164  1.00  0.00     0.110 HD
ENDBRANCH  12  13
BRANCH  12  15
HETATM   15  N2  LIG X 999      44.694 130.055  22.167  1.00  0.00    -0.369 N 
HETATM   16  H9  LIG X 999      45.503 129.959  21.514  1.00  0.00     0.161 HD
BRANCH  15  17
HETATM   17  C12 LIG X 999      44.436 128.935  23.069  1.00  0.00     0.122 C 
BRANCH  17  18
HETATM   18  C13 LIG X 999      45.105 127.662  22.537  1.00  0.00     0.030 C 
BRANCH  18  19
HETATM   19  C14 LIG X 999      44.834 126.450  23.432  1.00  0.00     0.088 C 
HETATM   20  S2  LIG X 999      43.852 125.224  22.585  1.00  0.00    -0.098 SA
ENDBRANCH  18  19
ENDBRANCH  17  18
ENDBRANCH  15  17
ENDBRANCH  12  15
ENDBRANCH   1  11
TORSDOF 6
