REMARK VINA RESULT:      -7.0      0.986      2.766
REMARK  1 active torsions:
REMARK  status: ('A' for Active; 'I' for Inactive)
REMARK    1  A    between atoms: C4_4  and  N1_5 
ROOT
HETATM    1  C1  LIG X 999      41.736 133.203  20.431  1.00  0.00     0.049 C 
HETATM    2  C2  LIG X 999      42.628 132.168  21.071  1.00  0.00    -0.045 C 
HETATM    3  C3  LIG X 999      42.420 131.936  22.439  1.00  0.00     0.055 C 
HETATM    4  C4  LIG X 999      43.351 131.217  23.183  1.00  0.00     0.099 C 
HETATM    5  N2  LIG X 999      44.486 130.769  22.589  1.00  0.00    -0.342 N 
HETATM    6  C5  LIG X 999      44.714 130.929  21.253  1.00  0.00     0.045 C 
HETATM    7  C6  LIG X 999      45.937 130.505  20.718  1.00  0.00     0.031 C 
HETATM    8  C7  LIG X 999      46.209 130.653  19.366  1.00  0.00     0.014 C 
HETATM    9  C8  LIG X 999      45.223 131.123  18.495  1.00  0.00    -0.025 C 
HETATM   10  C9  LIG X 999      45.487 131.156  17.116  1.00  0.00     0.012 C 
HETATM   11  C10 LIG X 999      44.479 131.491  16.215  1.00  0.00     0.001 C 
HETATM   12  C11 LIG X 999      43.194 131.753  16.679  1.00  0.00     0.001 C 
HETATM   13  C12 LIG X 999      42.921 131.737  18.050  1.00  0.00     0.013 C 
HETATM   14  C13 LIG X 999      43.947 131.507  18.997  1.00  0.00    -0.013 C 
HETATM   15  C14 LIG X 999      43.733 131.537  20.417  1.00  0.00     0.008 C 
HETATM   16  H7  LIG X 999      45.201 130.286  23.181  1.00  0.00     0.167 HD
ENDROOT
BRANCH   4  17
HETATM   17  N1  LIG X 999      43.140 131.005  24.582  1.00  0.00    -0.385 N 
HETATM   18  H5  LIG X 999      43.929 130.729  25.208  1.00  0.00     0.157 HD
HETATM   19  H6  LIG X 999      42.192 131.126  25.000  1.00  0.00     0.157 HD
ENDBRANCH   4  17
TORSDOF 1
