REMARK VINA RESULT:      -7.3      1.698      3.056
REMARK  1 active torsions:
REMARK  status: ('A' for Active; 'I' for Inactive)
REMARK    1  A    between atoms: C2_2  and  N1_3 
ROOT
HETATM    1  N1  LIG X 999      44.898 131.703  15.163  1.00  0.00    -0.073 NA
HETATM    2  N2  LIG X 999      45.692 131.319  14.302  1.00  0.00    -0.162 NA
HETATM    3  N3  LIG X 999      46.484 130.937  13.443  1.00  0.00     0.068 N 
ENDROOT
BRANCH   1   4
HETATM    4  C2  LIG X 999      45.012 131.317  16.539  1.00  0.00     0.094 A 
HETATM    5  C1  LIG X 999      46.028 130.450  16.982  1.00  0.00     0.035 A 
HETATM    6  C10 LIG X 999      46.117 130.090  18.330  1.00  0.00     0.014 A 
HETATM    7  C9  LIG X 999      45.192 130.591  19.256  1.00  0.00    -0.025 A 
HETATM    8  C4  LIG X 999      44.161 131.471  18.814  1.00  0.00    -0.023 A 
HETATM    9  C8  LIG X 999      45.275 130.234  20.617  1.00  0.00     0.030 A 
HETATM   10  C3  LIG X 999      44.085 131.822  17.459  1.00  0.00     0.046 A 
HETATM   11  C5  LIG X 999      43.226 131.979  19.740  1.00  0.00     0.022 A 
HETATM   12  C6  LIG X 999      43.340 131.603  21.080  1.00  0.00    -0.015 A 
HETATM   13  C7  LIG X 999      44.330 130.762  21.493  1.00  0.00     0.049 A 
HETATM   14  C14 LIG X 999      42.474 132.011  22.230  1.00  0.00     0.286 A 
HETATM   15  C11 LIG X 999      44.165 130.579  22.910  1.00  0.00     0.351 A 
HETATM   16  O1  LIG X 999      44.918 129.854  23.618  1.00  0.00    -0.259 OA
HETATM   17  N4  LIG X 999      43.042 131.319  23.435  1.00  0.00    -0.005 N 
HETATM   18  C12 LIG X 999      43.507 132.294  24.444  1.00  0.00     0.283 C 
HETATM   19  C13 LIG X 999      42.060 130.388  24.030  1.00  0.00     0.283 C 
ENDBRANCH   1   4
TORSDOF 1
