REMARK VINA RESULT:      -6.3      2.841      5.035
REMARK  1 active torsions:
REMARK  status: ('A' for Active; 'I' for Inactive)
REMARK    1  A    between atoms: C8_8  and  N1_9 
ROOT
HETATM    1  N1  LIG X 999      42.447 132.252  22.382  1.00  0.00    -0.072 NA
HETATM    2  N2  LIG X 999      42.582 131.301  23.153  1.00  0.00    -0.162 NA
HETATM    3  N3  LIG X 999      42.708 130.353  23.927  1.00  0.00     0.068 N 
ENDROOT
BRANCH   1   4
HETATM    4  C8  LIG X 999      42.693 132.150  20.972  1.00  0.00     0.104 A 
HETATM    5  C7  LIG X 999      41.680 132.617  20.089  1.00  0.00     0.038 A 
HETATM    6  C6  LIG X 999      41.818 132.511  18.688  1.00  0.00     0.035 A 
HETATM    7  C5  LIG X 999      42.982 131.938  18.185  1.00  0.00     0.073 A 
HETATM    8  C4  LIG X 999      43.960 131.518  19.038  1.00  0.00     0.021 A 
HETATM    9  N4  LIG X 999      43.357 131.760  16.814  1.00  0.00    -0.209 NA
HETATM   10  C3  LIG X 999      45.034 131.052  18.351  1.00  0.00     0.047 A 
HETATM   11  C9  LIG X 999      43.894 131.610  20.423  1.00  0.00     0.009 A 
HETATM   12  C2  LIG X 999      46.181 130.631  19.019  1.00  0.00     0.018 A 
HETATM   13  C11 LIG X 999      44.671 131.192  16.945  1.00  0.00     0.278 A 
HETATM   14  C1  LIG X 999      46.182 130.712  20.429  1.00  0.00     0.002 A 
HETATM   15  C10 LIG X 999      45.053 131.208  21.133  1.00  0.00     0.015 A 
HETATM   16  O1  LIG X 999      45.397 130.875  15.967  1.00  0.00    -0.265 OA
ENDBRANCH   1   4
TORSDOF 1
