REMARK VINA RESULT:      -4.6      8.554     10.814
REMARK  2 active torsions:
REMARK  status: ('A' for Active; 'I' for Inactive)
REMARK    1  A    between atoms: C9_10  and  N2_11 
REMARK       I    between atoms: N2_11  and  C10_12 
REMARK    2  A    between atoms: C10_12  and  C11_14 
ROOT
HETATM    1  C11 LIG X 999      41.110 124.080  22.845  1.00  0.00     0.282 C 
HETATM    2 CL1  LIG X 999      40.678 122.375  22.562  1.00  0.00    -0.099 Cl
HETATM    3  C12 LIG X 999      40.199 124.656  23.839  1.00  0.00     0.089 C 
HETATM    4  N3  LIG X 999      39.481 125.111  24.625  1.00  0.00    -0.195 NA
ENDROOT
BRANCH   1   5
HETATM    5  C10 LIG X 999      42.524 124.175  23.325  1.00  0.00     0.276 C 
HETATM    6  N2  LIG X 999      43.322 125.314  22.969  1.00  0.00    -0.212 NA
HETATM    7  O1  LIG X 999      42.983 123.281  24.087  1.00  0.00    -0.268 OA
BRANCH   6   8
HETATM    8  C9  LIG X 999      44.742 125.445  23.127  1.00  0.00     0.061 A 
HETATM    9  C8  LIG X 999      45.309 126.342  24.052  1.00  0.00     0.032 A 
HETATM   10  C7  LIG X 999      46.696 126.430  24.196  1.00  0.00     0.014 A 
HETATM   11  C6  LIG X 999      47.539 125.615  23.430  1.00  0.00    -0.025 A 
HETATM   12  C5  LIG X 999      48.938 125.695  23.571  1.00  0.00     0.021 A 
HETATM   13  C14 LIG X 999      46.972 124.689  22.510  1.00  0.00    -0.023 A 
HETATM   14  C4  LIG X 999      49.737 124.861  22.788  1.00  0.00    -0.024 A 
HETATM   15  C3  LIG X 999      51.212 124.759  22.785  1.00  0.00     0.276 C 
HETATM   16  C16 LIG X 999      49.195 123.975  21.907  1.00  0.00    -0.024 A 
HETATM   17  N1  LIG X 999      51.550 123.812  21.674  1.00  0.00    -0.067 N 
HETATM   18  C1  LIG X 999      52.491 122.770  22.143  1.00  0.00     0.272 C 
HETATM   19  C2  LIG X 999      52.169 124.551  20.549  1.00  0.00     0.272 C 
HETATM   20  C17 LIG X 999      50.257 123.197  21.234  1.00  0.00     0.276 C 
HETATM   21  C15 LIG X 999      47.813 123.858  21.744  1.00  0.00     0.021 A 
HETATM   22  C13 LIG X 999      45.579 124.610  22.375  1.00  0.00     0.044 A 
ENDBRANCH   6   8
ENDBRANCH   1   5
TORSDOF 2
