REMARK VINA RESULT:      -8.6      0.000      0.000
REMARK  2 active torsions:
REMARK  status: ('A' for Active; 'I' for Inactive)
REMARK    1  A    between atoms: C8_9  and  N2_10 
REMARK    2  A    between atoms: C14_16  and  O1_17 
ROOT
HETATM    1  C1  LIG X 999      44.882 129.999  14.719  1.00  0.00     0.287 C 
HETATM    2  N1  LIG X 999      45.331 131.049  15.650  1.00  0.00    -0.002 N 
HETATM    3  C2  LIG X 999      46.168 132.064  14.984  1.00  0.00     0.287 C 
HETATM    4  C3  LIG X 999      44.200 131.671  16.300  1.00  0.00     0.222 A 
HETATM    5  C4  LIG X 999      44.239 131.479  17.610  1.00  0.00     0.003 A 
HETATM    6  C5  LIG X 999      43.344 131.911  18.587  1.00  0.00     0.026 A 
HETATM    7  C6  LIG X 999      43.613 131.571  19.931  1.00  0.00    -0.023 A 
HETATM    8  C7  LIG X 999      42.746 131.980  20.954  1.00  0.00     0.041 A 
HETATM    9  C8  LIG X 999      43.015 131.642  22.289  1.00  0.00     0.026 A 
HETATM   10  C9  LIG X 999      44.157 130.891  22.600  1.00  0.00     0.030 A 
HETATM   11  C10 LIG X 999      45.032 130.475  21.592  1.00  0.00     0.014 A 
HETATM   12  C11 LIG X 999      44.775 130.806  20.255  1.00  0.00    -0.025 A 
HETATM   13  C12 LIG X 999      45.655 130.389  19.234  1.00  0.00     0.029 A 
HETATM   14  C13 LIG X 999      45.350 130.747  17.921  1.00  0.00     0.035 A 
HETATM   15  C14 LIG X 999      46.002 130.486  16.800  1.00  0.00     0.257 A 
ENDROOT
BRANCH   9  16
HETATM   16  N2  LIG X 999      42.127 132.062  23.328  1.00  0.00    -0.399 N 
HETATM   17  H10 LIG X 999      41.973 131.467  24.173  1.00  0.00     0.156 HD
HETATM   18  H11 LIG X 999      41.618 132.972  23.262  1.00  0.00     0.156 HD
ENDBRANCH   9  16
BRANCH  15  19
HETATM   19  O1  LIG X 999      47.187 129.755  16.738  1.00  0.00    -0.340 OA
HETATM   20  H15 LIG X 999      47.890 129.957  16.039  1.00  0.00     0.219 HD
ENDBRANCH  15  19
TORSDOF 2
