REMARK VINA RESULT:      -7.5      0.000      0.000
REMARK  1 active torsions:
REMARK  status: ('A' for Active; 'I' for Inactive)
REMARK    1  A    between atoms: N1_2  and  C1_3 
ROOT
HETATM    1  C1  LIG X 999      43.225 131.759  22.811  1.00  0.00     0.120 C 
HETATM    2  C2  LIG X 999      44.349 130.992  22.503  1.00  0.00     0.057 C 
HETATM    3  C3  LIG X 999      44.677 130.716  21.168  1.00  0.00    -0.045 C 
HETATM    4  C4  LIG X 999      45.710 129.638  20.949  1.00  0.00     0.049 C 
HETATM    5  C5  LIG X 999      43.934 131.347  20.120  1.00  0.00     0.008 C 
HETATM    6  C6  LIG X 999      44.288 131.330  18.729  1.00  0.00    -0.013 C 
HETATM    7  C7  LIG X 999      45.593 131.045  18.260  1.00  0.00     0.013 C 
HETATM    8  C8  LIG X 999      45.871 130.986  16.893  1.00  0.00     0.001 C 
HETATM    9  C9  LIG X 999      44.875 131.258  15.960  1.00  0.00     0.001 C 
HETATM   10  C10 LIG X 999      43.610 131.647  16.390  1.00  0.00     0.012 C 
HETATM   11  C11 LIG X 999      43.319 131.725  17.763  1.00  0.00    -0.025 C 
HETATM   12  C12 LIG X 999      42.090 132.247  18.171  1.00  0.00     0.014 C 
HETATM   13  C13 LIG X 999      41.823 132.438  19.518  1.00  0.00     0.031 C 
HETATM   14  C14 LIG X 999      42.728 132.008  20.496  1.00  0.00     0.045 C 
HETATM   15  N2  LIG X 999      42.426 132.212  21.811  1.00  0.00    -0.341 N 
HETATM   16  H12 LIG X 999      41.555 132.734  22.067  1.00  0.00     0.167 HD
ENDROOT
BRANCH   1  17
HETATM   17  N1  LIG X 999      42.912 132.006  24.045  1.00  0.00    -0.284 NA
HETATM   18  H1  LIG X 999      43.544 132.528  24.693  1.00  0.00     0.188 HD
ENDBRANCH   1  17
TORSDOF 1
