REMARK VINA RESULT:      -7.3      0.000      0.000
REMARK  2 active torsions:
REMARK  status: ('A' for Active; 'I' for Inactive)
REMARK    1  A    between atoms: C9_10  and  N2_11 
REMARK       I    between atoms: N2_11  and  C10_12 
REMARK    2  A    between atoms: C10_12  and  C11_14 
ROOT
HETATM    1  C11 LIG X 999      46.976 129.812  13.602  1.00  0.00     0.280 C 
HETATM    2 CL1  LIG X 999      46.868 131.375  12.753  1.00  0.00    -0.099 Cl
HETATM    3  C12 LIG X 999      48.381 129.500  13.879  1.00  0.00     0.089 C 
HETATM    4  N3  LIG X 999      49.490 129.253  14.096  1.00  0.00    -0.195 NA
ENDROOT
BRANCH   1   5
HETATM    5  C10 LIG X 999      46.196 129.862  14.881  1.00  0.00     0.254 C 
HETATM    6  N2  LIG X 999      46.231 131.037  15.709  1.00  0.00    -0.325 N 
HETATM    7  H12 LIG X 999      46.986 131.737  15.532  1.00  0.00     0.169 HD
HETATM    8  O1  LIG X 999      45.555 128.839  15.249  1.00  0.00    -0.270 OA
BRANCH   6   9
HETATM    9  C9  LIG X 999      45.362 131.254  16.835  1.00  0.00     0.035 A 
HETATM   10  C8  LIG X 999      44.068 131.751  16.616  1.00  0.00     0.030 A 
HETATM   11  C7  LIG X 999      43.191 131.955  17.683  1.00  0.00     0.014 A 
HETATM   12  C6  LIG X 999      43.589 131.650  18.990  1.00  0.00    -0.025 A 
HETATM   13  C5  LIG X 999      42.710 131.849  20.073  1.00  0.00     0.021 A 
HETATM   14  C14 LIG X 999      44.891 131.123  19.223  1.00  0.00    -0.023 A 
HETATM   15  C4  LIG X 999      43.148 131.526  21.358  1.00  0.00    -0.024 A 
HETATM   16  C3  LIG X 999      42.395 131.628  22.626  1.00  0.00     0.276 C 
HETATM   17  C16 LIG X 999      44.393 131.018  21.581  1.00  0.00    -0.024 A 
HETATM   18  N1  LIG X 999      43.372 131.278  23.705  1.00  0.00    -0.067 N 
HETATM   19  C1  LIG X 999      42.797 130.269  24.624  1.00  0.00     0.272 C 
HETATM   20  C2  LIG X 999      43.727 132.490  24.482  1.00  0.00     0.272 C 
HETATM   21  C17 LIG X 999      44.587 130.735  23.019  1.00  0.00     0.276 C 
HETATM   22  C15 LIG X 999      45.290 130.799  20.535  1.00  0.00     0.021 A 
HETATM   23  C13 LIG X 999      45.762 130.923  18.142  1.00  0.00     0.042 A 
ENDBRANCH   6   9
ENDBRANCH   1   5
TORSDOF 2
