REMARK VINA RESULT:      -6.5      3.619      6.381
REMARK  1 active torsions:
REMARK  status: ('A' for Active; 'I' for Inactive)
REMARK    1  A    between atoms: C14_14  and  N1_15 
ROOT
HETATM    1  N1  LIG X 999      44.447 130.957  15.100  1.00  0.00    -0.216 NA
HETATM    2  C15 LIG X 999      45.588 130.975  14.537  1.00  0.00     0.165 C 
HETATM    3  S1  LIG X 999      47.033 130.996  13.823  1.00  0.00    -0.055 SA
ENDROOT
BRANCH   1   4
HETATM    4  C14 LIG X 999      44.235 131.207  16.500  1.00  0.00     0.130 C 
HETATM    5  C13 LIG X 999      43.021 131.707  16.987  1.00  0.00     0.058 C 
HETATM    6  C11 LIG X 999      42.853 131.957  18.357  1.00  0.00    -0.045 C 
HETATM    7  C10 LIG X 999      43.880 131.564  19.272  1.00  0.00     0.008 C 
HETATM    8  C12 LIG X 999      41.643 132.774  18.738  1.00  0.00     0.049 C 
HETATM    9  C4  LIG X 999      43.755 131.556  20.702  1.00  0.00    -0.013 C 
HETATM   10  C9  LIG X 999      45.134 131.189  18.708  1.00  0.00     0.045 C 
HETATM   11  C3  LIG X 999      42.512 131.548  21.377  1.00  0.00     0.013 C 
HETATM   12  C5  LIG X 999      44.931 131.442  21.499  1.00  0.00    -0.025 C 
HETATM   13  C2  LIG X 999      42.445 131.598  22.770  1.00  0.00     0.001 C 
HETATM   14  C1  LIG X 999      43.612 131.607  23.530  1.00  0.00     0.001 C 
HETATM   15  C6  LIG X 999      44.850 131.508  22.900  1.00  0.00     0.012 C 
HETATM   16  C7  LIG X 999      46.168 131.206  20.898  1.00  0.00     0.014 C 
HETATM   17  C8  LIG X 999      46.258 131.026  19.526  1.00  0.00     0.031 C 
HETATM   18  N2  LIG X 999      45.263 131.004  17.363  1.00  0.00    -0.340 N 
HETATM   19  H11 LIG X 999      46.181 130.692  16.968  1.00  0.00     0.167 HD
ENDBRANCH   1   4
TORSDOF 1
