REMARK VINA RESULT:      -6.1      1.419      2.258
REMARK  4 active torsions:
REMARK  status: ('A' for Active; 'I' for Inactive)
REMARK    1  A    between atoms: C1_2  and  C2_4 
REMARK    2  A    between atoms: C8_10  and  C9_11 
REMARK       I    between atoms: C9_11  and  N1_13 
REMARK    3  A    between atoms: N1_13  and  S1_14 
REMARK    4  A    between atoms: S1_14  and  C10_17 
ROOT
HETATM    1  C9  LIG X 999      44.316 128.778  23.697  1.00  0.00     0.259 C 
HETATM    2  O3  LIG X 999      44.284 128.889  22.441  1.00  0.00    -0.270 OA
HETATM    3  N1  LIG X 999      44.220 129.942  24.520  1.00  0.00    -0.122 NA
ENDROOT
BRANCH   3   4
HETATM    4  S1  LIG X 999      43.793 131.490  23.878  1.00  0.00     0.286 S 
HETATM    5  O4  LIG X 999      44.572 132.567  24.579  1.00  0.00    -0.198 OA
HETATM    6  O5  LIG X 999      42.327 131.734  24.105  1.00  0.00    -0.198 OA
BRANCH   4   7
HETATM    7  C10 LIG X 999      44.130 131.501  22.150  1.00  0.00     0.082 A 
HETATM    8  C11 LIG X 999      45.456 131.475  21.698  1.00  0.00     0.026 A 
HETATM    9  C12 LIG X 999      45.738 131.542  20.331  1.00  0.00     0.014 A 
HETATM   10  C13 LIG X 999      44.694 131.643  19.400  1.00  0.00    -0.026 A 
HETATM   11  C14 LIG X 999      44.966 131.719  18.025  1.00  0.00     0.012 A 
HETATM   12  C18 LIG X 999      43.353 131.673  19.852  1.00  0.00    -0.025 A 
HETATM   13  C15 LIG X 999      43.918 131.826  17.107  1.00  0.00     0.001 A 
HETATM   14  C16 LIG X 999      42.593 131.857  17.553  1.00  0.00     0.001 A 
HETATM   15  C17 LIG X 999      42.308 131.782  18.920  1.00  0.00     0.012 A 
HETATM   16  C19 LIG X 999      43.080 131.602  21.225  1.00  0.00     0.037 A 
ENDBRANCH   4   7
ENDBRANCH   3   4
BRANCH   1  17
HETATM   17  C8  LIG X 999      44.385 127.418  24.354  1.00  0.00     0.099 C 
HETATM   18  C2  LIG X 999      43.004 126.719  24.551  1.00  0.00     0.104 C 
HETATM   19  C3  LIG X 999      43.192 125.386  23.783  1.00  0.00     0.001 C 
HETATM   20  C4  LIG X 999      44.138 124.484  24.599  1.00  0.00     0.006 C 
HETATM   21  C7  LIG X 999      44.091 125.784  22.633  1.00  0.00     0.011 C 
HETATM   22  C5  LIG X 999      45.503 125.171  24.420  1.00  0.00     0.006 C 
HETATM   23  C6  LIG X 999      45.168 126.373  23.516  1.00  0.00    -0.000 C 
BRANCH  18  24
HETATM   24  C1  LIG X 999      41.803 127.504  24.068  1.00  0.00     0.178 C 
HETATM   25  O1  LIG X 999      41.028 126.993  23.217  1.00  0.00    -0.648 OA
HETATM   26  O2  LIG X 999      41.511 128.762  24.582  1.00  0.00    -0.648 OA
ENDBRANCH  18  24
ENDBRANCH   1  17
TORSDOF 4
