REMARK VINA RESULT:      -4.6      6.246      8.135
REMARK  1 active torsions:
REMARK  status: ('A' for Active; 'I' for Inactive)
REMARK    1  A    between atoms: C4_4  and  N1_5 
ROOT
HETATM    1  C1  LIG X 999      44.390 122.512  22.905  1.00  0.00     0.049 C 
HETATM    2  C2  LIG X 999      45.116 123.765  22.481  1.00  0.00    -0.045 C 
HETATM    3  C3  LIG X 999      46.416 123.584  21.979  1.00  0.00     0.057 C 
HETATM    4  C4  LIG X 999      47.264 124.676  21.815  1.00  0.00     0.122 C 
HETATM    5  N2  LIG X 999      46.842 125.911  22.174  1.00  0.00    -0.231 NA
HETATM    6  C5  LIG X 999      45.582 126.148  22.621  1.00  0.00     0.070 C 
HETATM    7  C6  LIG X 999      45.256 127.440  23.032  1.00  0.00     0.033 C 
HETATM    8  C7  LIG X 999      43.984 127.730  23.504  1.00  0.00     0.014 C 
HETATM    9  C8  LIG X 999      42.980 126.758  23.471  1.00  0.00    -0.025 C 
HETATM   10  C9  LIG X 999      41.675 127.108  23.854  1.00  0.00     0.012 C 
HETATM   11  C10 LIG X 999      40.631 126.199  23.706  1.00  0.00     0.001 C 
HETATM   12  C11 LIG X 999      40.872 124.952  23.138  1.00  0.00     0.001 C 
HETATM   13  C12 LIG X 999      42.167 124.585  22.764  1.00  0.00     0.013 C 
HETATM   14  C13 LIG X 999      43.267 125.443  23.001  1.00  0.00    -0.013 C 
HETATM   15  C14 LIG X 999      44.626 125.095  22.691  1.00  0.00     0.010 C 
ENDROOT
BRANCH   4  16
HETATM   16  N1  LIG X 999      48.596 124.495  21.332  1.00  0.00    -0.384 N 
HETATM   17  H5  LIG X 999      49.302 125.262  21.402  1.00  0.00     0.157 HD
HETATM   18  H6  LIG X 999      48.881 123.587  20.903  1.00  0.00     0.157 HD
ENDBRANCH   4  16
TORSDOF 1
