REMARK VINA RESULT:      -7.3      0.842      1.898
REMARK  3 active torsions:
REMARK  status: ('A' for Active; 'I' for Inactive)
REMARK    1  A    between atoms: C2_2  and  C3_3 
REMARK       I    between atoms: C3_3  and  N1_5 
REMARK    2  A    between atoms: N1_5  and  C4_6 
REMARK    3  A    between atoms: C4_6  and  C6_8 
ROOT
HETATM    1  C6  LIG X 999      44.184 131.530  18.614  1.00  0.00    -0.035 A 
HETATM    2  C7  LIG X 999      43.227 131.942  17.670  1.00  0.00     0.010 A 
HETATM    3  C8  LIG X 999      43.444 131.746  16.305  1.00  0.00     0.013 A 
HETATM    4  C9  LIG X 999      44.626 131.140  15.858  1.00  0.00    -0.026 A 
HETATM    5  C10 LIG X 999      44.854 130.938  14.488  1.00  0.00     0.012 A 
HETATM    6  C11 LIG X 999      46.038 130.335  14.055  1.00  0.00     0.001 A 
HETATM    7  C12 LIG X 999      47.001 129.931  14.983  1.00  0.00     0.001 A 
HETATM    8  C13 LIG X 999      46.786 130.126  16.350  1.00  0.00     0.012 A 
HETATM    9  C14 LIG X 999      45.602 130.730  16.798  1.00  0.00    -0.025 A 
HETATM   10  C15 LIG X 999      45.376 130.932  18.169  1.00  0.00     0.021 A 
ENDROOT
BRANCH   1  11
HETATM   11  C4  LIG X 999      43.955 131.758  20.093  1.00  0.00     0.113 C 
HETATM   12  C5  LIG X 999      42.554 132.329  20.331  1.00  0.00     0.037 C 
BRANCH  11  13
HETATM   13  N1  LIG X 999      44.136 130.507  20.838  1.00  0.00    -0.353 N 
HETATM   14  C3  LIG X 999      44.354 130.491  22.257  1.00  0.00     0.217 C 
HETATM   15  O1  LIG X 999      44.354 131.567  22.913  1.00  0.00    -0.274 OA
HETATM   16  H6  LIG X 999      44.105 129.594  20.329  1.00  0.00     0.163 HD
BRANCH  14  17
HETATM   17  C2  LIG X 999      44.541 129.188  22.973  1.00  0.00     0.098 C 
HETATM   18  C1  LIG X 999      43.212 128.684  23.525  1.00  0.00     0.014 C 
ENDBRANCH  14  17
ENDBRANCH  11  13
ENDBRANCH   1  11
TORSDOF 3
