REMARK VINA RESULT:      -7.3      2.143      4.794
REMARK  1 active torsions:
REMARK  status: ('A' for Active; 'I' for Inactive)
REMARK    1  A    between atoms: N1_2  and  C1_3 
ROOT
HETATM    1  C1  LIG X 999      44.147 131.491  17.098  1.00  0.00     0.120 C 
HETATM    2  C2  LIG X 999      45.201 130.994  17.865  1.00  0.00     0.057 C 
HETATM    3  C3  LIG X 999      45.142 131.038  19.266  1.00  0.00    -0.045 C 
HETATM    4  C4  LIG X 999      46.438 130.771  19.992  1.00  0.00     0.049 C 
HETATM    5  C5  LIG X 999      43.932 131.462  19.902  1.00  0.00     0.008 C 
HETATM    6  C6  LIG X 999      43.655 131.354  21.306  1.00  0.00    -0.013 C 
HETATM    7  C7  LIG X 999      44.346 130.473  22.172  1.00  0.00     0.013 C 
HETATM    8  C8  LIG X 999      44.075 130.448  23.542  1.00  0.00     0.001 C 
HETATM    9  C9  LIG X 999      43.079 131.259  24.077  1.00  0.00     0.001 C 
HETATM   10  C10 LIG X 999      42.309 132.058  23.237  1.00  0.00     0.012 C 
HETATM   11  C11 LIG X 999      42.560 132.082  21.854  1.00  0.00    -0.025 C 
HETATM   12  C12 LIG X 999      41.691 132.783  21.017  1.00  0.00     0.014 C 
HETATM   13  C13 LIG X 999      41.852 132.732  19.640  1.00  0.00     0.031 C 
HETATM   14  C14 LIG X 999      42.949 132.075  19.071  1.00  0.00     0.045 C 
HETATM   15  N2  LIG X 999      43.073 132.049  17.712  1.00  0.00    -0.341 N 
HETATM   16  H12 LIG X 999      42.321 132.470  17.117  1.00  0.00     0.167 HD
ENDROOT
BRANCH   1  17
HETATM   17  N1  LIG X 999      44.203 131.462  15.803  1.00  0.00    -0.284 NA
HETATM   18  H1  LIG X 999      43.349 131.499  15.200  1.00  0.00     0.188 HD
ENDBRANCH   1  17
TORSDOF 1
