REMARK VINA RESULT:      -5.5      3.138      5.675
REMARK  1 active torsions:
REMARK  status: ('A' for Active; 'I' for Inactive)
REMARK    1  A    between atoms: C2_5  and  C3_6 
ROOT
HETATM    1  C3  LIG X 999      44.330 131.205  17.906  1.00  0.00     0.030 A 
HETATM    2  C4  LIG X 999      45.261 130.612  18.774  1.00  0.00     0.017 A 
HETATM    3  C5  LIG X 999      46.430 130.032  18.284  1.00  0.00     0.002 A 
HETATM    4  C6  LIG X 999      46.692 130.027  16.917  1.00  0.00     0.012 A 
HETATM    5  C7  LIG X 999      45.770 130.580  16.020  1.00  0.00    -0.025 A 
HETATM    6  C8  LIG X 999      46.031 130.542  14.641  1.00  0.00     0.012 A 
HETATM    7  C9  LIG X 999      45.104 131.051  13.733  1.00  0.00     0.001 A 
HETATM    8  C10 LIG X 999      43.901 131.588  14.190  1.00  0.00     0.001 A 
HETATM    9  C11 LIG X 999      43.625 131.638  15.559  1.00  0.00     0.013 A 
HETATM   10  C12 LIG X 999      44.564 131.162  16.502  1.00  0.00    -0.011 A 
ENDROOT
BRANCH   1  11
HETATM   11  C2  LIG X 999      43.160 131.874  18.522  1.00  0.00     0.203 A 
HETATM   12  O1  LIG X 999      43.054 132.121  19.812  1.00  0.00    -0.255 OA
HETATM   13  C1  LIG X 999      41.916 132.755  19.935  1.00  0.00     0.262 A 
HETATM   14  N1  LIG X 999      41.436 133.174  21.061  1.00  0.00    -0.260 NA
HETATM   15  N3  LIG X 999      41.313 132.914  18.747  1.00  0.00    -0.238 N 
HETATM   16  H1  LIG X 999      40.522 133.676  21.106  1.00  0.00     0.190 HD
HETATM   17  N2  LIG X 999      42.100 132.363  17.840  1.00  0.00    -0.145 NA
HETATM   18  H9  LIG X 999      40.401 133.384  18.547  1.00  0.00     0.193 HD
ENDBRANCH   1  11
TORSDOF 1
