REMARK VINA RESULT:      -5.1      3.022      6.122
REMARK  3 active torsions:
REMARK  status: ('A' for Active; 'I' for Inactive)
REMARK    1  A    between atoms: C3_3  and  N1_4 
REMARK    2  A    between atoms: C3_3  and  C4_7 
REMARK    3  A    between atoms: C3_3  and  C14_17 
ROOT
HETATM    1  C1  LIG X 999      42.363 131.505  21.440  1.00  0.00     0.015 C 
HETATM    2  C2  LIG X 999      43.471 131.339  20.993  1.00  0.00    -0.075 C 
HETATM    3  C3  LIG X 999      44.836 131.129  20.442  1.00  0.00     0.183 C 
ENDROOT
BRANCH   3   4
HETATM    4  N1  LIG X 999      45.272 129.796  20.880  1.00  0.00    -0.085 NA
HETATM    5  N2  LIG X 999      44.936 129.320  21.968  1.00  0.00    -0.165 NA
HETATM    6  N3  LIG X 999      44.600 128.846  23.052  1.00  0.00     0.068 N 
ENDBRANCH   3   4
BRANCH   3   7
HETATM    7  C4  LIG X 999      44.788 131.183  18.900  1.00  0.00    -0.012 A 
HETATM    8  C5  LIG X 999      43.675 131.745  18.236  1.00  0.00     0.012 A 
HETATM    9  C6  LIG X 999      43.603 131.774  16.842  1.00  0.00     0.013 A 
HETATM   10  C7  LIG X 999      44.635 131.228  16.070  1.00  0.00    -0.026 A 
HETATM   11  C8  LIG X 999      44.569 131.252  14.669  1.00  0.00     0.012 A 
HETATM   12  C12 LIG X 999      45.750 130.642  16.711  1.00  0.00    -0.025 A 
HETATM   13  C9  LIG X 999      45.602 130.696  13.909  1.00  0.00     0.001 A 
HETATM   14  C10 LIG X 999      46.704 130.114  14.541  1.00  0.00     0.001 A 
HETATM   15  C11 LIG X 999      46.780 130.085  15.936  1.00  0.00     0.012 A 
HETATM   16  C13 LIG X 999      45.816 130.618  18.112  1.00  0.00     0.023 A 
ENDBRANCH   3   7
BRANCH   3  17
HETATM   17  C14 LIG X 999      45.833 132.212  21.034  1.00  0.00    -0.005 C 
HETATM   18  C15 LIG X 999      45.595 132.415  22.551  1.00  0.00     0.018 C 
HETATM   19  C16 LIG X 999      47.314 131.803  20.837  1.00  0.00     0.018 C 
HETATM   20  C17 LIG X 999      45.623 133.585  20.342  1.00  0.00     0.018 C 
ENDBRANCH   3  17
TORSDOF 3
