REMARK VINA RESULT:      -8.7      0.858      1.901
REMARK  3 active torsions:
REMARK  status: ('A' for Active; 'I' for Inactive)
REMARK    1  A    between atoms: C3_3  and  N1_4 
REMARK    2  A    between atoms: N1_4  and  C6_7 
REMARK    3  A    between atoms: C6_7  and  C7_8 
ROOT
HETATM    1  C1  LIG X 999      47.586 131.003  13.088  1.00  0.00     0.013 C 
HETATM    2  C2  LIG X 999      46.939 131.324  14.053  1.00  0.00    -0.089 C 
HETATM    3  C3  LIG X 999      46.149 131.720  15.236  1.00  0.00     0.329 C 
ENDROOT
BRANCH   3   4
HETATM    4  N1  LIG X 999      44.815 131.050  15.311  1.00  0.00    -0.061 N 
HETATM    5  C4  LIG X 999      45.020 129.645  15.743  1.00  0.00     0.273 C 
HETATM    6  C5  LIG X 999      44.196 131.014  13.959  1.00  0.00     0.273 C 
BRANCH   4   7
HETATM    7  C6  LIG X 999      43.871 131.748  16.242  1.00  0.00     0.276 C 
BRANCH   7   8
HETATM    8  C7  LIG X 999      44.169 131.539  17.717  1.00  0.00    -0.032 A 
HETATM    9  C8  LIG X 999      45.396 130.989  18.121  1.00  0.00     0.010 A 
HETATM   10  C9  LIG X 999      45.677 130.792  19.475  1.00  0.00     0.013 A 
HETATM   11  C10 LIG X 999      44.728 131.131  20.449  1.00  0.00    -0.026 A 
HETATM   12  C11 LIG X 999      45.000 130.938  21.812  1.00  0.00     0.012 A 
HETATM   13  C15 LIG X 999      43.480 131.668  20.053  1.00  0.00    -0.025 A 
HETATM   14  C12 LIG X 999      44.042 131.276  22.773  1.00  0.00     0.001 A 
HETATM   15  C13 LIG X 999      42.809 131.806  22.382  1.00  0.00     0.001 A 
HETATM   16  C14 LIG X 999      42.526 132.001  21.028  1.00  0.00     0.012 A 
HETATM   17  C16 LIG X 999      43.207 131.861  18.690  1.00  0.00     0.021 A 
ENDBRANCH   7   8
ENDBRANCH   4   7
ENDBRANCH   3   4
TORSDOF 3
