MODEL 1
REMARK VINA RESULT:      -8.6      0.000      0.000
REMARK  2 active torsions:
REMARK  status: ('A' for Active; 'I' for Inactive)
REMARK    1  A    between atoms: C8_9  and  N2_10 
REMARK    2  A    between atoms: C14_16  and  O1_17 
ROOT
HETATM    1  C1  LIG X 999      44.882 129.999  14.719  1.00  0.00     0.287 C 
HETATM    2  N1  LIG X 999      45.331 131.049  15.650  1.00  0.00    -0.002 N 
HETATM    3  C2  LIG X 999      46.168 132.064  14.984  1.00  0.00     0.287 C 
HETATM    4  C3  LIG X 999      44.200 131.671  16.300  1.00  0.00     0.222 A 
HETATM    5  C4  LIG X 999      44.239 131.479  17.610  1.00  0.00     0.003 A 
HETATM    6  C5  LIG X 999      43.344 131.911  18.587  1.00  0.00     0.026 A 
HETATM    7  C6  LIG X 999      43.613 131.571  19.931  1.00  0.00    -0.023 A 
HETATM    8  C7  LIG X 999      42.746 131.980  20.954  1.00  0.00     0.041 A 
HETATM    9  C8  LIG X 999      43.015 131.642  22.289  1.00  0.00     0.026 A 
HETATM   10  C9  LIG X 999      44.157 130.891  22.600  1.00  0.00     0.030 A 
HETATM   11  C10 LIG X 999      45.032 130.475  21.592  1.00  0.00     0.014 A 
HETATM   12  C11 LIG X 999      44.775 130.806  20.255  1.00  0.00    -0.025 A 
HETATM   13  C12 LIG X 999      45.655 130.389  19.234  1.00  0.00     0.029 A 
HETATM   14  C13 LIG X 999      45.350 130.747  17.921  1.00  0.00     0.035 A 
HETATM   15  C14 LIG X 999      46.002 130.486  16.800  1.00  0.00     0.257 A 
ENDROOT
BRANCH   9  16
HETATM   16  N2  LIG X 999      42.127 132.062  23.328  1.00  0.00    -0.399 N 
HETATM   17  H10 LIG X 999      41.973 131.467  24.173  1.00  0.00     0.156 HD
HETATM   18  H11 LIG X 999      41.618 132.972  23.262  1.00  0.00     0.156 HD
ENDBRANCH   9  16
BRANCH  15  19
HETATM   19  O1  LIG X 999      47.187 129.755  16.738  1.00  0.00    -0.340 OA
HETATM   20  H15 LIG X 999      47.890 129.957  16.039  1.00  0.00     0.219 HD
ENDBRANCH  15  19
TORSDOF 2
ENDMDL
MODEL 2
REMARK VINA RESULT:      -8.3      1.291      2.341
REMARK  2 active torsions:
REMARK  status: ('A' for Active; 'I' for Inactive)
REMARK    1  A    between atoms: C8_9  and  N2_10 
REMARK    2  A    between atoms: C14_16  and  O1_17 
ROOT
HETATM    1  C1  LIG X 999      46.406 131.648  15.017  1.00  0.00     0.287 C 
HETATM    2  N1  LIG X 999      45.573 130.692  15.768  1.00  0.00    -0.002 N 
HETATM    3  C2  LIG X 999      45.265 129.483  14.983  1.00  0.00     0.287 C 
HETATM    4  C3  LIG X 999      46.206 130.339  17.018  1.00  0.00     0.222 A 
HETATM    5  C4  LIG X 999      45.466 130.713  18.051  1.00  0.00     0.003 A 
HETATM    6  C5  LIG X 999      45.716 130.559  19.413  1.00  0.00     0.026 A 
HETATM    7  C6  LIG X 999      44.757 131.051  20.325  1.00  0.00    -0.023 A 
HETATM    8  C7  LIG X 999      44.959 130.922  21.706  1.00  0.00     0.041 A 
HETATM    9  C8  LIG X 999      44.005 131.411  22.611  1.00  0.00     0.026 A 
HETATM   10  C9  LIG X 999      42.842 132.031  22.130  1.00  0.00     0.030 A 
HETATM   11  C10 LIG X 999      42.625 132.167  20.756  1.00  0.00     0.014 A 
HETATM   12  C11 LIG X 999      43.571 131.683  19.841  1.00  0.00    -0.025 A 
HETATM   13  C12 LIG X 999      43.357 131.818  18.453  1.00  0.00     0.029 A 
HETATM   14  C13 LIG X 999      44.331 131.318  17.589  1.00  0.00     0.035 A 
HETATM   15  C14 LIG X 999      44.369 131.318  16.267  1.00  0.00     0.257 A 
ENDROOT
BRANCH   9  16
HETATM   16  N2  LIG X 999      44.216 131.278  24.019  1.00  0.00    -0.399 N 
HETATM   17  H10 LIG X 999      45.117 130.904  24.391  1.00  0.00     0.156 HD
HETATM   18  H11 LIG X 999      43.472 131.553  24.700  1.00  0.00     0.156 HD
ENDBRANCH   9  16
BRANCH  15  19
HETATM   19  O1  LIG X 999      43.370 131.857  15.457  1.00  0.00    -0.340 OA
HETATM   20  H15 LIG X 999      43.352 131.679  14.461  1.00  0.00     0.219 HD
ENDBRANCH  15  19
TORSDOF 2
ENDMDL
MODEL 3
REMARK VINA RESULT:      -7.7      2.054      6.049
REMARK  2 active torsions:
REMARK  status: ('A' for Active; 'I' for Inactive)
REMARK    1  A    between atoms: C8_9  and  N2_10 
REMARK    2  A    between atoms: C14_16  and  O1_17 
ROOT
HETATM    1  C1  LIG X 999      43.144 130.171  22.707  1.00  0.00     0.287 C 
HETATM    2  N1  LIG X 999      43.922 131.203  21.999  1.00  0.00    -0.002 N 
HETATM    3  C2  LIG X 999      44.387 132.270  22.903  1.00  0.00     0.287 C 
HETATM    4  C3  LIG X 999      45.038 130.607  21.300  1.00  0.00     0.222 A 
HETATM    5  C4  LIG X 999      44.935 130.790  19.992  1.00  0.00     0.003 A 
HETATM    6  C5  LIG X 999      45.794 130.375  18.977  1.00  0.00     0.026 A 
HETATM    7  C6  LIG X 999      45.455 130.700  17.645  1.00  0.00    -0.023 A 
HETATM    8  C7  LIG X 999      46.285 130.308  16.585  1.00  0.00     0.041 A 
HETATM    9  C8  LIG X 999      45.947 130.632  15.263  1.00  0.00     0.026 A 
HETATM   10  C9  LIG X 999      44.773 131.352  15.001  1.00  0.00     0.030 A 
HETATM   11  C10 LIG X 999      43.935 131.751  16.046  1.00  0.00     0.014 A 
HETATM   12  C11 LIG X 999      44.261 131.434  17.371  1.00  0.00    -0.025 A 
HETATM   13  C12 LIG X 999      43.419 131.835  18.430  1.00  0.00     0.029 A 
HETATM   14  C13 LIG X 999      43.792 131.492  19.730  1.00  0.00     0.035 A 
HETATM   15  C14 LIG X 999      43.187 131.744  20.878  1.00  0.00     0.257 A 
ENDROOT
BRANCH   9  16
HETATM   16  N2  LIG X 999      46.797 130.229  14.185  1.00  0.00    -0.399 N 
HETATM   17  H10 LIG X 999      46.398 129.996  13.249  1.00  0.00     0.156 HD
HETATM   18  H11 LIG X 999      47.831 130.161  14.317  1.00  0.00     0.156 HD
ENDBRANCH   9  16
BRANCH  15  19
HETATM   19  O1  LIG X 999      41.987 132.445  20.991  1.00  0.00    -0.340 OA
HETATM   20  H15 LIG X 999      41.877 133.188  21.669  1.00  0.00     0.219 HD
ENDBRANCH  15  19
TORSDOF 2
ENDMDL
MODEL 4
REMARK VINA RESULT:      -6.7      2.118      6.003
REMARK  2 active torsions:
REMARK  status: ('A' for Active; 'I' for Inactive)
REMARK    1  A    between atoms: C8_9  and  N2_10 
REMARK    2  A    between atoms: C14_16  and  O1_17 
ROOT
HETATM    1  C1  LIG X 999      43.350 132.455  24.599  1.00  0.00     0.287 C 
HETATM    2  N1  LIG X 999      42.979 131.384  23.656  1.00  0.00    -0.002 N 
HETATM    3  C2  LIG X 999      42.077 130.391  24.267  1.00  0.00     0.287 C 
HETATM    4  C3  LIG X 999      42.385 131.942  22.462  1.00  0.00     0.222 A 
HETATM    5  C4  LIG X 999      43.115 131.664  21.393  1.00  0.00     0.003 A 
HETATM    6  C5  LIG X 999      42.892 132.014  20.062  1.00  0.00     0.026 A 
HETATM    7  C6  LIG X 999      43.831 131.590  19.097  1.00  0.00    -0.023 A 
HETATM    8  C7  LIG X 999      43.656 131.915  17.745  1.00  0.00     0.041 A 
HETATM    9  C8  LIG X 999      44.590 131.492  16.787  1.00  0.00     0.026 A 
HETATM   10  C9  LIG X 999      45.705 130.740  17.186  1.00  0.00     0.030 A 
HETATM   11  C10 LIG X 999      45.894 130.407  18.530  1.00  0.00     0.014 A 
HETATM   12  C11 LIG X 999      44.969 130.823  19.497  1.00  0.00    -0.025 A 
HETATM   13  C12 LIG X 999      45.155 130.490  20.855  1.00  0.00     0.029 A 
HETATM   14  C13 LIG X 999      44.203 130.930  21.774  1.00  0.00     0.035 A 
HETATM   15  C14 LIG X 999      44.147 130.754  23.084  1.00  0.00     0.257 A 
ENDROOT
BRANCH   9  16
HETATM   16  N2  LIG X 999      44.406 131.827  15.409  1.00  0.00    -0.399 N 
HETATM   17  H10 LIG X 999      44.886 131.282  14.658  1.00  0.00     0.156 HD
HETATM   18  H11 LIG X 999      43.788 132.621  15.129  1.00  0.00     0.156 HD
ENDBRANCH   9  16
BRANCH  15  19
HETATM   19  O1  LIG X 999      45.099 130.049  23.818  1.00  0.00    -0.340 OA
HETATM   20  H15 LIG X 999      44.868 129.638  24.714  1.00  0.00     0.219 HD
ENDBRANCH  15  19
TORSDOF 2
ENDMDL
