REMARK VINA RESULT:      -7.5      2.601      4.890
REMARK  3 active torsions:
REMARK  status: ('A' for Active; 'I' for Inactive)
REMARK    1  A    between atoms: C3_3  and  O1_4 
REMARK    2  A    between atoms: O1_4  and  C4_5 
REMARK    3  A    between atoms: C5_7  and  C6_8 
ROOT
HETATM    1  C1  LIG X 999      45.610 126.877  22.490  1.00  0.00     0.014 C 
HETATM    2  C2  LIG X 999      44.612 127.425  22.884  1.00  0.00    -0.091 C 
HETATM    3  C3  LIG X 999      43.398 128.090  23.363  1.00  0.00     0.270 C 
ENDROOT
BRANCH   3   4
HETATM    4  O1  LIG X 999      43.309 129.379  22.769  1.00  0.00    -0.317 OA
BRANCH   4   5
HETATM    5  C4  LIG X 999      44.009 130.482  23.266  1.00  0.00     0.217 C 
HETATM    6  O2  LIG X 999      44.311 130.560  24.623  1.00  0.00    -0.164 OA
HETATM    7  C5  LIG X 999      44.425 131.458  22.450  1.00  0.00     0.078 C 
BRANCH   7   8
HETATM    8  C6  LIG X 999      44.167 131.493  20.993  1.00  0.00    -0.031 A 
HETATM    9  C7  LIG X 999      42.986 132.040  20.461  1.00  0.00     0.012 A 
HETATM   10  C8  LIG X 999      42.780 132.080  19.080  1.00  0.00     0.013 A 
HETATM   11  C9  LIG X 999      43.759 131.588  18.205  1.00  0.00    -0.026 A 
HETATM   12  C10 LIG X 999      43.562 131.623  16.817  1.00  0.00     0.012 A 
HETATM   13  C14 LIG X 999      44.963 131.058  18.731  1.00  0.00    -0.025 A 
HETATM   14  C11 LIG X 999      44.551 131.135  15.956  1.00  0.00     0.001 A 
HETATM   15  C12 LIG X 999      45.739 130.613  16.473  1.00  0.00     0.001 A 
HETATM   16  C13 LIG X 999      45.947 130.573  17.855  1.00  0.00     0.012 A 
HETATM   17  C15 LIG X 999      45.160 131.023  20.119  1.00  0.00     0.024 A 
ENDBRANCH   7   8
ENDBRANCH   4   5
ENDBRANCH   3   4
TORSDOF 3
