REMARK VINA RESULT:      -6.2      2.023      3.122
REMARK  7 active torsions:
REMARK  status: ('A' for Active; 'I' for Inactive)
REMARK    1  A    between atoms: S1_2  and  C1_3 
REMARK    2  A    between atoms: C1_3  and  N2_11 
REMARK    3  A    between atoms: N1_4  and  C2_6 
REMARK    4  A    between atoms: C2_6  and  C3_7 
REMARK    5  A    between atoms: C3_7  and  C4_8 
REMARK    6  A    between atoms: C4_8  and  S2_9 
REMARK    7  A    between atoms: N2_11  and  C5_14 
ROOT
HETATM    1  N2  LIG X 999      45.679 130.111  19.962  1.00  0.00     0.006 N 
HETATM    2  H10 LIG X 999      46.679 129.990  20.244  1.00  0.00     0.293 HD
HETATM    3  H11 LIG X 999      45.202 129.187  20.080  1.00  0.00     0.293 HD
ENDROOT
BRANCH   1   4
HETATM    4  C1  LIG X 999      45.053 131.100  20.805  1.00  0.00     0.240 C 
HETATM    5  N1  LIG X 999      43.846 130.903  21.242  1.00  0.00    -0.365 N 
HETATM    6  H2  LIG X 999      43.329 130.071  20.921  1.00  0.00     0.161 HD
BRANCH   4   7
HETATM    7  S1  LIG X 999      45.998 132.579  21.241  1.00  0.00    -0.100 SA
HETATM    8  H1  LIG X 999      46.427 132.009  22.453  1.00  0.00     0.110 HD
ENDBRANCH   4   7
BRANCH   5   9
HETATM    9  C2  LIG X 999      43.187 131.754  22.217  1.00  0.00     0.122 C 
BRANCH   9  10
HETATM   10  C3  LIG X 999      43.251 131.143  23.625  1.00  0.00     0.029 C 
BRANCH  10  11
HETATM   11  C4  LIG X 999      42.934 129.644  23.617  1.00  0.00     0.072 C 
BRANCH  11  12
HETATM   12  S2  LIG X 999      44.372 128.688  24.186  1.00  0.00    -0.182 SA
HETATM   13  H9  LIG X 999      44.003 128.789  25.542  1.00  0.00     0.101 HD
ENDBRANCH  11  12
ENDBRANCH  10  11
ENDBRANCH   9  10
ENDBRANCH   5   9
ENDBRANCH   1   4
BRANCH   1  14
HETATM   14  C5  LIG X 999      45.570 130.525  18.584  1.00  0.00     0.141 A 
HETATM   15  C6  LIG X 999      44.573 131.434  18.190  1.00  0.00     0.038 A 
HETATM   16  C7  LIG X 999      44.421 131.784  16.845  1.00  0.00     0.014 A 
HETATM   17  C8  LIG X 999      45.259 131.225  15.871  1.00  0.00    -0.026 A 
HETATM   18  C9  LIG X 999      45.108 131.561  14.517  1.00  0.00     0.012 A 
HETATM   19  C13 LIG X 999      46.266 130.308  16.257  1.00  0.00    -0.024 A 
HETATM   20  C10 LIG X 999      45.946 130.992  13.555  1.00  0.00     0.001 A 
HETATM   21  C11 LIG X 999      46.939 130.085  13.934  1.00  0.00     0.001 A 
HETATM   22  C12 LIG X 999      47.101 129.743  15.280  1.00  0.00     0.012 A 
HETATM   23  C14 LIG X 999      46.416 129.966  17.609  1.00  0.00     0.049 A 
ENDBRANCH   1  14
TORSDOF 7
