REMARK VINA RESULT:      -5.7      2.872      4.708
REMARK  1 active torsions:
REMARK  status: ('A' for Active; 'I' for Inactive)
REMARK    1  A    between atoms: C7_7  and  N1_8 
ROOT
HETATM    1  N1  LIG X 999      46.780 131.601  14.830  1.00  0.00    -0.110 NA
HETATM    2  N2  LIG X 999      47.224 131.348  13.709  1.00  0.00    -0.167 NA
HETATM    3  N3  LIG X 999      47.666 131.097  12.589  1.00  0.00     0.068 N 
ENDROOT
BRANCH   1   4
HETATM    4  C7  LIG X 999      46.303 130.538  15.714  1.00  0.00     0.153 C 
HETATM    5  C6  LIG X 999      44.983 129.974  15.165  1.00  0.00     0.031 C 
HETATM    6  C5  LIG X 999      43.850 131.004  15.249  1.00  0.00     0.003 C 
HETATM    7  C4  LIG X 999      43.643 131.470  16.692  1.00  0.00     0.009 C 
HETATM    8  C3  LIG X 999      44.938 132.056  17.290  1.00  0.00     0.018 C 
HETATM    9  C2  LIG X 999      44.706 132.405  18.743  1.00  0.00    -0.021 C 
HETATM   10  C8  LIG X 999      46.132 131.066  17.163  1.00  0.00     0.043 C 
HETATM   11  C1  LIG X 999      44.918 131.500  19.705  1.00  0.00    -0.004 C 
HETATM   12  C10 LIG X 999      45.483 130.176  19.378  1.00  0.00    -0.004 C 
HETATM   13  C9  LIG X 999      46.000 129.939  18.167  1.00  0.00    -0.019 C 
ENDBRANCH   1   4
TORSDOF 1
