REMARK VINA RESULT:      -6.0      2.103      3.867
REMARK  5 active torsions:
REMARK  status: ('A' for Active; 'I' for Inactive)
REMARK    1  A    between atoms: C6_6  and  C7_7 
REMARK    2  A    between atoms: C7_7  and  N1_8 
REMARK    3  A    between atoms: N4_11  and  C8_12 
REMARK    4  A    between atoms: C8_12  and  C9_13 
REMARK    5  A    between atoms: C9_13  and  N5_14 
ROOT
HETATM    1  N1  LIG X 999      42.539 131.477  20.649  1.00  0.00    -0.052 NA
HETATM    2  N2  LIG X 999      42.003 132.581  20.540  1.00  0.00    -0.160 NA
HETATM    3  N3  LIG X 999      41.466 133.682  20.431  1.00  0.00     0.068 N 
ENDROOT
BRANCH   1   4
HETATM    4  C7  LIG X 999      43.953 131.289  20.472  1.00  0.00     0.191 C 
HETATM    5  N4  LIG X 999      44.747 131.310  21.504  1.00  0.00    -0.267 NA
BRANCH   4   6
HETATM    6  C6  LIG X 999      44.543 131.069  19.129  1.00  0.00     0.015 A 
HETATM    7  C5  LIG X 999      43.878 131.507  17.971  1.00  0.00     0.027 A 
HETATM    8  C4  LIG X 999      44.446 131.306  16.704  1.00  0.00    -0.025 A 
HETATM    9  C3  LIG X 999      43.782 131.736  15.545  1.00  0.00     0.012 A 
HETATM   10  C12 LIG X 999      45.703 130.664  16.593  1.00  0.00    -0.026 A 
HETATM   11  C2  LIG X 999      44.357 131.529  14.288  1.00  0.00     0.001 A 
HETATM   12  C1  LIG X 999      45.597 130.894  14.179  1.00  0.00     0.001 A 
HETATM   13  C13 LIG X 999      46.270 130.463  15.325  1.00  0.00     0.012 A 
HETATM   14  C11 LIG X 999      46.372 130.242  17.751  1.00  0.00     0.013 A 
HETATM   15  C10 LIG X 999      45.797 130.448  19.008  1.00  0.00     0.016 A 
ENDBRANCH   4   6
BRANCH   5  16
HETATM   16  C8  LIG X 999      44.326 131.489  22.893  1.00  0.00     0.181 C 
BRANCH  16  17
HETATM   17  C9  LIG X 999      44.046 130.142  23.565  1.00  0.00     0.288 C 
BRANCH  17  18
HETATM   18  N5  LIG X 999      44.645 129.045  22.809  1.00  0.00     0.079 N 
HETATM   19  H9  LIG X 999      45.597 128.870  23.204  1.00  0.00     0.312 HD
HETATM   20  H10 LIG X 999      44.794 129.366  21.826  1.00  0.00     0.312 HD
ENDBRANCH  17  18
ENDBRANCH  16  17
ENDBRANCH   5  16
ENDBRANCH   1   4
TORSDOF 5
