REMARK VINA RESULT:      -8.3      0.000      0.000
REMARK  4 active torsions:
REMARK  status: ('A' for Active; 'I' for Inactive)
REMARK    1  A    between atoms: C3_3  and  O1_4 
REMARK    2  A    between atoms: O1_4  and  C4_5 
REMARK    3  A    between atoms: C4_5  and  O2_6 
REMARK    4  A    between atoms: C5_8  and  C6_9 
ROOT
HETATM    1  C1  LIG X 999      47.642 131.346  12.871  1.00  0.00     0.014 C 
HETATM    2  C2  LIG X 999      47.554 130.359  13.558  1.00  0.00    -0.091 C 
HETATM    3  C3  LIG X 999      47.447 129.162  14.392  1.00  0.00     0.270 C 
ENDROOT
BRANCH   3   4
HETATM    4  O1  LIG X 999      47.301 129.552  15.755  1.00  0.00    -0.319 OA
BRANCH   4   5
HETATM    5  C4  LIG X 999      46.084 129.894  16.369  1.00  0.00     0.179 C 
HETATM    6  C5  LIG X 999      45.925 131.038  17.060  1.00  0.00     0.075 C 
BRANCH   5   7
HETATM    7  O2  LIG X 999      45.012 129.017  16.229  1.00  0.00    -0.341 OA
HETATM    8  H4  LIG X 999      44.555 128.899  15.333  1.00  0.00     0.220 HD
ENDBRANCH   5   7
BRANCH   6   9
HETATM    9  C6  LIG X 999      44.653 131.410  17.726  1.00  0.00    -0.021 A 
HETATM   10  C7  LIG X 999      43.540 131.750  16.936  1.00  0.00     0.012 A 
HETATM   11  C8  LIG X 999      42.312 132.056  17.523  1.00  0.00     0.002 A 
HETATM   12  C9  LIG X 999      42.167 132.018  18.908  1.00  0.00     0.012 A 
HETATM   13  C10 LIG X 999      43.254 131.673  19.723  1.00  0.00    -0.025 A 
HETATM   14  C11 LIG X 999      43.099 131.634  21.118  1.00  0.00     0.012 A 
HETATM   15  C15 LIG X 999      44.512 131.363  19.138  1.00  0.00    -0.015 A 
HETATM   16  C12 LIG X 999      44.178 131.301  21.937  1.00  0.00     0.001 A 
HETATM   17  C13 LIG X 999      45.420 131.006  21.374  1.00  0.00     0.001 A 
HETATM   18  C14 LIG X 999      45.592 131.039  19.988  1.00  0.00     0.013 A 
ENDBRANCH   6   9
ENDBRANCH   4   5
ENDBRANCH   3   4
TORSDOF 4
