REMARK VINA RESULT:      -4.2     11.070     11.828
REMARK  1 active torsions:
REMARK  status: ('A' for Active; 'I' for Inactive)
REMARK    1  A    between atoms: C7_7  and  N1_8 
ROOT
HETATM    1  N1  LIG X 999      36.390 137.198  10.276  1.00  0.00    -0.110 NA
HETATM    2  N2  LIG X 999      36.742 138.327  10.621  1.00  0.00    -0.167 NA
HETATM    3  N3  LIG X 999      37.094 139.455  10.964  1.00  0.00     0.068 N 
ENDROOT
BRANCH   1   4
HETATM    4  C7  LIG X 999      37.039 136.004  10.814  1.00  0.00     0.153 C 
HETATM    5  C6  LIG X 999      38.555 136.096  10.573  1.00  0.00     0.031 C 
HETATM    6  C5  LIG X 999      38.895 136.009   9.080  1.00  0.00     0.003 C 
HETATM    7  C4  LIG X 999      38.361 134.709   8.474  1.00  0.00     0.009 C 
HETATM    8  C3  LIG X 999      36.839 134.572   8.679  1.00  0.00     0.018 C 
HETATM    9  C2  LIG X 999      36.382 133.229   8.154  1.00  0.00    -0.021 C 
HETATM   10  C8  LIG X 999      36.443 134.721  10.177  1.00  0.00     0.043 C 
HETATM   11  C1  LIG X 999      36.377 132.151   8.947  1.00  0.00    -0.004 C 
HETATM   12  C10 LIG X 999      36.717 132.271  10.379  1.00  0.00    -0.004 C 
HETATM   13  C9  LIG X 999      36.813 133.475  10.955  1.00  0.00    -0.019 C 
ENDBRANCH   1   4
TORSDOF 1
