MODEL 1
REMARK VINA RESULT:      -5.9      0.000      0.000
REMARK  3 active torsions:
REMARK  status: ('A' for Active; 'I' for Inactive)
REMARK    1  A    between atoms: C3_3  and  S1_4 
REMARK    2  A    between atoms: S1_4  and  C4_7 
REMARK    3  A    between atoms: C6_9  and  N1_10 
ROOT
HETATM    1  C1  LIG X 999      43.409 131.741  21.104  1.00  0.00     0.013 C 
HETATM    2  C2  LIG X 999      43.136 131.018  22.030  1.00  0.00    -0.102 C 
HETATM    3  C3  LIG X 999      42.808 130.142  23.157  1.00  0.00     0.238 C 
ENDROOT
BRANCH   3   4
HETATM    4  S1  LIG X 999      44.039 128.857  23.328  1.00  0.00     0.186 S 
HETATM    5  O1  LIG X 999      44.765 129.085  24.625  1.00  0.00    -0.222 OA
HETATM    6  O2  LIG X 999      45.007 128.993  22.185  1.00  0.00    -0.222 OA
BRANCH   4   7
HETATM    7  C4  LIG X 999      43.369 127.207  23.315  1.00  0.00     0.073 A 
HETATM    8  C5  LIG X 999      42.013 127.017  23.633  1.00  0.00     0.058 A 
HETATM    9  C6  LIG X 999      41.442 125.734  23.659  1.00  0.00     0.095 A 
HETATM   10  C7  LIG X 999      42.228 124.624  23.355  1.00  0.00     0.046 A 
HETATM   11  C8  LIG X 999      43.578 124.776  23.017  1.00  0.00    -0.021 A 
HETATM   12  C9  LIG X 999      44.350 123.640  22.701  1.00  0.00     0.022 A 
HETATM   13  C13 LIG X 999      44.167 126.078  22.988  1.00  0.00    -0.004 A 
HETATM   14  C10 LIG X 999      45.689 123.812  22.363  1.00  0.00    -0.024 A 
HETATM   15  C11 LIG X 999      46.257 125.044  22.323  1.00  0.00    -0.024 A 
HETATM   16  C17 LIG X 999      46.667 122.773  21.973  1.00  0.00     0.276 C 
HETATM   17  C12 LIG X 999      45.530 126.196  22.621  1.00  0.00     0.023 A 
HETATM   18  C14 LIG X 999      47.672 124.950  21.900  1.00  0.00     0.276 C 
HETATM   19  N4  LIG X 999      47.977 123.486  21.836  1.00  0.00    -0.067 N 
HETATM   20  C15 LIG X 999      48.879 123.105  22.950  1.00  0.00     0.272 C 
HETATM   21  C16 LIG X 999      48.628 123.142  20.551  1.00  0.00     0.272 C 
BRANCH   9  22
HETATM   22  N1  LIG X 999      40.062 125.529  23.992  1.00  0.00    -0.073 NA
HETATM   23  N2  LIG X 999      39.553 124.408  24.035  1.00  0.00    -0.162 NA
HETATM   24  N3  LIG X 999      39.042 123.289  24.078  1.00  0.00     0.068 N 
ENDBRANCH   9  22
ENDBRANCH   4   7
ENDBRANCH   3   4
TORSDOF 3
ENDMDL
MODEL 2
REMARK VINA RESULT:      -5.8      1.113      1.368
REMARK  3 active torsions:
REMARK  status: ('A' for Active; 'I' for Inactive)
REMARK    1  A    between atoms: C3_3  and  S1_4 
REMARK    2  A    between atoms: S1_4  and  C4_7 
REMARK    3  A    between atoms: C6_9  and  N1_10 
ROOT
HETATM    1  C1  LIG X 999      43.537 131.863  19.956  1.00  0.00     0.013 C 
HETATM    2  C2  LIG X 999      43.203 131.590  21.082  1.00  0.00    -0.102 C 
HETATM    3  C3  LIG X 999      42.800 131.261  22.452  1.00  0.00     0.238 C 
ENDROOT
BRANCH   3   4
HETATM    4  S1  LIG X 999      43.879 130.010  23.135  1.00  0.00     0.186 S 
HETATM    5  O1  LIG X 999      44.434 130.540  24.429  1.00  0.00    -0.222 OA
HETATM    6  O2  LIG X 999      45.005 129.792  22.163  1.00  0.00    -0.222 OA
BRANCH   4   7
HETATM    7  C4  LIG X 999      43.076 128.450  23.439  1.00  0.00     0.073 A 
HETATM    8  C5  LIG X 999      41.743 128.442  23.885  1.00  0.00     0.058 A 
HETATM    9  C6  LIG X 999      41.073 127.239  24.159  1.00  0.00     0.095 A 
HETATM   10  C7  LIG X 999      41.733 126.026  23.979  1.00  0.00     0.046 A 
HETATM   11  C8  LIG X 999      43.055 125.994  23.521  1.00  0.00    -0.021 A 
HETATM   12  C9  LIG X 999      43.699 124.753  23.334  1.00  0.00     0.022 A 
HETATM   13  C13 LIG X 999      43.745 127.213  23.238  1.00  0.00    -0.004 A 
HETATM   14  C10 LIG X 999      45.012 124.742  22.873  1.00  0.00    -0.024 A 
HETATM   15  C11 LIG X 999      45.675 125.894  22.592  1.00  0.00    -0.024 A 
HETATM   16  C17 LIG X 999      45.861 123.567  22.583  1.00  0.00     0.276 C 
HETATM   17  C12 LIG X 999      45.075 127.142  22.755  1.00  0.00     0.023 A 
HETATM   18  C14 LIG X 999      47.033 125.600  22.085  1.00  0.00     0.276 C 
HETATM   19  N4  LIG X 999      47.209 124.121  22.234  1.00  0.00    -0.067 N 
HETATM   20  C15 LIG X 999      48.172 123.831  23.324  1.00  0.00     0.272 C 
HETATM   21  C16 LIG X 999      47.711 123.523  20.976  1.00  0.00     0.272 C 
BRANCH   9  22
HETATM   22  N1  LIG X 999      39.716 127.221  24.624  1.00  0.00    -0.073 NA
HETATM   23  N2  LIG X 999      38.988 126.234  24.501  1.00  0.00    -0.162 NA
HETATM   24  N3  LIG X 999      38.261 125.249  24.378  1.00  0.00     0.068 N 
ENDBRANCH   9  22
ENDBRANCH   4   7
ENDBRANCH   3   4
TORSDOF 3
ENDMDL
MODEL 3
REMARK VINA RESULT:      -5.4      2.504      5.913
REMARK  3 active torsions:
REMARK  status: ('A' for Active; 'I' for Inactive)
REMARK    1  A    between atoms: C3_3  and  S1_4 
REMARK    2  A    between atoms: S1_4  and  C4_7 
REMARK    3  A    between atoms: C6_9  and  N1_10 
ROOT
HETATM    1  C1  LIG X 999      48.519 123.300  20.183  1.00  0.00     0.013 C 
HETATM    2  C2  LIG X 999      47.655 123.120  21.005  1.00  0.00    -0.102 C 
HETATM    3  C3  LIG X 999      46.603 122.903  22.002  1.00  0.00     0.238 C 
ENDROOT
BRANCH   3   4
HETATM    4  S1  LIG X 999      46.262 124.417  22.889  1.00  0.00     0.186 S 
HETATM    5  O1  LIG X 999      46.654 125.567  22.002  1.00  0.00    -0.222 OA
HETATM    6  O2  LIG X 999      47.117 124.428  24.125  1.00  0.00    -0.222 OA
BRANCH   4   7
HETATM    7  C4  LIG X 999      44.558 124.605  23.370  1.00  0.00     0.073 A 
HETATM    8  C5  LIG X 999      43.804 123.459  23.677  1.00  0.00     0.058 A 
HETATM    9  C6  LIG X 999      42.451 123.552  24.041  1.00  0.00     0.095 A 
HETATM   10  C7  LIG X 999      41.840 124.803  24.110  1.00  0.00     0.046 A 
HETATM   11  C8  LIG X 999      42.564 125.967  23.827  1.00  0.00    -0.021 A 
HETATM   12  C9  LIG X 999      41.928 127.222  23.917  1.00  0.00     0.022 A 
HETATM   13  C13 LIG X 999      43.942 125.882  23.458  1.00  0.00    -0.004 A 
HETATM   14  C10 LIG X 999      42.666 128.369  23.637  1.00  0.00    -0.024 A 
HETATM   15  C11 LIG X 999      43.978 128.301  23.293  1.00  0.00    -0.024 A 
HETATM   16  C17 LIG X 999      42.213 129.775  23.694  1.00  0.00     0.276 C 
HETATM   17  C12 LIG X 999      44.649 127.082  23.200  1.00  0.00     0.023 A 
HETATM   18  C14 LIG X 999      44.531 129.658  23.088  1.00  0.00     0.276 C 
HETATM   19  N4  LIG X 999      43.363 130.589  23.184  1.00  0.00    -0.067 N 
HETATM   20  C15 LIG X 999      43.040 131.138  21.846  1.00  0.00     0.272 C 
HETATM   21  C16 LIG X 999      43.660 131.709  24.105  1.00  0.00     0.272 C 
BRANCH   9  22
HETATM   22  N1  LIG X 999      41.670 122.388  24.346  1.00  0.00    -0.073 NA
HETATM   23  N2  LIG X 999      40.439 122.389  24.305  1.00  0.00    -0.162 NA
HETATM   24  N3  LIG X 999      39.209 122.389  24.265  1.00  0.00     0.068 N 
ENDBRANCH   9  22
ENDBRANCH   4   7
ENDBRANCH   3   4
TORSDOF 3
ENDMDL
MODEL 4
REMARK VINA RESULT:      -3.9      1.763      5.571
REMARK  3 active torsions:
REMARK  status: ('A' for Active; 'I' for Inactive)
REMARK    1  A    between atoms: C3_3  and  S1_4 
REMARK    2  A    between atoms: S1_4  and  C4_7 
REMARK    3  A    between atoms: C6_9  and  N1_10 
ROOT
HETATM    1  C1  LIG X 999      43.208 131.724  21.235  1.00  0.00     0.013 C 
HETATM    2  C2  LIG X 999      43.938 130.836  21.600  1.00  0.00    -0.102 C 
HETATM    3  C3  LIG X 999      44.823 129.755  22.041  1.00  0.00     0.238 C 
ENDROOT
BRANCH   3   4
HETATM    4  S1  LIG X 999      43.992 128.717  23.236  1.00  0.00     0.186 S 
HETATM    5  O1  LIG X 999      42.546 128.620  22.833  1.00  0.00    -0.222 OA
HETATM    6  O2  LIG X 999      44.091 129.390  24.577  1.00  0.00    -0.222 OA
BRANCH   4   7
HETATM    7  C4  LIG X 999      44.673 127.077  23.369  1.00  0.00     0.073 A 
HETATM    8  C5  LIG X 999      46.070 126.917  23.396  1.00  0.00     0.058 A 
HETATM    9  C6  LIG X 999      46.657 125.644  23.477  1.00  0.00     0.095 A 
HETATM   10  C7  LIG X 999      45.844 124.514  23.542  1.00  0.00     0.046 A 
HETATM   11  C8  LIG X 999      44.450 124.635  23.533  1.00  0.00    -0.021 A 
HETATM   12  C9  LIG X 999      43.649 123.478  23.613  1.00  0.00     0.022 A 
HETATM   13  C13 LIG X 999      43.844 125.927  23.452  1.00  0.00    -0.004 A 
HETATM   14  C10 LIG X 999      42.264 123.619  23.609  1.00  0.00    -0.024 A 
HETATM   15  C11 LIG X 999      41.677 124.842  23.541  1.00  0.00    -0.024 A 
HETATM   16  C17 LIG X 999      41.243 122.555  23.710  1.00  0.00     0.276 C 
HETATM   17  C12 LIG X 999      42.430 126.014  23.468  1.00  0.00     0.023 A 
HETATM   18  C14 LIG X 999      40.204 124.714  23.592  1.00  0.00     0.276 C 
HETATM   19  N4  LIG X 999      39.925 123.244  23.535  1.00  0.00    -0.067 N 
HETATM   20  C15 LIG X 999      39.340 122.889  22.220  1.00  0.00     0.272 C 
HETATM   21  C16 LIG X 999      38.981 122.848  24.604  1.00  0.00     0.272 C 
BRANCH   9  22
HETATM   22  N1  LIG X 999      48.080 125.470  23.495  1.00  0.00    -0.073 NA
HETATM   23  N2  LIG X 999      48.646 124.589  22.846  1.00  0.00    -0.162 NA
HETATM   24  N3  LIG X 999      49.213 123.710  22.197  1.00  0.00     0.068 N 
ENDBRANCH   9  22
ENDBRANCH   4   7
ENDBRANCH   3   4
TORSDOF 3
ENDMDL
MODEL 5
REMARK VINA RESULT:      -3.9      2.894      5.982
REMARK  3 active torsions:
REMARK  status: ('A' for Active; 'I' for Inactive)
REMARK    1  A    between atoms: C3_3  and  S1_4 
REMARK    2  A    between atoms: S1_4  and  C4_7 
REMARK    3  A    between atoms: C6_9  and  N1_10 
ROOT
HETATM    1  C1  LIG X 999      47.061 124.518  21.661  1.00  0.00     0.013 C 
HETATM    2  C2  LIG X 999      46.151 125.145  22.144  1.00  0.00    -0.102 C 
HETATM    3  C3  LIG X 999      45.046 125.905  22.734  1.00  0.00     0.238 C 
ENDROOT
BRANCH   3   4
HETATM    4  S1  LIG X 999      43.661 124.827  23.078  1.00  0.00     0.186 S 
HETATM    5  O1  LIG X 999      44.090 123.853  24.140  1.00  0.00    -0.222 OA
HETATM    6  O2  LIG X 999      43.339 124.077  21.816  1.00  0.00    -0.222 OA
BRANCH   4   7
HETATM    7  C4  LIG X 999      42.198 125.682  23.624  1.00  0.00     0.073 A 
HETATM    8  C5  LIG X 999      41.042 124.938  23.918  1.00  0.00     0.058 A 
HETATM    9  C6  LIG X 999      39.856 125.566  24.331  1.00  0.00     0.095 A 
HETATM   10  C7  LIG X 999      39.820 126.953  24.463  1.00  0.00     0.046 A 
HETATM   11  C8  LIG X 999      40.956 127.725  24.194  1.00  0.00    -0.021 A 
HETATM   12  C9  LIG X 999      40.900 129.125  24.347  1.00  0.00     0.022 A 
HETATM   13  C13 LIG X 999      42.168 127.094  23.775  1.00  0.00    -0.004 A 
HETATM   14  C10 LIG X 999      42.042 129.875  24.080  1.00  0.00    -0.024 A 
HETATM   15  C11 LIG X 999      43.202 129.286  23.689  1.00  0.00    -0.024 A 
HETATM   16  C17 LIG X 999      42.214 131.339  24.200  1.00  0.00     0.276 C 
HETATM   17  C12 LIG X 999      43.305 127.904  23.532  1.00  0.00     0.023 A 
HETATM   18  C14 LIG X 999      44.264 130.300  23.510  1.00  0.00     0.276 C 
HETATM   19  N4  LIG X 999      43.589 131.626  23.678  1.00  0.00    -0.067 N 
HETATM   20  C15 LIG X 999      43.499 132.319  22.370  1.00  0.00     0.272 C 
HETATM   21  C16 LIG X 999      44.340 132.480  24.624  1.00  0.00     0.272 C 
BRANCH   9  22
HETATM   22  N1  LIG X 999      38.668 124.817  24.625  1.00  0.00    -0.073 NA
HETATM   23  N2  LIG X 999      38.583 123.606  24.417  1.00  0.00    -0.162 NA
HETATM   24  N3  LIG X 999      38.497 122.396  24.210  1.00  0.00     0.068 N 
ENDBRANCH   9  22
ENDBRANCH   4   7
ENDBRANCH   3   4
TORSDOF 3
ENDMDL
MODEL 6
REMARK VINA RESULT:      -3.0      3.331      4.655
REMARK  3 active torsions:
REMARK  status: ('A' for Active; 'I' for Inactive)
REMARK    1  A    between atoms: C3_3  and  S1_4 
REMARK    2  A    between atoms: S1_4  and  C4_7 
REMARK    3  A    between atoms: C6_9  and  N1_10 
ROOT
HETATM    1  C1  LIG X 999      45.371 131.082  16.750  1.00  0.00     0.013 C 
HETATM    2  C2  LIG X 999      44.978 131.383  17.850  1.00  0.00    -0.102 C 
HETATM    3  C3  LIG X 999      44.505 131.751  19.187  1.00  0.00     0.238 C 
ENDROOT
BRANCH   3   4
HETATM    4  S1  LIG X 999      45.464 130.913  20.441  1.00  0.00     0.186 S 
HETATM    5  O1  LIG X 999      46.555 131.848  20.885  1.00  0.00    -0.222 OA
HETATM    6  O2  LIG X 999      46.079 129.694  19.812  1.00  0.00    -0.222 OA
BRANCH   4   7
HETATM    7  C4  LIG X 999      44.515 130.406  21.860  1.00  0.00     0.073 A 
HETATM    8  C5  LIG X 999      43.597 131.309  22.426  1.00  0.00     0.058 A 
HETATM    9  C6  LIG X 999      42.841 130.965  23.559  1.00  0.00     0.095 A 
HETATM   10  C7  LIG X 999      42.991 129.703  24.131  1.00  0.00     0.046 A 
HETATM   11  C8  LIG X 999      43.883 128.773  23.585  1.00  0.00    -0.021 A 
HETATM   12  C9  LIG X 999      44.009 127.499  24.174  1.00  0.00     0.022 A 
HETATM   13  C13 LIG X 999      44.656 129.114  22.432  1.00  0.00    -0.004 A 
HETATM   14  C10 LIG X 999      44.897 126.585  23.613  1.00  0.00    -0.024 A 
HETATM   15  C11 LIG X 999      45.630 126.894  22.512  1.00  0.00    -0.024 A 
HETATM   16  C17 LIG X 999      45.165 125.198  24.046  1.00  0.00     0.276 C 
HETATM   17  C12 LIG X 999      45.533 128.140  21.893  1.00  0.00     0.023 A 
HETATM   18  C14 LIG X 999      46.461 125.741  22.102  1.00  0.00     0.276 C 
HETATM   19  N4  LIG X 999      46.285 124.714  23.177  1.00  0.00    -0.067 N 
HETATM   20  C15 LIG X 999      47.530 124.597  23.975  1.00  0.00     0.272 C 
HETATM   21  C16 LIG X 999      45.961 123.393  22.593  1.00  0.00     0.272 C 
BRANCH   9  22
HETATM   22  N1  LIG X 999      41.909 131.882  24.150  1.00  0.00    -0.073 NA
HETATM   23  N2  LIG X 999      41.156 132.585  23.475  1.00  0.00    -0.162 NA
HETATM   24  N3  LIG X 999      40.402 133.288  22.802  1.00  0.00     0.068 N 
ENDBRANCH   9  22
ENDBRANCH   4   7
ENDBRANCH   3   4
TORSDOF 3
ENDMDL
MODEL 7
REMARK VINA RESULT:      -2.9      5.558      7.950
REMARK  3 active torsions:
REMARK  status: ('A' for Active; 'I' for Inactive)
REMARK    1  A    between atoms: C3_3  and  S1_4 
REMARK    2  A    between atoms: S1_4  and  C4_7 
REMARK    3  A    between atoms: C6_9  and  N1_10 
ROOT
HETATM    1  C1  LIG X 999      43.698 128.580  23.424  1.00  0.00     0.013 C 
HETATM    2  C2  LIG X 999      44.181 129.666  23.223  1.00  0.00    -0.102 C 
HETATM    3  C3  LIG X 999      44.763 130.988  22.976  1.00  0.00     0.238 C 
ENDROOT
BRANCH   3   4
HETATM    4  S1  LIG X 999      45.366 131.100  21.297  1.00  0.00     0.186 S 
HETATM    5  O1  LIG X 999      45.888 129.746  20.905  1.00  0.00    -0.222 OA
HETATM    6  O2  LIG X 999      46.495 132.093  21.279  1.00  0.00    -0.222 OA
BRANCH   4   7
HETATM    7  C4  LIG X 999      44.134 131.616  20.119  1.00  0.00     0.073 A 
HETATM    8  C5  LIG X 999      42.920 132.148  20.588  1.00  0.00     0.058 A 
HETATM    9  C6  LIG X 999      41.908 132.549  19.700  1.00  0.00     0.095 A 
HETATM   10  C7  LIG X 999      42.109 132.427  18.327  1.00  0.00     0.046 A 
HETATM   11  C8  LIG X 999      43.310 131.916  17.823  1.00  0.00    -0.021 A 
HETATM   12  C9  LIG X 999      43.495 131.814  16.429  1.00  0.00     0.022 A 
HETATM   13  C13 LIG X 999      44.346 131.507  18.719  1.00  0.00    -0.004 A 
HETATM   14  C10 LIG X 999      44.699 131.308  15.947  1.00  0.00    -0.024 A 
HETATM   15  C11 LIG X 999      45.694 130.925  16.788  1.00  0.00    -0.024 A 
HETATM   16  C17 LIG X 999      45.113 131.141  14.538  1.00  0.00     0.276 C 
HETATM   17  C12 LIG X 999      45.558 131.015  18.173  1.00  0.00     0.023 A 
HETATM   18  C14 LIG X 999      46.872 130.464  16.022  1.00  0.00     0.276 C 
HETATM   19  N4  LIG X 999      46.440 130.449  14.588  1.00  0.00    -0.067 N 
HETATM   20  C15 LIG X 999      46.300 129.050  14.115  1.00  0.00     0.272 C 
HETATM   21  C16 LIG X 999      47.428 131.148  13.736  1.00  0.00     0.272 C 
BRANCH   9  22
HETATM   22  N1  LIG X 999      40.663 133.084  20.169  1.00  0.00    -0.073 NA
HETATM   23  N2  LIG X 999      40.460 133.341  21.356  1.00  0.00    -0.162 NA
HETATM   24  N3  LIG X 999      40.255 133.599  22.542  1.00  0.00     0.068 N 
ENDBRANCH   9  22
ENDBRANCH   4   7
ENDBRANCH   3   4
TORSDOF 3
ENDMDL
