MODEL 1
REMARK VINA RESULT:      -5.3      0.000      0.000
REMARK  5 active torsions:
REMARK  status: ('A' for Active; 'I' for Inactive)
REMARK    1  A    between atoms: C3_3  and  C4_4 
REMARK    2  A    between atoms: C4_4  and  S1_5 
REMARK    3  A    between atoms: S1_5  and  C5_6 
REMARK    4  A    between atoms: C6_7  and  N1_8 
REMARK    5  A    between atoms: C10_12  and  N2_13 
ROOT
HETATM    1  C1  LIG X 999      43.333 128.976  24.593  1.00  0.00     0.112 C 
HETATM    2  C2  LIG X 999      44.043 129.261  23.346  1.00  0.00    -0.110 C 
HETATM    3  C3  LIG X 999      44.614 129.483  22.308  1.00  0.00    -0.097 C 
ENDROOT
BRANCH   3   4
HETATM    4  C4  LIG X 999      45.293 129.735  21.034  1.00  0.00     0.173 C 
BRANCH   4   5
HETATM    5  S1  LIG X 999      45.538 131.527  20.784  1.00  0.00    -0.115 SA
BRANCH   5   6
HETATM    6  C5  LIG X 999      44.227 131.698  19.542  1.00  0.00     0.038 A 
HETATM    7  C6  LIG X 999      42.931 132.089  19.946  1.00  0.00     0.043 A 
HETATM    8  C7  LIG X 999      41.928 132.256  18.989  1.00  0.00     0.031 A 
HETATM    9  C8  LIG X 999      42.185 132.059  17.636  1.00  0.00     0.017 A 
HETATM   10  C9  LIG X 999      43.463 131.675  17.192  1.00  0.00     0.002 A 
HETATM   11  C10 LIG X 999      43.750 131.482  15.807  1.00  0.00     0.045 A 
HETATM   12  C14 LIG X 999      44.490 131.451  18.167  1.00  0.00    -0.004 A 
HETATM   13  C11 LIG X 999      45.031 131.038  15.452  1.00  0.00     0.003 A 
HETATM   14  C12 LIG X 999      45.989 130.797  16.384  1.00  0.00    -0.021 A 
HETATM   15  C18 LIG X 999      45.568 130.769  14.093  1.00  0.00     0.278 C 
HETATM   16  C13 LIG X 999      45.754 130.985  17.739  1.00  0.00     0.023 A 
HETATM   17  C15 LIG X 999      47.245 130.340  15.752  1.00  0.00     0.276 C 
HETATM   18  N3  LIG X 999      47.019 130.451  14.277  1.00  0.00    -0.067 N 
HETATM   19  C16 LIG X 999      47.364 129.181  13.599  1.00  0.00     0.272 C 
HETATM   20  C17 LIG X 999      47.856 131.539  13.716  1.00  0.00     0.272 C 
BRANCH   7  21
HETATM   21  N1  LIG X 999      42.609 132.320  21.326  1.00  0.00    -0.398 N 
HETATM   22  H6  LIG X 999      42.465 133.293  21.679  1.00  0.00     0.156 HD
HETATM   23  H7  LIG X 999      42.504 131.546  22.016  1.00  0.00     0.156 HD
ENDBRANCH   7  21
BRANCH  11  24
HETATM   24  N2  LIG X 999      42.786 131.748  14.775  1.00  0.00    -0.398 N 
HETATM   25  H10 LIG X 999      42.223 132.623  14.741  1.00  0.00     0.156 HD
HETATM   26  H11 LIG X 999      42.699 131.113  13.951  1.00  0.00     0.156 HD
ENDBRANCH  11  24
ENDBRANCH   5   6
ENDBRANCH   4   5
ENDBRANCH   3   4
TORSDOF 5
ENDMDL
MODEL 2
REMARK VINA RESULT:      -5.2      5.483      8.006
REMARK  5 active torsions:
REMARK  status: ('A' for Active; 'I' for Inactive)
REMARK    1  A    between atoms: C3_3  and  C4_4 
REMARK    2  A    between atoms: C4_4  and  S1_5 
REMARK    3  A    between atoms: S1_5  and  C5_6 
REMARK    4  A    between atoms: C6_7  and  N1_8 
REMARK    5  A    between atoms: C10_12  and  N2_13 
ROOT
HETATM    1  C1  LIG X 999      42.360 132.508  20.519  1.00  0.00     0.112 C 
HETATM    2  C2  LIG X 999      43.179 131.491  21.178  1.00  0.00    -0.110 C 
HETATM    3  C3  LIG X 999      43.861 130.647  21.703  1.00  0.00    -0.097 C 
ENDROOT
BRANCH   3   4
HETATM    4  C4  LIG X 999      44.696 129.611  22.316  1.00  0.00     0.173 C 
BRANCH   4   5
HETATM    5  S1  LIG X 999      44.225 129.361  24.063  1.00  0.00    -0.115 SA
BRANCH   5   6
HETATM    6  C5  LIG X 999      43.244 127.867  23.754  1.00  0.00     0.038 A 
HETATM    7  C6  LIG X 999      41.837 127.924  23.851  1.00  0.00     0.043 A 
HETATM    8  C7  LIG X 999      41.077 126.785  23.578  1.00  0.00     0.031 A 
HETATM    9  C8  LIG X 999      41.681 125.592  23.196  1.00  0.00     0.017 A 
HETATM   10  C9  LIG X 999      43.079 125.495  23.081  1.00  0.00     0.002 A 
HETATM   11  C10 LIG X 999      43.716 124.284  22.676  1.00  0.00     0.045 A 
HETATM   12  C14 LIG X 999      43.876 126.641  23.405  1.00  0.00    -0.004 A 
HETATM   13  C11 LIG X 999      45.118 124.249  22.648  1.00  0.00     0.003 A 
HETATM   14  C12 LIG X 999      45.866 125.330  22.988  1.00  0.00    -0.021 A 
HETATM   15  C18 LIG X 999      46.003 123.121  22.263  1.00  0.00     0.278 C 
HETATM   16  C13 LIG X 999      45.285 126.530  23.374  1.00  0.00     0.023 A 
HETATM   17  C15 LIG X 999      47.311 125.036  22.875  1.00  0.00     0.276 C 
HETATM   18  N3  LIG X 999      47.399 123.665  22.282  1.00  0.00    -0.067 N 
HETATM   19  C16 LIG X 999      48.284 122.800  23.094  1.00  0.00     0.272 C 
HETATM   20  C17 LIG X 999      47.935 123.742  20.901  1.00  0.00     0.272 C 
BRANCH   7  21
HETATM   21  N1  LIG X 999      41.156 129.130  24.227  1.00  0.00    -0.398 N 
HETATM   22  H6  LIG X 999      40.944 129.863  23.513  1.00  0.00     0.156 HD
HETATM   23  H7  LIG X 999      40.846 129.320  25.205  1.00  0.00     0.156 HD
ENDBRANCH   7  21
BRANCH  11  24
HETATM   24  N2  LIG X 999      42.977 123.117  22.278  1.00  0.00    -0.398 N 
HETATM   25  H10 LIG X 999      42.319 122.623  22.916  1.00  0.00     0.156 HD
HETATM   26  H11 LIG X 999      42.989 122.791  21.286  1.00  0.00     0.156 HD
ENDBRANCH  11  24
ENDBRANCH   5   6
ENDBRANCH   4   5
ENDBRANCH   3   4
TORSDOF 5
ENDMDL
MODEL 3
REMARK VINA RESULT:      -5.0      1.966      2.835
REMARK  5 active torsions:
REMARK  status: ('A' for Active; 'I' for Inactive)
REMARK    1  A    between atoms: C3_3  and  C4_4 
REMARK    2  A    between atoms: C4_4  and  S1_5 
REMARK    3  A    between atoms: S1_5  and  C5_6 
REMARK    4  A    between atoms: C6_7  and  N1_8 
REMARK    5  A    between atoms: C10_12  and  N2_13 
ROOT
HETATM    1  C1  LIG X 999      46.368 126.007  22.007  1.00  0.00     0.112 C 
HETATM    2  C2  LIG X 999      45.585 127.165  22.436  1.00  0.00    -0.110 C 
HETATM    3  C3  LIG X 999      44.937 128.110  22.808  1.00  0.00    -0.097 C 
ENDROOT
BRANCH   3   4
HETATM    4  C4  LIG X 999      44.143 129.247  23.283  1.00  0.00     0.173 C 
BRANCH   4   5
HETATM    5  S1  LIG X 999      44.991 130.820  22.910  1.00  0.00    -0.115 SA
BRANCH   5   6
HETATM    6  C5  LIG X 999      43.604 131.536  21.986  1.00  0.00     0.038 A 
HETATM    7  C6  LIG X 999      42.517 132.102  22.687  1.00  0.00     0.043 A 
HETATM    8  C7  LIG X 999      41.464 132.686  21.980  1.00  0.00     0.031 A 
HETATM    9  C8  LIG X 999      41.472 132.735  20.589  1.00  0.00     0.017 A 
HETATM   10  C9  LIG X 999      42.539 132.189  19.854  1.00  0.00     0.002 A 
HETATM   11  C10 LIG X 999      42.572 132.243  18.428  1.00  0.00     0.045 A 
HETATM   12  C14 LIG X 999      43.602 131.542  20.564  1.00  0.00    -0.004 A 
HETATM   13  C11 LIG X 999      43.638 131.619  17.766  1.00  0.00     0.003 A 
HETATM   14  C12 LIG X 999      44.626 130.980  18.445  1.00  0.00    -0.021 A 
HETATM   15  C18 LIG X 999      43.896 131.541  16.305  1.00  0.00     0.278 C 
HETATM   16  C13 LIG X 999      44.637 130.917  19.831  1.00  0.00     0.023 A 
HETATM   17  C15 LIG X 999      45.627 130.409  17.518  1.00  0.00     0.276 C 
HETATM   18  N3  LIG X 999      45.233 130.883  16.155  1.00  0.00    -0.067 N 
HETATM   19  C16 LIG X 999      45.151 129.746  15.211  1.00  0.00     0.272 C 
HETATM   20  C17 LIG X 999      46.228 131.859  15.649  1.00  0.00     0.272 C 
BRANCH   7  21
HETATM   21  N1  LIG X 999      42.459 132.094  24.121  1.00  0.00    -0.398 N 
HETATM   22  H6  LIG X 999      43.001 131.388  24.669  1.00  0.00     0.156 HD
HETATM   23  H7  LIG X 999      41.891 132.779  24.665  1.00  0.00     0.156 HD
ENDBRANCH   7  21
BRANCH  11  24
HETATM   24  N2  LIG X 999      41.570 132.929  17.657  1.00  0.00    -0.398 N 
HETATM   25  H10 LIG X 999      41.506 132.850  16.621  1.00  0.00     0.156 HD
HETATM   26  H11 LIG X 999      40.795 133.445  18.129  1.00  0.00     0.156 HD
ENDBRANCH  11  24
ENDBRANCH   5   6
ENDBRANCH   4   5
ENDBRANCH   3   4
TORSDOF 5
ENDMDL
MODEL 4
REMARK VINA RESULT:      -5.0      3.764      7.684
REMARK  5 active torsions:
REMARK  status: ('A' for Active; 'I' for Inactive)
REMARK    1  A    between atoms: C3_3  and  C4_4 
REMARK    2  A    between atoms: C4_4  and  S1_5 
REMARK    3  A    between atoms: S1_5  and  C5_6 
REMARK    4  A    between atoms: C6_7  and  N1_8 
REMARK    5  A    between atoms: C10_12  and  N2_13 
ROOT
HETATM    1  C1  LIG X 999      45.380 131.581  16.601  1.00  0.00     0.112 C 
HETATM    2  C2  LIG X 999      44.827 131.511  17.953  1.00  0.00    -0.110 C 
HETATM    3  C3  LIG X 999      44.359 131.438  19.061  1.00  0.00    -0.097 C 
ENDROOT
BRANCH   3   4
HETATM    4  C4  LIG X 999      43.771 131.330  20.399  1.00  0.00     0.173 C 
BRANCH   4   5
HETATM    5  S1  LIG X 999      45.053 130.897  21.627  1.00  0.00    -0.115 SA
BRANCH   5   6
HETATM    6  C5  LIG X 999      43.946 129.916  22.677  1.00  0.00     0.038 A 
HETATM    7  C6  LIG X 999      42.792 130.517  23.225  1.00  0.00     0.043 A 
HETATM    8  C7  LIG X 999      41.918 129.756  24.005  1.00  0.00     0.031 A 
HETATM    9  C8  LIG X 999      42.155 128.405  24.240  1.00  0.00     0.017 A 
HETATM   10  C9  LIG X 999      43.290 127.768  23.707  1.00  0.00     0.002 A 
HETATM   11  C10 LIG X 999      43.543 126.380  23.925  1.00  0.00     0.045 A 
HETATM   12  C14 LIG X 999      44.221 128.548  22.946  1.00  0.00    -0.004 A 
HETATM   13  C11 LIG X 999      44.728 125.834  23.413  1.00  0.00     0.003 A 
HETATM   14  C12 LIG X 999      45.622 126.587  22.721  1.00  0.00    -0.021 A 
HETATM   15  C18 LIG X 999      45.211 124.433  23.504  1.00  0.00     0.278 C 
HETATM   16  C13 LIG X 999      45.406 127.937  22.476  1.00  0.00     0.023 A 
HETATM   17  C15 LIG X 999      46.783 125.778  22.293  1.00  0.00     0.276 C 
HETATM   18  N3  LIG X 999      46.457 124.369  22.677  1.00  0.00    -0.067 N 
HETATM   19  C16 LIG X 999      47.566 123.769  23.451  1.00  0.00     0.272 C 
HETATM   20  C17 LIG X 999      46.221 123.553  21.461  1.00  0.00     0.272 C 
BRANCH   7  21
HETATM   21  N1  LIG X 999      42.486 131.902  23.006  1.00  0.00    -0.398 N 
HETATM   22  H6  LIG X 999      42.063 132.214  22.103  1.00  0.00     0.156 HD
HETATM   23  H7  LIG X 999      42.665 132.638  23.723  1.00  0.00     0.156 HD
ENDBRANCH   7  21
BRANCH  11  24
HETATM   24  N2  LIG X 999      42.621 125.528  24.625  1.00  0.00    -0.398 N 
HETATM   25  H10 LIG X 999      41.677 125.847  24.927  1.00  0.00     0.156 HD
HETATM   26  H11 LIG X 999      42.827 124.513  24.755  1.00  0.00     0.156 HD
ENDBRANCH  11  24
ENDBRANCH   5   6
ENDBRANCH   4   5
ENDBRANCH   3   4
TORSDOF 5
ENDMDL
MODEL 5
REMARK VINA RESULT:      -4.5      3.084      7.590
REMARK  5 active torsions:
REMARK  status: ('A' for Active; 'I' for Inactive)
REMARK    1  A    between atoms: C3_3  and  C4_4 
REMARK    2  A    between atoms: C4_4  and  S1_5 
REMARK    3  A    between atoms: S1_5  and  C5_6 
REMARK    4  A    between atoms: C6_7  and  N1_8 
REMARK    5  A    between atoms: C10_12  and  N2_13 
ROOT
HETATM    1  C1  LIG X 999      46.697 131.220  14.605  1.00  0.00     0.112 C 
HETATM    2  C2  LIG X 999      46.053 131.124  15.915  1.00  0.00    -0.110 C 
HETATM    3  C3  LIG X 999      45.509 131.060  16.988  1.00  0.00    -0.097 C 
ENDROOT
BRANCH   3   4
HETATM    4  C4  LIG X 999      44.832 131.005  18.287  1.00  0.00     0.173 C 
BRANCH   4   5
HETATM    5  S1  LIG X 999      46.017 130.572  19.607  1.00  0.00    -0.115 SA
BRANCH   5   6
HETATM    6  C5  LIG X 999      44.785 130.577  20.939  1.00  0.00     0.038 A 
HETATM    7  C6  LIG X 999      43.932 131.692  21.094  1.00  0.00     0.043 A 
HETATM    8  C7  LIG X 999      42.958 131.684  22.095  1.00  0.00     0.031 A 
HETATM    9  C8  LIG X 999      42.800 130.588  22.937  1.00  0.00     0.017 A 
HETATM   10  C9  LIG X 999      43.625 129.456  22.810  1.00  0.00     0.002 A 
HETATM   11  C10 LIG X 999      43.468 128.316  23.654  1.00  0.00     0.045 A 
HETATM   12  C14 LIG X 999      44.661 129.469  21.820  1.00  0.00    -0.004 A 
HETATM   13  C11 LIG X 999      44.371 127.254  23.508  1.00  0.00     0.003 A 
HETATM   14  C12 LIG X 999      45.371 127.287  22.589  1.00  0.00    -0.021 A 
HETATM   15  C18 LIG X 999      44.414 125.972  24.256  1.00  0.00     0.278 C 
HETATM   16  C13 LIG X 999      45.548 128.371  21.740  1.00  0.00     0.023 A 
HETATM   17  C15 LIG X 999      46.180 126.050  22.636  1.00  0.00     0.276 C 
HETATM   18  N3  LIG X 999      45.486 125.150  23.610  1.00  0.00    -0.067 N 
HETATM   19  C16 LIG X 999      46.439 124.646  24.624  1.00  0.00     0.272 C 
HETATM   20  C17 LIG X 999      44.886 123.997  22.897  1.00  0.00     0.272 C 
BRANCH   7  21
HETATM   21  N1  LIG X 999      44.038 132.846  20.248  1.00  0.00    -0.398 N 
HETATM   22  H6  LIG X 999      43.878 133.803  20.635  1.00  0.00     0.156 HD
HETATM   23  H7  LIG X 999      44.278 132.781  19.235  1.00  0.00     0.156 HD
ENDBRANCH   7  21
BRANCH  11  24
HETATM   24  N2  LIG X 999      42.412 128.212  24.625  1.00  0.00    -0.398 N 
HETATM   25  H10 LIG X 999      41.524 127.702  24.438  1.00  0.00     0.156 HD
HETATM   26  H11 LIG X 999      42.551 128.553  25.602  1.00  0.00     0.156 HD
ENDBRANCH  11  24
ENDBRANCH   5   6
ENDBRANCH   4   5
ENDBRANCH   3   4
TORSDOF 5
ENDMDL
MODEL 6
REMARK VINA RESULT:      -4.5      5.927      8.755
REMARK  5 active torsions:
REMARK  status: ('A' for Active; 'I' for Inactive)
REMARK    1  A    between atoms: C3_3  and  C4_4 
REMARK    2  A    between atoms: C4_4  and  S1_5 
REMARK    3  A    between atoms: S1_5  and  C5_6 
REMARK    4  A    between atoms: C6_7  and  N1_8 
REMARK    5  A    between atoms: C10_12  and  N2_13 
ROOT
HETATM    1  C1  LIG X 999      52.108 126.124  22.497  1.00  0.00     0.112 C 
HETATM    2  C2  LIG X 999      50.705 125.857  22.816  1.00  0.00    -0.110 C 
HETATM    3  C3  LIG X 999      49.545 125.641  23.058  1.00  0.00    -0.097 C 
ENDROOT
BRANCH   3   4
HETATM    4  C4  LIG X 999      48.127 125.384  23.327  1.00  0.00     0.173 C 
BRANCH   4   5
HETATM    5  S1  LIG X 999      47.235 125.037  21.771  1.00  0.00    -0.115 SA
BRANCH   5   6
HETATM    6  C5  LIG X 999      45.611 124.841  22.557  1.00  0.00     0.038 A 
HETATM    7  C6  LIG X 999      45.153 123.550  22.900  1.00  0.00     0.043 A 
HETATM    8  C7  LIG X 999      43.920 123.399  23.538  1.00  0.00     0.031 A 
HETATM    9  C8  LIG X 999      43.136 124.503  23.858  1.00  0.00     0.017 A 
HETATM   10  C9  LIG X 999      43.559 125.806  23.539  1.00  0.00     0.002 A 
HETATM   11  C10 LIG X 999      42.775 126.951  23.872  1.00  0.00     0.045 A 
HETATM   12  C14 LIG X 999      44.799 125.973  22.840  1.00  0.00    -0.004 A 
HETATM   13  C11 LIG X 999      43.235 128.211  23.463  1.00  0.00     0.003 A 
HETATM   14  C12 LIG X 999      44.396 128.358  22.772  1.00  0.00    -0.021 A 
HETATM   15  C18 LIG X 999      42.608 129.538  23.689  1.00  0.00     0.278 C 
HETATM   16  C13 LIG X 999      45.193 127.271  22.441  1.00  0.00     0.023 A 
HETATM   17  C15 LIG X 999      44.654 129.781  22.462  1.00  0.00     0.276 C 
HETATM   18  N3  LIG X 999      43.580 130.550  23.165  1.00  0.00    -0.067 N 
HETATM   19  C16 LIG X 999      42.909 131.481  22.231  1.00  0.00     0.272 C 
HETATM   20  C17 LIG X 999      44.162 131.326  24.286  1.00  0.00     0.272 C 
BRANCH   7  21
HETATM   21  N1  LIG X 999      45.924 122.375  22.608  1.00  0.00    -0.398 N 
HETATM   22  H6  LIG X 999      46.956 122.442  22.462  1.00  0.00     0.156 HD
HETATM   23  H7  LIG X 999      45.498 121.426  22.537  1.00  0.00     0.156 HD
ENDBRANCH   7  21
BRANCH  11  24
HETATM   24  N2  LIG X 999      41.554 126.859  24.625  1.00  0.00    -0.398 N 
HETATM   25  H10 LIG X 999      41.322 126.039  25.223  1.00  0.00     0.156 HD
HETATM   26  H11 LIG X 999      40.903 127.673  24.686  1.00  0.00     0.156 HD
ENDBRANCH  11  24
ENDBRANCH   5   6
ENDBRANCH   4   5
ENDBRANCH   3   4
TORSDOF 5
ENDMDL
MODEL 7
REMARK VINA RESULT:      -4.3      6.433      8.504
REMARK  5 active torsions:
REMARK  status: ('A' for Active; 'I' for Inactive)
REMARK    1  A    between atoms: C3_3  and  C4_4 
REMARK    2  A    between atoms: C4_4  and  S1_5 
REMARK    3  A    between atoms: S1_5  and  C5_6 
REMARK    4  A    between atoms: C6_7  and  N1_8 
REMARK    5  A    between atoms: C10_12  and  N2_13 
ROOT
HETATM    1  C1  LIG X 999      42.373 132.108  22.556  1.00  0.00     0.112 C 
HETATM    2  C2  LIG X 999      43.208 130.911  22.652  1.00  0.00    -0.110 C 
HETATM    3  C3  LIG X 999      43.909 129.933  22.716  1.00  0.00    -0.097 C 
ENDROOT
BRANCH   3   4
HETATM    4  C4  LIG X 999      44.776 128.753  22.773  1.00  0.00     0.173 C 
BRANCH   4   5
HETATM    5  S1  LIG X 999      44.458 127.800  24.299  1.00  0.00    -0.115 SA
BRANCH   5   6
HETATM    6  C5  LIG X 999      44.388 126.187  23.470  1.00  0.00     0.038 A 
HETATM    7  C6  LIG X 999      43.134 125.631  23.134  1.00  0.00     0.043 A 
HETATM    8  C7  LIG X 999      43.077 124.407  22.463  1.00  0.00     0.031 A 
HETATM    9  C8  LIG X 999      44.237 123.729  22.104  1.00  0.00     0.017 A 
HETATM   10  C9  LIG X 999      45.505 124.253  22.415  1.00  0.00     0.002 A 
HETATM   11  C10 LIG X 999      46.707 123.579  22.042  1.00  0.00     0.045 A 
HETATM   12  C14 LIG X 999      45.579 125.483  23.147  1.00  0.00    -0.004 A 
HETATM   13  C11 LIG X 999      47.930 124.133  22.445  1.00  0.00     0.003 A 
HETATM   14  C12 LIG X 999      47.991 125.283  23.166  1.00  0.00    -0.021 A 
HETATM   15  C18 LIG X 999      49.301 123.628  22.181  1.00  0.00     0.278 C 
HETATM   16  C13 LIG X 999      46.846 125.975  23.536  1.00  0.00     0.023 A 
HETATM   17  C15 LIG X 999      49.391 125.653  23.462  1.00  0.00     0.276 C 
HETATM   18  N3  LIG X 999      50.236 124.668  22.717  1.00  0.00    -0.067 N 
HETATM   19  C16 LIG X 999      51.238 124.054  23.617  1.00  0.00     0.272 C 
HETATM   20  C17 LIG X 999      50.941 125.344  21.601  1.00  0.00     0.272 C 
BRANCH   7  21
HETATM   21  N1  LIG X 999      41.903 126.290  23.465  1.00  0.00    -0.398 N 
HETATM   22  H6  LIG X 999      41.878 127.325  23.605  1.00  0.00     0.156 HD
HETATM   23  H7  LIG X 999      41.002 125.777  23.573  1.00  0.00     0.156 HD
ENDBRANCH   7  21
BRANCH  11  24
HETATM   24  N2  LIG X 999      46.706 122.375  21.256  1.00  0.00    -0.398 N 
HETATM   25  H10 LIG X 999      47.341 121.574  21.453  1.00  0.00     0.156 HD
HETATM   26  H11 LIG X 999      45.980 122.218  20.523  1.00  0.00     0.156 HD
ENDBRANCH  11  24
ENDBRANCH   5   6
ENDBRANCH   4   5
ENDBRANCH   3   4
TORSDOF 5
ENDMDL
MODEL 8
REMARK VINA RESULT:      -4.0      1.781      7.024
REMARK  5 active torsions:
REMARK  status: ('A' for Active; 'I' for Inactive)
REMARK    1  A    between atoms: C3_3  and  C4_4 
REMARK    2  A    between atoms: C4_4  and  S1_5 
REMARK    3  A    between atoms: S1_5  and  C5_6 
REMARK    4  A    between atoms: C6_7  and  N1_8 
REMARK    5  A    between atoms: C10_12  and  N2_13 
ROOT
HETATM    1  C1  LIG X 999      48.466 130.133  12.864  1.00  0.00     0.112 C 
HETATM    2  C2  LIG X 999      47.444 129.864  13.876  1.00  0.00    -0.110 C 
HETATM    3  C3  LIG X 999      46.616 129.651  14.724  1.00  0.00    -0.097 C 
ENDROOT
BRANCH   3   4
HETATM    4  C4  LIG X 999      45.626 129.400  15.776  1.00  0.00     0.173 C 
BRANCH   4   5
HETATM    5  S1  LIG X 999      46.124 130.218  17.331  1.00  0.00    -0.115 SA
BRANCH   5   6
HETATM    6  C5  LIG X 999      44.561 131.113  17.551  1.00  0.00     0.038 A 
HETATM    7  C6  LIG X 999      43.821 131.511  16.416  1.00  0.00     0.043 A 
HETATM    8  C7  LIG X 999      42.600 132.169  16.582  1.00  0.00     0.031 A 
HETATM    9  C8  LIG X 999      42.088 132.426  17.849  1.00  0.00     0.017 A 
HETATM   10  C9  LIG X 999      42.792 132.040  19.004  1.00  0.00     0.002 A 
HETATM   11  C10 LIG X 999      42.275 132.282  20.313  1.00  0.00     0.045 A 
HETATM   12  C14 LIG X 999      44.069 131.409  18.851  1.00  0.00    -0.004 A 
HETATM   13  C11 LIG X 999      43.067 131.924  21.414  1.00  0.00     0.003 A 
HETATM   14  C12 LIG X 999      44.291 131.356  21.260  1.00  0.00    -0.021 A 
HETATM   15  C18 LIG X 999      42.754 132.070  22.858  1.00  0.00     0.278 C 
HETATM   16  C13 LIG X 999      44.822 131.092  20.005  1.00  0.00     0.023 A 
HETATM   17  C15 LIG X 999      44.917 131.076  22.570  1.00  0.00     0.276 C 
HETATM   18  N3  LIG X 999      43.878 131.408  23.594  1.00  0.00    -0.067 N 
HETATM   19  C16 LIG X 999      44.431 132.316  24.624  1.00  0.00     0.272 C 
HETATM   20  C17 LIG X 999      43.398 130.169  24.251  1.00  0.00     0.272 C 
BRANCH   7  21
HETATM   21  N1  LIG X 999      44.291 131.261  15.083  1.00  0.00    -0.398 N 
HETATM   22  H6  LIG X 999      43.702 130.727  14.406  1.00  0.00     0.156 HD
HETATM   23  H7  LIG X 999      45.216 131.598  14.741  1.00  0.00     0.156 HD
ENDBRANCH   7  21
BRANCH  11  24
HETATM   24  N2  LIG X 999      40.976 132.854  20.537  1.00  0.00    -0.398 N 
HETATM   25  H10 LIG X 999      40.799 133.879  20.505  1.00  0.00     0.156 HD
HETATM   26  H11 LIG X 999      40.134 132.244  20.629  1.00  0.00     0.156 HD
ENDBRANCH  11  24
ENDBRANCH   5   6
ENDBRANCH   4   5
ENDBRANCH   3   4
TORSDOF 5
ENDMDL
MODEL 9
REMARK VINA RESULT:      -4.0      4.188      7.324
REMARK  5 active torsions:
REMARK  status: ('A' for Active; 'I' for Inactive)
REMARK    1  A    between atoms: C3_3  and  C4_4 
REMARK    2  A    between atoms: C4_4  and  S1_5 
REMARK    3  A    between atoms: S1_5  and  C5_6 
REMARK    4  A    between atoms: C6_7  and  N1_8 
REMARK    5  A    between atoms: C10_12  and  N2_13 
ROOT
HETATM    1  C1  LIG X 999      51.768 125.504  21.843  1.00  0.00     0.112 C 
HETATM    2  C2  LIG X 999      50.411 125.519  22.389  1.00  0.00    -0.110 C 
HETATM    3  C3  LIG X 999      49.294 125.552  22.839  1.00  0.00    -0.097 C 
ENDROOT
BRANCH   3   4
HETATM    4  C4  LIG X 999      47.937 125.620  23.390  1.00  0.00     0.173 C 
BRANCH   4   5
HETATM    5  S1  LIG X 999      46.708 125.164  22.119  1.00  0.00    -0.115 SA
BRANCH   5   6
HETATM    6  C5  LIG X 999      45.303 125.934  22.970  1.00  0.00     0.038 A 
HETATM    7  C6  LIG X 999      44.589 125.200  23.942  1.00  0.00     0.043 A 
HETATM    8  C7  LIG X 999      43.529 125.801  24.624  1.00  0.00     0.031 A 
HETATM    9  C8  LIG X 999      43.171 127.122  24.376  1.00  0.00     0.017 A 
HETATM   10  C9  LIG X 999      43.861 127.890  23.420  1.00  0.00     0.002 A 
HETATM   11  C10 LIG X 999      43.518 129.251  23.162  1.00  0.00     0.045 A 
HETATM   12  C14 LIG X 999      44.918 127.271  22.676  1.00  0.00    -0.004 A 
HETATM   13  C11 LIG X 999      44.211 129.928  22.149  1.00  0.00     0.003 A 
HETATM   14  C12 LIG X 999      45.190 129.325  21.426  1.00  0.00    -0.021 A 
HETATM   15  C18 LIG X 999      44.042 131.333  21.699  1.00  0.00     0.278 C 
HETATM   16  C13 LIG X 999      45.563 128.007  21.656  1.00  0.00     0.023 A 
HETATM   17  C15 LIG X 999      45.761 130.251  20.425  1.00  0.00     0.276 C 
HETATM   18  N3  LIG X 999      45.121 131.577  20.689  1.00  0.00    -0.067 N 
HETATM   19  C16 LIG X 999      44.551 132.139  19.444  1.00  0.00     0.272 C 
HETATM   20  C17 LIG X 999      46.123 132.526  21.232  1.00  0.00     0.272 C 
BRANCH   7  21
HETATM   21  N1  LIG X 999      44.920 123.838  24.252  1.00  0.00    -0.398 N 
HETATM   22  H6  LIG X 999      44.192 123.187  24.620  1.00  0.00     0.156 HD
HETATM   23  H7  LIG X 999      45.879 123.449  24.121  1.00  0.00     0.156 HD
ENDBRANCH   7  21
BRANCH  11  24
HETATM   24  N2  LIG X 999      42.511 129.950  23.913  1.00  0.00    -0.398 N 
HETATM   25  H10 LIG X 999      42.518 130.983  24.039  1.00  0.00     0.156 HD
HETATM   26  H11 LIG X 999      41.666 129.449  24.267  1.00  0.00     0.156 HD
ENDBRANCH  11  24
ENDBRANCH   5   6
ENDBRANCH   4   5
ENDBRANCH   3   4
TORSDOF 5
ENDMDL
