MODEL 1
REMARK VINA RESULT:      -8.4      0.000      0.000
REMARK  7 active torsions:
REMARK  status: ('A' for Active; 'I' for Inactive)
REMARK    1  A    between atoms: C6_6  and  O1_7 
REMARK    2  A    between atoms: O1_7  and  C7_8 
REMARK    3  A    between atoms: C7_8  and  O3_10 
REMARK    4  A    between atoms: O3_10  and  C8_11 
REMARK    5  A    between atoms: C8_11  and  N1_12 
REMARK       I    between atoms: N1_12  and  C9_14 
REMARK    6  A    between atoms: C9_14  and  C10_16 
REMARK    7  A    between atoms: C10_16  and  N2_17 
ROOT
HETATM    1  N2  LIG X 999      43.871 128.431  23.069  1.00  0.00    -0.261 NA
HETATM    2  C11 LIG X 999      44.658 127.658  23.705  1.00  0.00     0.158 C 
HETATM    3  S1  LIG X 999      45.656 126.684  24.511  1.00  0.00    -0.055 SA
ENDROOT
BRANCH   1   4
HETATM    4  C10 LIG X 999      43.172 129.532  23.726  1.00  0.00     0.197 C 
HETATM    5  C12 LIG X 999      41.692 129.182  23.868  1.00  0.00     0.044 C 
BRANCH   4   6
HETATM    6  C9  LIG X 999      43.336 130.803  22.933  1.00  0.00     0.243 C 
HETATM    7  N1  LIG X 999      42.796 130.902  21.608  1.00  0.00    -0.338 N 
HETATM    8  H7  LIG X 999      42.397 130.052  21.151  1.00  0.00     0.164 HD
HETATM    9  O4  LIG X 999      43.926 131.790  23.451  1.00  0.00    -0.271 OA
BRANCH   7  10
HETATM   10  C8  LIG X 999      42.699 132.180  20.907  1.00  0.00     0.306 C 
BRANCH  10  11
HETATM   11  O3  LIG X 999      43.402 132.115  19.668  1.00  0.00    -0.278 OA
BRANCH  11  12
HETATM   12  C7  LIG X 999      44.668 131.539  19.540  1.00  0.00     0.413 C 
HETATM   13  O2  LIG X 999      45.584 131.822  20.361  1.00  0.00    -0.229 OA
BRANCH  12  14
HETATM   14  O1  LIG X 999      44.879 130.594  18.529  1.00  0.00    -0.256 OA
BRANCH  14  15
HETATM   15  C6  LIG X 999      45.450 130.860  17.276  1.00  0.00     0.082 A 
HETATM   16  C5  LIG X 999      46.224 129.862  16.672  1.00  0.00     0.049 A 
HETATM   17  C4  LIG X 999      46.819 130.080  15.421  1.00  0.00    -0.023 A 
HETATM   18  C3  LIG X 999      47.610 129.087  14.822  1.00  0.00     0.012 A 
HETATM   19  C15 LIG X 999      46.622 131.315  14.756  1.00  0.00    -0.026 A 
HETATM   20  C2  LIG X 999      48.199 129.317  13.575  1.00  0.00     0.001 A 
HETATM   21  C1  LIG X 999      48.005 130.535  12.919  1.00  0.00     0.001 A 
HETATM   22  C16 LIG X 999      47.218 131.532  13.505  1.00  0.00     0.012 A 
HETATM   23  C14 LIG X 999      45.828 132.303  15.352  1.00  0.00     0.015 A 
HETATM   24  C13 LIG X 999      45.242 132.076  16.601  1.00  0.00     0.038 A 
ENDBRANCH  14  15
ENDBRANCH  12  14
ENDBRANCH  11  12
ENDBRANCH  10  11
ENDBRANCH   7  10
ENDBRANCH   4   6
ENDBRANCH   1   4
TORSDOF 7
ENDMDL
MODEL 2
REMARK VINA RESULT:      -8.0      1.600      2.351
REMARK  7 active torsions:
REMARK  status: ('A' for Active; 'I' for Inactive)
REMARK    1  A    between atoms: C6_6  and  O1_7 
REMARK    2  A    between atoms: O1_7  and  C7_8 
REMARK    3  A    between atoms: C7_8  and  O3_10 
REMARK    4  A    between atoms: O3_10  and  C8_11 
REMARK    5  A    between atoms: C8_11  and  N1_12 
REMARK       I    between atoms: N1_12  and  C9_14 
REMARK    6  A    between atoms: C9_14  and  C10_16 
REMARK    7  A    between atoms: C10_16  and  N2_17 
ROOT
HETATM    1  N2  LIG X 999      42.020 129.607  23.543  1.00  0.00    -0.261 NA
HETATM    2  C11 LIG X 999      42.014 128.370  23.845  1.00  0.00     0.158 C 
HETATM    3  S1  LIG X 999      42.009 126.804  24.225  1.00  0.00    -0.055 SA
ENDROOT
BRANCH   1   4
HETATM    4  C10 LIG X 999      43.240 130.409  23.598  1.00  0.00     0.197 C 
HETATM    5  C12 LIG X 999      42.873 131.885  23.736  1.00  0.00     0.044 C 
BRANCH   4   6
HETATM    6  C9  LIG X 999      44.067 130.189  22.357  1.00  0.00     0.243 C 
HETATM    7  N1  LIG X 999      43.873 131.019  21.204  1.00  0.00    -0.338 N 
HETATM    8  H7  LIG X 999      43.076 131.695  21.185  1.00  0.00     0.164 HD
HETATM    9  O4  LIG X 999      44.949 129.287  22.347  1.00  0.00    -0.271 OA
BRANCH   7  10
HETATM   10  C8  LIG X 999      44.813 131.019  20.086  1.00  0.00     0.306 C 
BRANCH  10  11
HETATM   11  O3  LIG X 999      44.430 131.998  19.123  1.00  0.00    -0.278 OA
BRANCH  11  12
HETATM   12  C7  LIG X 999      43.300 131.869  18.312  1.00  0.00     0.413 C 
HETATM   13  O2  LIG X 999      42.145 131.902  18.818  1.00  0.00    -0.229 OA
BRANCH  12  14
HETATM   14  O1  LIG X 999      43.474 131.773  16.926  1.00  0.00    -0.256 OA
BRANCH  14  15
HETATM   15  C6  LIG X 999      44.502 131.067  16.284  1.00  0.00     0.082 A 
HETATM   16  C5  LIG X 999      45.233 131.718  15.284  1.00  0.00     0.049 A 
HETATM   17  C4  LIG X 999      46.269 131.055  14.610  1.00  0.00    -0.023 A 
HETATM   18  C3  LIG X 999      46.991 131.701  13.594  1.00  0.00     0.012 A 
HETATM   19  C15 LIG X 999      46.589 129.720  14.958  1.00  0.00    -0.026 A 
HETATM   20  C2  LIG X 999      48.021 131.028  12.930  1.00  0.00     0.001 A 
HETATM   21  C1  LIG X 999      48.337 129.711  13.272  1.00  0.00     0.001 A 
HETATM   22  C16 LIG X 999      47.626 129.057  14.284  1.00  0.00     0.012 A 
HETATM   23  C14 LIG X 999      45.872 129.078  15.976  1.00  0.00     0.015 A 
HETATM   24  C13 LIG X 999      44.839 129.748  16.638  1.00  0.00     0.038 A 
ENDBRANCH  14  15
ENDBRANCH  12  14
ENDBRANCH  11  12
ENDBRANCH  10  11
ENDBRANCH   7  10
ENDBRANCH   4   6
ENDBRANCH   1   4
TORSDOF 7
ENDMDL
MODEL 3
REMARK VINA RESULT:      -7.8      1.360      2.192
REMARK  7 active torsions:
REMARK  status: ('A' for Active; 'I' for Inactive)
REMARK    1  A    between atoms: C6_6  and  O1_7 
REMARK    2  A    between atoms: O1_7  and  C7_8 
REMARK    3  A    between atoms: C7_8  and  O3_10 
REMARK    4  A    between atoms: O3_10  and  C8_11 
REMARK    5  A    between atoms: C8_11  and  N1_12 
REMARK       I    between atoms: N1_12  and  C9_14 
REMARK    6  A    between atoms: C9_14  and  C10_16 
REMARK    7  A    between atoms: C10_16  and  N2_17 
ROOT
HETATM    1  N2  LIG X 999      44.761 127.492  24.214  1.00  0.00    -0.261 NA
HETATM    2  C11 LIG X 999      45.805 126.786  24.396  1.00  0.00     0.158 C 
HETATM    3  S1  LIG X 999      47.126 125.891  24.624  1.00  0.00    -0.055 SA
ENDROOT
BRANCH   1   4
HETATM    4  C10 LIG X 999      44.402 128.014  22.898  1.00  0.00     0.197 C 
HETATM    5  C12 LIG X 999      45.290 127.368  21.835  1.00  0.00     0.044 C 
BRANCH   4   6
HETATM    6  C9  LIG X 999      44.558 129.513  22.870  1.00  0.00     0.243 C 
HETATM    7  N1  LIG X 999      45.024 130.168  21.683  1.00  0.00    -0.338 N 
HETATM    8  H7  LIG X 999      45.369 129.595  20.881  1.00  0.00     0.164 HD
HETATM    9  O4  LIG X 999      44.250 130.191  23.889  1.00  0.00    -0.271 OA
BRANCH   7  10
HETATM   10  C8  LIG X 999      44.944 131.617  21.519  1.00  0.00     0.306 C 
BRANCH  10  11
HETATM   11  O3  LIG X 999      45.051 131.962  20.140  1.00  0.00    -0.278 OA
BRANCH  11  12
HETATM   12  C7  LIG X 999      43.987 131.851  19.242  1.00  0.00     0.413 C 
HETATM   13  O2  LIG X 999      42.824 131.594  19.660  1.00  0.00    -0.229 OA
BRANCH  12  14
HETATM   14  O1  LIG X 999      44.223 132.098  17.884  1.00  0.00    -0.256 OA
BRANCH  14  15
HETATM   15  C6  LIG X 999      45.082 131.354  17.062  1.00  0.00     0.082 A 
HETATM   16  C5  LIG X 999      45.557 131.947  15.886  1.00  0.00     0.049 A 
HETATM   17  C4  LIG X 999      46.415 131.244  15.029  1.00  0.00    -0.023 A 
HETATM   18  C3  LIG X 999      46.879 131.831  13.841  1.00  0.00     0.012 A 
HETATM   19  C15 LIG X 999      46.818 129.929  15.364  1.00  0.00    -0.026 A 
HETATM   20  C2  LIG X 999      47.734 131.119  12.994  1.00  0.00     0.001 A 
HETATM   21  C1  LIG X 999      48.131 129.821  13.325  1.00  0.00     0.001 A 
HETATM   22  C16 LIG X 999      47.678 129.226  14.506  1.00  0.00     0.012 A 
HETATM   23  C14 LIG X 999      46.360 129.346  16.553  1.00  0.00     0.015 A 
HETATM   24  C13 LIG X 999      45.502 130.055  17.399  1.00  0.00     0.038 A 
ENDBRANCH  14  15
ENDBRANCH  12  14
ENDBRANCH  11  12
ENDBRANCH  10  11
ENDBRANCH   7  10
ENDBRANCH   4   6
ENDBRANCH   1   4
TORSDOF 7
ENDMDL
MODEL 4
REMARK VINA RESULT:      -7.2      2.111      2.774
REMARK  7 active torsions:
REMARK  status: ('A' for Active; 'I' for Inactive)
REMARK    1  A    between atoms: C6_6  and  O1_7 
REMARK    2  A    between atoms: O1_7  and  C7_8 
REMARK    3  A    between atoms: C7_8  and  O3_10 
REMARK    4  A    between atoms: O3_10  and  C8_11 
REMARK    5  A    between atoms: C8_11  and  N1_12 
REMARK       I    between atoms: N1_12  and  C9_14 
REMARK    6  A    between atoms: C9_14  and  C10_16 
REMARK    7  A    between atoms: C10_16  and  N2_17 
ROOT
HETATM    1  N2  LIG X 999      42.122 132.320  23.136  1.00  0.00    -0.261 NA
HETATM    2  C11 LIG X 999      42.201 132.400  21.867  1.00  0.00     0.158 C 
HETATM    3  S1  LIG X 999      42.306 132.500  20.263  1.00  0.00    -0.055 SA
ENDROOT
BRANCH   1   4
HETATM    4  C10 LIG X 999      42.962 131.407  23.907  1.00  0.00     0.197 C 
HETATM    5  C12 LIG X 999      44.156 132.171  24.475  1.00  0.00     0.044 C 
BRANCH   4   6
HETATM    6  C9  LIG X 999      43.433 130.270  23.036  1.00  0.00     0.243 C 
HETATM    7  N1  LIG X 999      44.708 130.342  22.384  1.00  0.00    -0.338 N 
HETATM    8  H7  LIG X 999      45.253 131.232  22.416  1.00  0.00     0.164 HD
HETATM    9  O4  LIG X 999      42.712 129.244  22.906  1.00  0.00    -0.271 OA
BRANCH   7  10
HETATM   10  C8  LIG X 999      45.318 129.175  21.751  1.00  0.00     0.306 C 
BRANCH  10  11
HETATM   11  O3  LIG X 999      45.803 129.517  20.454  1.00  0.00    -0.278 OA
BRANCH  11  12
HETATM   12  C7  LIG X 999      45.560 130.754  19.852  1.00  0.00     0.413 C 
HETATM   13  O2  LIG X 999      46.020 131.813  20.362  1.00  0.00    -0.229 OA
BRANCH  12  14
HETATM   14  O1  LIG X 999      44.860 130.787  18.640  1.00  0.00    -0.256 OA
BRANCH  14  15
HETATM   15  C6  LIG X 999      45.433 130.999  17.378  1.00  0.00     0.082 A 
HETATM   16  C5  LIG X 999      46.150 129.952  16.788  1.00  0.00     0.049 A 
HETATM   17  C4  LIG X 999      46.745 130.115  15.529  1.00  0.00    -0.023 A 
HETATM   18  C3  LIG X 999      47.480 129.070  14.944  1.00  0.00     0.012 A 
HETATM   19  C15 LIG X 999      46.605 131.344  14.841  1.00  0.00    -0.026 A 
HETATM   20  C2  LIG X 999      48.069 129.246  13.688  1.00  0.00     0.001 A 
HETATM   21  C1  LIG X 999      47.931 130.459  13.009  1.00  0.00     0.001 A 
HETATM   22  C16 LIG X 999      47.201 131.506  13.581  1.00  0.00     0.012 A 
HETATM   23  C14 LIG X 999      45.867 132.383  15.423  1.00  0.00     0.015 A 
HETATM   24  C13 LIG X 999      45.281 132.211  16.680  1.00  0.00     0.038 A 
ENDBRANCH  14  15
ENDBRANCH  12  14
ENDBRANCH  11  12
ENDBRANCH  10  11
ENDBRANCH   7  10
ENDBRANCH   4   6
ENDBRANCH   1   4
TORSDOF 7
ENDMDL
MODEL 5
REMARK VINA RESULT:      -7.2      3.503      8.155
REMARK  7 active torsions:
REMARK  status: ('A' for Active; 'I' for Inactive)
REMARK    1  A    between atoms: C6_6  and  O1_7 
REMARK    2  A    between atoms: O1_7  and  C7_8 
REMARK    3  A    between atoms: C7_8  and  O3_10 
REMARK    4  A    between atoms: O3_10  and  C8_11 
REMARK    5  A    between atoms: C8_11  and  N1_12 
REMARK       I    between atoms: N1_12  and  C9_14 
REMARK    6  A    between atoms: C9_14  and  C10_16 
REMARK    7  A    between atoms: C10_16  and  N2_17 
ROOT
HETATM    1  N2  LIG X 999      46.202 131.749  15.399  1.00  0.00    -0.261 NA
HETATM    2  C11 LIG X 999      46.836 131.420  14.344  1.00  0.00     0.158 C 
HETATM    3  S1  LIG X 999      47.640 131.001  13.012  1.00  0.00    -0.055 SA
ENDROOT
BRANCH   1   4
HETATM    4  C10 LIG X 999      45.744 130.755  16.366  1.00  0.00     0.197 C 
HETATM    5  C12 LIG X 999      45.385 129.462  15.636  1.00  0.00     0.044 C 
BRANCH   4   6
HETATM    6  C9  LIG X 999      44.551 131.276  17.126  1.00  0.00     0.243 C 
HETATM    7  N1  LIG X 999      44.575 131.329  18.559  1.00  0.00    -0.338 N 
HETATM    8  H7  LIG X 999      45.372 130.894  19.076  1.00  0.00     0.164 HD
HETATM    9  O4  LIG X 999      43.541 131.691  16.494  1.00  0.00    -0.271 OA
BRANCH   7  10
HETATM   10  C8  LIG X 999      43.566 132.058  19.322  1.00  0.00     0.306 C 
BRANCH  10  11
HETATM   11  O3  LIG X 999      43.411 131.476  20.614  1.00  0.00    -0.278 OA
BRANCH  11  12
HETATM   12  C7  LIG X 999      44.472 131.318  21.510  1.00  0.00     0.413 C 
HETATM   13  O2  LIG X 999      45.626 131.734  21.212  1.00  0.00    -0.229 OA
BRANCH  12  14
HETATM   14  O1  LIG X 999      44.214 130.755  22.765  1.00  0.00    -0.256 OA
BRANCH  14  15
HETATM   15  C6  LIG X 999      43.928 129.402  23.004  1.00  0.00     0.082 A 
HETATM   16  C5  LIG X 999      44.876 128.445  22.626  1.00  0.00     0.049 A 
HETATM   17  C4  LIG X 999      44.636 127.080  22.840  1.00  0.00    -0.023 A 
HETATM   18  C3  LIG X 999      45.579 126.117  22.445  1.00  0.00     0.012 A 
HETATM   19  C15 LIG X 999      43.432 126.669  23.460  1.00  0.00    -0.026 A 
HETATM   20  C2  LIG X 999      45.327 124.759  22.663  1.00  0.00     0.001 A 
HETATM   21  C1  LIG X 999      44.138 124.353  23.275  1.00  0.00     0.001 A 
HETATM   22  C16 LIG X 999      43.192 125.303  23.674  1.00  0.00     0.012 A 
HETATM   23  C14 LIG X 999      42.495 127.630  23.859  1.00  0.00     0.015 A 
HETATM   24  C13 LIG X 999      42.742 128.988  23.638  1.00  0.00     0.038 A 
ENDBRANCH  14  15
ENDBRANCH  12  14
ENDBRANCH  11  12
ENDBRANCH  10  11
ENDBRANCH   7  10
ENDBRANCH   4   6
ENDBRANCH   1   4
TORSDOF 7
ENDMDL
MODEL 6
REMARK VINA RESULT:      -7.1      4.537      5.199
REMARK  7 active torsions:
REMARK  status: ('A' for Active; 'I' for Inactive)
REMARK    1  A    between atoms: C6_6  and  O1_7 
REMARK    2  A    between atoms: O1_7  and  C7_8 
REMARK    3  A    between atoms: C7_8  and  O3_10 
REMARK    4  A    between atoms: O3_10  and  C8_11 
REMARK    5  A    between atoms: C8_11  and  N1_12 
REMARK       I    between atoms: N1_12  and  C9_14 
REMARK    6  A    between atoms: C9_14  and  C10_16 
REMARK    7  A    between atoms: C10_16  and  N2_17 
ROOT
HETATM    1  N2  LIG X 999      50.356 135.508  22.528  1.00  0.00    -0.261 NA
HETATM    2  C11 LIG X 999      51.336 135.906  23.238  1.00  0.00     0.158 C 
HETATM    3  S1  LIG X 999      52.572 136.410  24.140  1.00  0.00    -0.055 SA
ENDROOT
BRANCH   1   4
HETATM    4  C10 LIG X 999      49.291 134.675  23.080  1.00  0.00     0.197 C 
HETATM    5  C12 LIG X 999      49.855 133.306  23.452  1.00  0.00     0.044 C 
BRANCH   4   6
HETATM    6  C9  LIG X 999      48.173 134.527  22.079  1.00  0.00     0.243 C 
HETATM    7  N1  LIG X 999      47.521 133.261  21.908  1.00  0.00    -0.338 N 
HETATM    8  H7  LIG X 999      47.904 132.416  22.390  1.00  0.00     0.164 HD
HETATM    9  O4  LIG X 999      47.794 135.529  21.412  1.00  0.00    -0.271 OA
BRANCH   7  10
HETATM   10  C8  LIG X 999      46.278 133.128  21.154  1.00  0.00     0.306 C 
BRANCH  10  11
HETATM   11  O3  LIG X 999      46.180 131.821  20.593  1.00  0.00    -0.278 OA
BRANCH  11  12
HETATM   12  C7  LIG X 999      45.064 131.380  19.879  1.00  0.00     0.413 C 
HETATM   13  O2  LIG X 999      43.923 131.864  20.116  1.00  0.00    -0.229 OA
BRANCH  12  14
HETATM   14  O1  LIG X 999      45.247 130.445  18.852  1.00  0.00    -0.256 OA
BRANCH  14  15
HETATM   15  C6  LIG X 999      45.619 130.750  17.535  1.00  0.00     0.082 A 
HETATM   16  C5  LIG X 999      46.444 129.850  16.851  1.00  0.00     0.049 A 
HETATM   17  C4  LIG X 999      46.846 130.111  15.533  1.00  0.00    -0.023 A 
HETATM   18  C3  LIG X 999      47.688 129.217  14.851  1.00  0.00     0.012 A 
HETATM   19  C15 LIG X 999      46.400 131.287  14.883  1.00  0.00    -0.026 A 
HETATM   20  C2  LIG X 999      48.082 129.489  13.537  1.00  0.00     0.001 A 
HETATM   21  C1  LIG X 999      47.642 130.650  12.897  1.00  0.00     0.001 A 
HETATM   22  C16 LIG X 999      46.803 131.547  13.564  1.00  0.00     0.012 A 
HETATM   23  C14 LIG X 999      45.555 132.175  15.562  1.00  0.00     0.015 A 
HETATM   24  C13 LIG X 999      45.163 131.907  16.877  1.00  0.00     0.038 A 
ENDBRANCH  14  15
ENDBRANCH  12  14
ENDBRANCH  11  12
ENDBRANCH  10  11
ENDBRANCH   7  10
ENDBRANCH   4   6
ENDBRANCH   1   4
TORSDOF 7
ENDMDL
MODEL 7
REMARK VINA RESULT:      -6.6      5.014      6.062
REMARK  7 active torsions:
REMARK  status: ('A' for Active; 'I' for Inactive)
REMARK    1  A    between atoms: C6_6  and  O1_7 
REMARK    2  A    between atoms: O1_7  and  C7_8 
REMARK    3  A    between atoms: C7_8  and  O3_10 
REMARK    4  A    between atoms: O3_10  and  C8_11 
REMARK    5  A    between atoms: C8_11  and  N1_12 
REMARK       I    between atoms: N1_12  and  C9_14 
REMARK    6  A    between atoms: C9_14  and  C10_16 
REMARK    7  A    between atoms: C10_16  and  N2_17 
ROOT
HETATM    1  N2  LIG X 999      49.295 136.461  20.602  1.00  0.00    -0.261 NA
HETATM    2  C11 LIG X 999      49.116 137.658  20.206  1.00  0.00     0.158 C 
HETATM    3  S1  LIG X 999      48.887 139.173  19.707  1.00  0.00    -0.055 SA
ENDROOT
BRANCH   1   4
HETATM    4  C10 LIG X 999      49.498 136.137  22.012  1.00  0.00     0.197 C 
HETATM    5  C12 LIG X 999      50.990 136.183  22.334  1.00  0.00     0.044 C 
BRANCH   4   6
HETATM    6  C9  LIG X 999      48.936 134.773  22.321  1.00  0.00     0.243 C 
HETATM    7  N1  LIG X 999      47.774 134.297  21.629  1.00  0.00    -0.338 N 
HETATM    8  H7  LIG X 999      47.249 134.945  21.000  1.00  0.00     0.164 HD
HETATM    9  O4  LIG X 999      49.510 134.040  23.173  1.00  0.00    -0.271 OA
BRANCH   7  10
HETATM   10  C8  LIG X 999      47.351 132.902  21.700  1.00  0.00     0.306 C 
BRANCH  10  11
HETATM   11  O3  LIG X 999      46.165 132.708  20.932  1.00  0.00    -0.278 OA
BRANCH  11  12
HETATM   12  C7  LIG X 999      45.329 131.600  21.088  1.00  0.00     0.413 C 
HETATM   13  O2  LIG X 999      44.542 131.528  22.072  1.00  0.00    -0.229 OA
BRANCH  12  14
HETATM   14  O1  LIG X 999      45.332 130.610  20.098  1.00  0.00    -0.256 OA
BRANCH  14  15
HETATM   15  C6  LIG X 999      45.179 130.838  18.722  1.00  0.00     0.082 A 
HETATM   16  C5  LIG X 999      46.119 130.284  17.847  1.00  0.00     0.049 A 
HETATM   17  C4  LIG X 999      46.012 130.485  16.463  1.00  0.00    -0.023 A 
HETATM   18  C3  LIG X 999      46.965 129.944  15.585  1.00  0.00     0.012 A 
HETATM   19  C15 LIG X 999      44.933 131.243  15.947  1.00  0.00    -0.026 A 
HETATM   20  C2  LIG X 999      46.847 130.154  14.207  1.00  0.00     0.001 A 
HETATM   21  C1  LIG X 999      45.783 130.901  13.698  1.00  0.00     0.001 A 
HETATM   22  C16 LIG X 999      44.827 131.444  14.562  1.00  0.00     0.012 A 
HETATM   23  C14 LIG X 999      43.980 131.778  16.823  1.00  0.00     0.015 A 
HETATM   24  C13 LIG X 999      44.098 131.573  18.201  1.00  0.00     0.038 A 
ENDBRANCH  14  15
ENDBRANCH  12  14
ENDBRANCH  11  12
ENDBRANCH  10  11
ENDBRANCH   7  10
ENDBRANCH   4   6
ENDBRANCH   1   4
TORSDOF 7
ENDMDL
MODEL 8
REMARK VINA RESULT:      -6.6      1.681      2.174
REMARK  7 active torsions:
REMARK  status: ('A' for Active; 'I' for Inactive)
REMARK    1  A    between atoms: C6_6  and  O1_7 
REMARK    2  A    between atoms: O1_7  and  C7_8 
REMARK    3  A    between atoms: C7_8  and  O3_10 
REMARK    4  A    between atoms: O3_10  and  C8_11 
REMARK    5  A    between atoms: C8_11  and  N1_12 
REMARK       I    between atoms: N1_12  and  C9_14 
REMARK    6  A    between atoms: C9_14  and  C10_16 
REMARK    7  A    between atoms: C10_16  and  N2_17 
ROOT
HETATM    1  N2  LIG X 999      44.876 126.105  24.371  1.00  0.00    -0.261 NA
HETATM    2  C11 LIG X 999      45.956 125.559  23.973  1.00  0.00     0.158 C 
HETATM    3  S1  LIG X 999      47.320 124.867  23.467  1.00  0.00    -0.055 SA
ENDROOT
BRANCH   1   4
HETATM    4  C10 LIG X 999      43.800 126.452  23.446  1.00  0.00     0.197 C 
HETATM    5  C12 LIG X 999      43.923 125.606  22.181  1.00  0.00     0.044 C 
BRANCH   4   6
HETATM    6  C9  LIG X 999      43.858 127.919  23.103  1.00  0.00     0.243 C 
HETATM    7  N1  LIG X 999      45.062 128.488  22.569  1.00  0.00    -0.338 N 
HETATM    8  H7  LIG X 999      45.931 127.910  22.532  1.00  0.00     0.164 HD
HETATM    9  O4  LIG X 999      42.835 128.638  23.264  1.00  0.00    -0.271 OA
BRANCH   7  10
HETATM   10  C8  LIG X 999      45.089 129.825  21.984  1.00  0.00     0.306 C 
BRANCH  10  11
HETATM   11  O3  LIG X 999      45.568 129.764  20.642  1.00  0.00    -0.278 OA
BRANCH  11  12
HETATM   12  C7  LIG X 999      45.328 130.768  19.701  1.00  0.00     0.413 C 
HETATM   13  O2  LIG X 999      45.616 131.969  19.962  1.00  0.00    -0.229 OA
BRANCH  12  14
HETATM   14  O1  LIG X 999      44.830 130.407  18.443  1.00  0.00    -0.256 OA
BRANCH  14  15
HETATM   15  C6  LIG X 999      45.416 130.741  17.213  1.00  0.00     0.082 A 
HETATM   16  C5  LIG X 999      46.209 129.782  16.572  1.00  0.00     0.049 A 
HETATM   17  C4  LIG X 999      46.818 130.068  15.342  1.00  0.00    -0.023 A 
HETATM   18  C3  LIG X 999      47.628 129.113  14.705  1.00  0.00     0.012 A 
HETATM   19  C15 LIG X 999      46.616 131.331  14.735  1.00  0.00    -0.026 A 
HETATM   20  C2  LIG X 999      48.231 129.411  13.479  1.00  0.00     0.001 A 
HETATM   21  C1  LIG X 999      48.032 130.658  12.882  1.00  0.00     0.001 A 
HETATM   22  C16 LIG X 999      47.227 131.616  13.505  1.00  0.00     0.012 A 
HETATM   23  C14 LIG X 999      45.803 132.281  15.368  1.00  0.00     0.015 A 
HETATM   24  C13 LIG X 999      45.203 131.987  16.596  1.00  0.00     0.038 A 
ENDBRANCH  14  15
ENDBRANCH  12  14
ENDBRANCH  11  12
ENDBRANCH  10  11
ENDBRANCH   7  10
ENDBRANCH   4   6
ENDBRANCH   1   4
TORSDOF 7
ENDMDL
MODEL 9
REMARK VINA RESULT:      -6.5      2.625      3.795
REMARK  7 active torsions:
REMARK  status: ('A' for Active; 'I' for Inactive)
REMARK    1  A    between atoms: C6_6  and  O1_7 
REMARK    2  A    between atoms: O1_7  and  C7_8 
REMARK    3  A    between atoms: C7_8  and  O3_10 
REMARK    4  A    between atoms: O3_10  and  C8_11 
REMARK    5  A    between atoms: C8_11  and  N1_12 
REMARK       I    between atoms: N1_12  and  C9_14 
REMARK    6  A    between atoms: C9_14  and  C10_16 
REMARK    7  A    between atoms: C10_16  and  N2_17 
ROOT
HETATM    1  N2  LIG X 999      46.301 124.419  22.389  1.00  0.00    -0.261 NA
HETATM    2  C11 LIG X 999      47.147 123.586  22.850  1.00  0.00     0.158 C 
HETATM    3  S1  LIG X 999      48.218 122.535  23.436  1.00  0.00    -0.055 SA
ENDROOT
BRANCH   1   4
HETATM    4  C10 LIG X 999      45.158 124.873  23.176  1.00  0.00     0.197 C 
HETATM    5  C12 LIG X 999      43.863 124.478  22.469  1.00  0.00     0.044 C 
BRANCH   4   6
HETATM    6  C9  LIG X 999      45.215 126.368  23.367  1.00  0.00     0.243 C 
HETATM    7  N1  LIG X 999      44.185 127.205  22.825  1.00  0.00    -0.338 N 
HETATM    8  H7  LIG X 999      43.462 126.788  22.196  1.00  0.00     0.164 HD
HETATM    9  O4  LIG X 999      46.160 126.876  24.030  1.00  0.00    -0.271 OA
BRANCH   7  10
HETATM   10  C8  LIG X 999      44.055 128.610  23.199  1.00  0.00     0.306 C 
BRANCH  10  11
HETATM   11  O3  LIG X 999      44.944 129.410  22.422  1.00  0.00    -0.278 OA
BRANCH  11  12
HETATM   12  C7  LIG X 999      44.529 130.536  21.708  1.00  0.00     0.413 C 
HETATM   13  O2  LIG X 999      43.468 131.140  22.030  1.00  0.00    -0.229 OA
BRANCH  12  14
HETATM   14  O1  LIG X 999      45.345 131.019  20.678  1.00  0.00    -0.256 OA
BRANCH  14  15
HETATM   15  C6  LIG X 999      44.958 131.165  19.338  1.00  0.00     0.082 A 
HETATM   16  C5  LIG X 999      45.829 130.708  18.341  1.00  0.00     0.049 A 
HETATM   17  C4  LIG X 999      45.490 130.833  16.986  1.00  0.00    -0.023 A 
HETATM   18  C3  LIG X 999      46.370 130.391  15.985  1.00  0.00     0.012 A 
HETATM   19  C15 LIG X 999      44.249 131.411  16.624  1.00  0.00    -0.026 A 
HETATM   20  C2  LIG X 999      46.021 130.522  14.637  1.00  0.00     0.001 A 
HETATM   21  C1  LIG X 999      44.796 131.093  14.280  1.00  0.00     0.001 A 
HETATM   22  C16 LIG X 999      43.911 131.535  15.268  1.00  0.00     0.012 A 
HETATM   23  C14 LIG X 999      43.370 131.846  17.624  1.00  0.00     0.015 A 
HETATM   24  C13 LIG X 999      43.719 131.719  18.971  1.00  0.00     0.038 A 
ENDBRANCH  14  15
ENDBRANCH  12  14
ENDBRANCH  11  12
ENDBRANCH  10  11
ENDBRANCH   7  10
ENDBRANCH   4   6
ENDBRANCH   1   4
TORSDOF 7
ENDMDL
