REMARK VINA RESULT:      -5.3      2.992      5.991
REMARK  6 active torsions:
REMARK  status: ('A' for Active; 'I' for Inactive)
REMARK    1  A    between atoms: N1_1  and  C1_2 
REMARK    2  A    between atoms: C1_2  and  C2_3 
REMARK    3  A    between atoms: C2_3  and  O1_4 
REMARK    4  A    between atoms: C2_3  and  C3_5 
REMARK    5  A    between atoms: C3_5  and  O2_6 
REMARK    6  A    between atoms: O2_6  and  C4_7 
ROOT
HETATM    1  C4  LIG X 999      44.062 131.477  17.843  1.00  0.00     0.080 A 
HETATM    2  C5  LIG X 999      44.810 131.029  18.950  1.00  0.00     0.037 A 
HETATM    3  C6  LIG X 999      46.018 130.355  18.764  1.00  0.00     0.004 A 
HETATM    4  C7  LIG X 999      46.503 130.115  17.479  1.00  0.00     0.012 A 
HETATM    5  C8  LIG X 999      45.777 130.551  16.361  1.00  0.00    -0.023 A 
HETATM    6  C9  LIG X 999      46.262 130.310  15.065  1.00  0.00     0.012 A 
HETATM    7  C10 LIG X 999      45.539 130.746  13.954  1.00  0.00     0.001 A 
HETATM    8  C11 LIG X 999      44.329 131.421  14.123  1.00  0.00     0.001 A 
HETATM    9  C12 LIG X 999      43.833 131.668  15.406  1.00  0.00     0.015 A 
HETATM   10  C13 LIG X 999      44.549 131.237  16.540  1.00  0.00     0.007 A 
ENDROOT
BRANCH   1  11
HETATM   11  O2  LIG X 999      42.844 132.158  18.004  1.00  0.00    -0.348 OA
BRANCH  11  12
HETATM   12  C3  LIG X 999      41.779 131.730  18.852  1.00  0.00     0.209 C 
BRANCH  12  13
HETATM   13  C2  LIG X 999      41.774 132.574  20.130  1.00  0.00     0.170 C 
BRANCH  13  14
HETATM   14  C1  LIG X 999      42.756 132.013  21.174  1.00  0.00     0.300 C 
BRANCH  14  15
HETATM   15  N1  LIG X 999      42.150 131.993  22.502  1.00  0.00     0.080 N 
HETATM   16  H1  LIG X 999      41.661 131.076  22.616  1.00  0.00     0.312 HD
HETATM   17  H2  LIG X 999      42.919 132.010  23.213  1.00  0.00     0.312 HD
ENDBRANCH  14  15
ENDBRANCH  13  14
BRANCH  13  18
HETATM   18  O1  LIG X 999      42.136 133.891  19.808  1.00  0.00    -0.392 OA
HETATM   19  H6  LIG X 999      43.128 133.915  19.764  1.00  0.00     0.210 HD
ENDBRANCH  13  18
ENDBRANCH  12  13
ENDBRANCH  11  12
ENDBRANCH   1  11
TORSDOF 6
