REMARK VINA RESULT:      -5.6      3.235      6.838
REMARK  3 active torsions:
REMARK  status: ('A' for Active; 'I' for Inactive)
REMARK    1  A    between atoms: C3_3  and  S1_4 
REMARK    2  A    between atoms: S1_4  and  N1_7 
REMARK    3  A    between atoms: C10_16  and  N4_17 
ROOT
HETATM    1  N1  LIG X 999      46.062 129.998  14.078  1.00  0.00     0.026 NA
HETATM    2  N2  LIG X 999      47.243 129.799  13.796  1.00  0.00    -0.150 NA
HETATM    3  N3  LIG X 999      48.424 129.597  13.516  1.00  0.00     0.069 N 
ENDROOT
BRANCH   1   4
HETATM    4  S1  LIG X 999      45.612 131.396  14.986  1.00  0.00     0.311 S 
HETATM    5  O1  LIG X 999      44.259 131.865  14.531  1.00  0.00    -0.196 OA
HETATM    6  O2  LIG X 999      46.605 132.499  14.745  1.00  0.00    -0.196 OA
BRANCH   4   7
HETATM    7  C3  LIG X 999      45.555 130.996  16.700  1.00  0.00     0.084 A 
HETATM    8  C2  LIG X 999      46.191 129.847  17.180  1.00  0.00     0.026 A 
HETATM    9  C1  LIG X 999      46.156 129.542  18.542  1.00  0.00     0.009 A 
HETATM   10  C6  LIG X 999      45.475 130.374  19.444  1.00  0.00    -0.050 A 
HETATM   11  C5  LIG X 999      44.843 131.548  18.965  1.00  0.00    -0.023 A 
HETATM   12  C7  LIG X 999      45.555 130.059  20.919  1.00  0.00     0.039 C 
HETATM   13  C4  LIG X 999      44.890 131.845  17.593  1.00  0.00     0.035 A 
HETATM   14  C10 LIG X 999      44.047 132.453  19.888  1.00  0.00     0.179 C 
HETATM   15  C9  LIG X 999      44.482 132.294  21.352  1.00  0.00     0.035 C 
HETATM   16  C8  LIG X 999      44.515 130.817  21.750  1.00  0.00     0.007 C 
BRANCH  14  17
HETATM   17  N4  LIG X 999      42.620 132.158  19.775  1.00  0.00    -0.105 NA
HETATM   18  N5  LIG X 999      41.776 132.836  20.361  1.00  0.00    -0.167 NA
HETATM   19  N6  LIG X 999      40.932 133.515  20.945  1.00  0.00     0.068 N 
ENDBRANCH  14  17
ENDBRANCH   4   7
ENDBRANCH   1   4
TORSDOF 3
