MODEL 1
REMARK VINA RESULT:      -8.8      0.000      0.000
REMARK  2 active torsions:
REMARK  status: ('A' for Active; 'I' for Inactive)
REMARK    1  A    between atoms: C10_12  and  N3_13 
REMARK       I    between atoms: N3_13  and  C11_14 
REMARK    2  A    between atoms: C11_14  and  C12_16 
ROOT
HETATM    1  C1  LIG X 999      42.879 130.876  24.625  1.00  0.00     0.272 C 
HETATM    2  N1  LIG X 999      43.600 131.676  23.609  1.00  0.00    -0.067 N 
HETATM    3  C2  LIG X 999      44.173 132.878  24.260  1.00  0.00     0.272 C 
HETATM    4  C3  LIG X 999      42.675 132.083  22.503  1.00  0.00     0.276 C 
HETATM    5  C4  LIG X 999      43.365 131.711  21.249  1.00  0.00    -0.024 A 
HETATM    6  C5  LIG X 999      42.956 131.968  19.939  1.00  0.00     0.021 A 
HETATM    7  C6  LIG X 999      43.758 131.501  18.879  1.00  0.00    -0.024 A 
HETATM    8  C7  LIG X 999      43.395 131.749  17.549  1.00  0.00     0.037 A 
HETATM    9  C8  LIG X 999      44.195 131.281  16.498  1.00  0.00     0.074 A 
HETATM   10  C9  LIG X 999      43.796 131.555  15.139  1.00  0.00     0.102 C 
HETATM   11  N2  LIG X 999      43.476 131.776  14.050  1.00  0.00    -0.191 NA
HETATM   12  C10 LIG X 999      45.362 130.541  16.767  1.00  0.00     0.082 A 
HETATM   13  C13 LIG X 999      45.743 130.312  18.101  1.00  0.00     0.045 A 
HETATM   14  C14 LIG X 999      44.951 130.778  19.159  1.00  0.00    -0.023 A 
HETATM   15  C15 LIG X 999      45.326 130.537  20.496  1.00  0.00     0.021 A 
HETATM   16  C16 LIG X 999      44.507 131.022  21.517  1.00  0.00    -0.024 A 
HETATM   17  C17 LIG X 999      44.691 130.867  22.976  1.00  0.00     0.276 C 
ENDROOT
BRANCH  12  18
HETATM   18  N3  LIG X 999      46.174 130.087  15.671  1.00  0.00    -0.210 NA
HETATM   19  C11 LIG X 999      46.765 130.905  14.653  1.00  0.00     0.276 C 
HETATM   20  O1  LIG X 999      46.858 132.153  14.804  1.00  0.00    -0.268 OA
BRANCH  19  21
HETATM   21  C12 LIG X 999      47.354 130.257  13.441  1.00  0.00     0.272 C 
HETATM   22 CL1  LIG X 999      47.986 131.493  12.325  1.00  0.00    -0.098 Cl
HETATM   23 CL2  LIG X 999      48.673 129.162  13.922  1.00  0.00    -0.098 Cl
ENDBRANCH  19  21
ENDBRANCH  12  18
TORSDOF 2
ENDMDL
MODEL 2
REMARK VINA RESULT:      -6.0      4.406      7.844
REMARK  2 active torsions:
REMARK  status: ('A' for Active; 'I' for Inactive)
REMARK    1  A    between atoms: C10_12  and  N3_13 
REMARK       I    between atoms: N3_13  and  C11_14 
REMARK    2  A    between atoms: C11_14  and  C12_16 
ROOT
HETATM    1  C1  LIG X 999      47.256 131.759  14.030  1.00  0.00     0.272 C 
HETATM    2  N1  LIG X 999      46.124 131.148  14.764  1.00  0.00    -0.067 N 
HETATM    3  C2  LIG X 999      45.189 130.541  13.787  1.00  0.00     0.272 C 
HETATM    4  C3  LIG X 999      45.410 132.177  15.586  1.00  0.00     0.276 C 
HETATM    5  C4  LIG X 999      45.299 131.598  16.942  1.00  0.00    -0.024 A 
HETATM    6  C5  LIG X 999      44.632 132.129  18.046  1.00  0.00     0.021 A 
HETATM    7  C6  LIG X 999      44.671 131.418  19.262  1.00  0.00    -0.024 A 
HETATM    8  C7  LIG X 999      44.003 131.905  20.394  1.00  0.00     0.037 A 
HETATM    9  C8  LIG X 999      44.046 131.196  21.601  1.00  0.00     0.074 A 
HETATM   10  C9  LIG X 999      43.345 131.722  22.747  1.00  0.00     0.102 C 
HETATM   11  N2  LIG X 999      42.783 132.144  23.666  1.00  0.00    -0.191 NA
HETATM   12  C10 LIG X 999      44.776 129.996  21.696  1.00  0.00     0.082 A 
HETATM   13  C13 LIG X 999      45.427 129.491  20.556  1.00  0.00     0.045 A 
HETATM   14  C14 LIG X 999      45.388 130.192  19.344  1.00  0.00    -0.023 A 
HETATM   15  C15 LIG X 999      46.050 129.693  18.205  1.00  0.00     0.021 A 
HETATM   16  C16 LIG X 999      45.982 130.423  17.017  1.00  0.00    -0.024 A 
HETATM   17  C17 LIG X 999      46.615 130.105  15.720  1.00  0.00     0.276 C 
ENDROOT
BRANCH  12  18
HETATM   18  N3  LIG X 999      44.791 129.279  22.943  1.00  0.00    -0.210 NA
HETATM   19  C11 LIG X 999      44.916 127.861  23.107  1.00  0.00     0.276 C 
HETATM   20  O1  LIG X 999      45.321 127.137  22.159  1.00  0.00    -0.268 OA
BRANCH  19  21
HETATM   21  C12 LIG X 999      44.647 127.251  24.446  1.00  0.00     0.272 C 
HETATM   22 CL1  LIG X 999      42.911 126.896  24.625  1.00  0.00    -0.098 Cl
HETATM   23 CL2  LIG X 999      45.582 125.747  24.623  1.00  0.00    -0.098 Cl
ENDBRANCH  19  21
ENDBRANCH  12  18
TORSDOF 2
ENDMDL
MODEL 3
REMARK VINA RESULT:      -5.8      8.561      9.357
REMARK  2 active torsions:
REMARK  status: ('A' for Active; 'I' for Inactive)
REMARK    1  A    between atoms: C10_12  and  N3_13 
REMARK       I    between atoms: N3_13  and  C11_14 
REMARK    2  A    between atoms: C11_14  and  C12_16 
ROOT
HETATM    1  C1  LIG X 999      40.874 123.868  22.354  1.00  0.00     0.272 C 
HETATM    2  N1  LIG X 999      42.100 123.443  23.066  1.00  0.00    -0.067 N 
HETATM    3  C2  LIG X 999      41.713 122.733  24.309  1.00  0.00     0.272 C 
HETATM    4  C3  LIG X 999      42.957 124.626  23.398  1.00  0.00     0.276 C 
HETATM    5  C4  LIG X 999      44.315 124.280  22.925  1.00  0.00    -0.024 A 
HETATM    6  C5  LIG X 999      45.489 125.017  23.085  1.00  0.00     0.021 A 
HETATM    7  C6  LIG X 999      46.682 124.511  22.531  1.00  0.00    -0.024 A 
HETATM    8  C7  LIG X 999      47.888 125.209  22.680  1.00  0.00     0.037 A 
HETATM    9  C8  LIG X 999      49.071 124.703  22.125  1.00  0.00     0.074 A 
HETATM   10  C9  LIG X 999      50.298 125.443  22.299  1.00  0.00     0.102 C 
HETATM   11  N2  LIG X 999      51.281 126.036  22.439  1.00  0.00    -0.191 NA
HETATM   12  C10 LIG X 999      49.058 123.499  21.396  1.00  0.00     0.082 A 
HETATM   13  C13 LIG X 999      47.854 122.783  21.266  1.00  0.00     0.045 A 
HETATM   14  C14 LIG X 999      46.666 123.280  21.819  1.00  0.00    -0.023 A 
HETATM   15  C15 LIG X 999      45.457 122.569  21.677  1.00  0.00     0.021 A 
HETATM   16  C16 LIG X 999      44.299 123.101  22.246  1.00  0.00    -0.024 A 
HETATM   17  C17 LIG X 999      42.930 122.544  22.201  1.00  0.00     0.276 C 
ENDROOT
BRANCH  12  18
HETATM   18  N3  LIG X 999      50.289 122.994  20.852  1.00  0.00    -0.210 NA
HETATM   19  C11 LIG X 999      50.769 123.183  19.515  1.00  0.00     0.276 C 
HETATM   20  O1  LIG X 999      50.272 124.072  18.772  1.00  0.00    -0.268 OA
BRANCH  19  21
HETATM   21  C12 LIG X 999      51.930 122.375  19.031  1.00  0.00     0.272 C 
HETATM   22 CL1  LIG X 999      52.143 122.588  17.275  1.00  0.00    -0.098 Cl
HETATM   23 CL2  LIG X 999      53.414 122.884  19.874  1.00  0.00    -0.098 Cl
ENDBRANCH  19  21
ENDBRANCH  12  18
TORSDOF 2
ENDMDL
