REMARK VINA RESULT:      -6.0      5.140      7.533
REMARK  6 active torsions:
REMARK  status: ('A' for Active; 'I' for Inactive)
REMARK    1  A    between atoms: O1_2  and  C1_3 
REMARK    2  A    between atoms: C1_3  and  C2_4 
REMARK    3  A    between atoms: C1_3  and  C13_20 
REMARK    4  A    between atoms: C2_4  and  O3_6 
REMARK    5  A    between atoms: O3_6  and  C3_7 
REMARK    6  A    between atoms: C8_12  and  N1_13 
ROOT
HETATM    1  N1  LIG X 999      47.110 131.085  13.310  1.00  0.00    -0.073 NA
HETATM    2  N2  LIG X 999      47.937 130.170  13.303  1.00  0.00    -0.162 NA
HETATM    3  N3  LIG X 999      48.763 129.259  13.295  1.00  0.00     0.068 N 
ENDROOT
BRANCH   1   4
HETATM    4  C8  LIG X 999      46.104 131.200  14.325  1.00  0.00     0.094 A 
HETATM    5  C7  LIG X 999      46.414 131.088  15.694  1.00  0.00     0.046 A 
HETATM    6  C6  LIG X 999      45.404 131.206  16.661  1.00  0.00    -0.024 A 
HETATM    7  C5  LIG X 999      45.705 131.100  18.026  1.00  0.00     0.015 A 
HETATM    8  C11 LIG X 999      44.069 131.440  16.257  1.00  0.00    -0.023 A 
HETATM    9  C4  LIG X 999      44.692 131.219  18.983  1.00  0.00     0.038 A 
HETATM   10  C3  LIG X 999      43.360 131.434  18.587  1.00  0.00     0.080 A 
HETATM   11  C12 LIG X 999      43.060 131.560  17.225  1.00  0.00     0.049 A 
HETATM   12  C10 LIG X 999      43.767 131.554  14.893  1.00  0.00     0.014 A 
HETATM   13  C9  LIG X 999      44.780 131.434  13.936  1.00  0.00     0.035 A 
BRANCH  10  14
HETATM   14  O3  LIG X 999      42.316 131.569  19.513  1.00  0.00    -0.277 OA
BRANCH  14  15
HETATM   15  C2  LIG X 999      42.330 132.411  20.634  1.00  0.00     0.293 C 
HETATM   16  O2  LIG X 999      42.251 133.663  20.506  1.00  0.00    -0.262 OA
BRANCH  15  17
HETATM   17  C1  LIG X 999      42.532 131.816  21.998  1.00  0.00     0.217 C 
BRANCH  17  18
HETATM   18  O1  LIG X 999      42.408 130.421  21.921  1.00  0.00    -0.386 OA
HETATM   19  H1  LIG X 999      42.577 130.169  20.975  1.00  0.00     0.210 HD
ENDBRANCH  17  18
BRANCH  17  20
HETATM   20  C13 LIG X 999      43.924 132.162  22.549  1.00  0.00     0.037 C 
HETATM   21  C14 LIG X 999      45.020 131.259  21.980  1.00  0.00     0.008 C 
ENDBRANCH  17  20
ENDBRANCH  15  17
ENDBRANCH  14  15
ENDBRANCH  10  14
ENDBRANCH   1   4
TORSDOF 6
