REMARK VINA RESULT:      -7.8      1.921      3.394
REMARK  4 active torsions:
REMARK  status: ('A' for Active; 'I' for Inactive)
REMARK    1  A    between atoms: C3_3  and  O1_4 
REMARK    2  A    between atoms: O1_4  and  C4_5 
REMARK    3  A    between atoms: C4_5  and  O2_6 
REMARK    4  A    between atoms: C5_8  and  C6_9 
ROOT
HETATM    1  C1  LIG X 999      45.326 127.616  22.858  1.00  0.00     0.014 C 
HETATM    2  C2  LIG X 999      44.269 128.120  23.147  1.00  0.00    -0.091 C 
HETATM    3  C3  LIG X 999      42.989 128.737  23.497  1.00  0.00     0.266 C 
ENDROOT
BRANCH   3   4
HETATM    4  O1  LIG X 999      42.707 129.758  22.568  1.00  0.00    -0.319 OA
BRANCH   4   5
HETATM    5  C4  LIG X 999      43.014 131.004  23.151  1.00  0.00     0.314 A 
HETATM    6  O3  LIG X 999      42.395 132.041  22.428  1.00  0.00    -0.312 OA
HETATM    7  C5  LIG X 999      43.807 132.021  22.411  1.00  0.00     0.254 A 
BRANCH   5   8
HETATM    8  O2  LIG X 999      42.776 131.164  24.521  1.00  0.00    -0.341 OA
HETATM    9  H4  LIG X 999      43.030 132.102  24.723  1.00  0.00     0.215 HD
ENDBRANCH   5   8
BRANCH   7  10
HETATM   10  C6  LIG X 999      44.360 131.593  21.080  1.00  0.00    -0.021 A 
HETATM   11  C7  LIG X 999      45.555 130.859  20.995  1.00  0.00     0.011 A 
HETATM   12  C8  LIG X 999      46.054 130.462  19.752  1.00  0.00     0.013 A 
HETATM   13  C9  LIG X 999      45.359 130.782  18.577  1.00  0.00    -0.026 A 
HETATM   14  C10 LIG X 999      45.854 130.393  17.322  1.00  0.00     0.012 A 
HETATM   15  C14 LIG X 999      44.141 131.501  18.657  1.00  0.00    -0.025 A 
HETATM   16  C11 LIG X 999      45.148 130.713  16.159  1.00  0.00     0.001 A 
HETATM   17  C12 LIG X 999      43.946 131.422  16.239  1.00  0.00     0.001 A 
HETATM   18  C13 LIG X 999      43.442 131.815  17.483  1.00  0.00     0.012 A 
HETATM   19  C15 LIG X 999      43.646 131.891  19.911  1.00  0.00     0.022 A 
ENDBRANCH   7  10
ENDBRANCH   4   5
ENDBRANCH   3   4
TORSDOF 4
