MODEL 1
REMARK VINA RESULT:      -5.3      0.000      0.000
REMARK  5 active torsions:
REMARK  status: ('A' for Active; 'I' for Inactive)
REMARK    1  A    between atoms: O1_2  and  C1_3 
REMARK    2  A    between atoms: C1_3  and  C15_22 
REMARK    3  A    between atoms: N1_4  and  C2_5 
REMARK    4  A    between atoms: C3_6  and  O2_7 
REMARK    5  A    between atoms: O2_7  and  C4_8 
REMARK       I    between atoms: C4_8  and  N2_10 
ROOT
HETATM    1  C2  LIG X 999      44.136 127.724  23.108  1.00  0.00     0.104 A 
HETATM    2  C3  LIG X 999      43.195 127.309  24.066  1.00  0.00     0.110 A 
HETATM    3  C7  LIG X 999      42.309 128.246  24.625  1.00  0.00     0.041 A 
HETATM    4  C8  LIG X 999      42.329 129.576  24.209  1.00  0.00     0.015 A 
HETATM    5  C9  LIG X 999      43.228 129.995  23.221  1.00  0.00    -0.024 A 
HETATM    6  C10 LIG X 999      43.226 131.331  22.788  1.00  0.00     0.012 A 
HETATM    7  C11 LIG X 999      44.105 131.746  21.787  1.00  0.00     0.001 A 
HETATM    8  C12 LIG X 999      44.988 130.834  21.206  1.00  0.00     0.001 A 
HETATM    9  C13 LIG X 999      45.004 129.503  21.629  1.00  0.00     0.014 A 
HETATM   10  C14 LIG X 999      44.138 129.067  22.653  1.00  0.00     0.006 A 
ENDROOT
BRANCH   1  11
HETATM   11  N1  LIG X 999      45.052 126.751  22.587  1.00  0.00    -0.221 NA
HETATM   12  C1  LIG X 999      46.122 126.358  23.212  1.00  0.00     0.176 C 
BRANCH  12  13
HETATM   13  O1  LIG X 999      46.420 126.870  24.477  1.00  0.00    -0.344 OA
HETATM   14  H1  LIG X 999      45.810 127.521  24.954  1.00  0.00     0.219 HD
ENDBRANCH  12  13
BRANCH  12  15
HETATM   15  C15 LIG X 999      47.002 125.363  22.573  1.00  0.00     0.053 A 
HETATM   16  C16 LIG X 999      46.622 124.163  21.996  1.00  0.00     0.156 A 
HETATM   17  N3  LIG X 999      47.715 123.526  21.531  1.00  0.00    -0.185 NA
HETATM   18  N4  LIG X 999      48.763 124.294  21.785  1.00  0.00    -0.285 N 
HETATM   19  C17 LIG X 999      50.137 123.916  21.490  1.00  0.00     0.179 C 
HETATM   20  C18 LIG X 999      48.376 125.411  22.428  1.00  0.00     0.129 A 
ENDBRANCH  12  15
ENDBRANCH   1  11
BRANCH   2  21
HETATM   21  O2  LIG X 999      43.206 125.967  24.478  1.00  0.00    -0.254 OA
BRANCH  21  22
HETATM   22  C4  LIG X 999      42.447 124.937  23.904  1.00  0.00     0.461 C 
HETATM   23  O3  LIG X 999      41.210 124.842  24.145  1.00  0.00    -0.230 OA
HETATM   24  N2  LIG X 999      43.077 124.033  22.974  1.00  0.00     0.009 N 
HETATM   25  H2  LIG X 999      44.105 124.234  22.957  1.00  0.00     0.292 HD
HETATM   26  C5  LIG X 999      42.543 124.245  21.620  1.00  0.00     0.282 C 
HETATM   27  C6  LIG X 999      42.888 122.639  23.403  1.00  0.00     0.282 C 
ENDBRANCH  21  22
ENDBRANCH   2  21
TORSDOF 5
ENDMDL
MODEL 2
REMARK VINA RESULT:      -4.9      2.209      5.198
REMARK  5 active torsions:
REMARK  status: ('A' for Active; 'I' for Inactive)
REMARK    1  A    between atoms: O1_2  and  C1_3 
REMARK    2  A    between atoms: C1_3  and  C15_22 
REMARK    3  A    between atoms: N1_4  and  C2_5 
REMARK    4  A    between atoms: C3_6  and  O2_7 
REMARK    5  A    between atoms: O2_7  and  C4_8 
REMARK       I    between atoms: C4_8  and  N2_10 
ROOT
HETATM    1  C2  LIG X 999      42.005 125.324  23.343  1.00  0.00     0.104 A 
HETATM    2  C3  LIG X 999      42.057 126.713  23.548  1.00  0.00     0.110 A 
HETATM    3  C7  LIG X 999      40.934 127.385  24.061  1.00  0.00     0.041 A 
HETATM    4  C8  LIG X 999      39.782 126.679  24.404  1.00  0.00     0.015 A 
HETATM    5  C9  LIG X 999      39.732 125.288  24.252  1.00  0.00    -0.024 A 
HETATM    6  C10 LIG X 999      38.578 124.580  24.625  1.00  0.00     0.012 A 
HETATM    7  C11 LIG X 999      38.534 123.191  24.494  1.00  0.00     0.001 A 
HETATM    8  C12 LIG X 999      39.639 122.497  23.999  1.00  0.00     0.001 A 
HETATM    9  C13 LIG X 999      40.793 123.188  23.621  1.00  0.00     0.014 A 
HETATM   10  C14 LIG X 999      40.852 124.594  23.726  1.00  0.00     0.006 A 
ENDROOT
BRANCH   1  11
HETATM   11  N1  LIG X 999      43.155 124.675  22.781  1.00  0.00    -0.221 NA
HETATM   12  C1  LIG X 999      44.324 124.658  23.349  1.00  0.00     0.176 C 
BRANCH  12  13
HETATM   13  O1  LIG X 999      44.508 125.274  24.589  1.00  0.00    -0.344 OA
HETATM   14  H1  LIG X 999      45.265 125.921  24.763  1.00  0.00     0.219 HD
ENDBRANCH  12  13
BRANCH  12  15
HETATM   15  C15 LIG X 999      45.441 123.974  22.671  1.00  0.00     0.053 A 
HETATM   16  C16 LIG X 999      45.629 122.608  22.545  1.00  0.00     0.156 A 
HETATM   17  N3  LIG X 999      46.772 122.375  21.872  1.00  0.00    -0.185 NA
HETATM   18  N4  LIG X 999      47.298 123.549  21.560  1.00  0.00    -0.285 N 
HETATM   19  C17 LIG X 999      48.577 123.713  20.884  1.00  0.00     0.179 C 
HETATM   20  C18 LIG X 999      46.529 124.545  22.037  1.00  0.00     0.129 A 
ENDBRANCH  12  15
ENDBRANCH   1  11
BRANCH   2  21
HETATM   21  O2  LIG X 999      43.223 127.402  23.179  1.00  0.00    -0.254 OA
BRANCH  21  22
HETATM   22  C4  LIG X 999      43.601 128.666  23.653  1.00  0.00     0.461 C 
HETATM   23  O3  LIG X 999      44.401 128.774  24.625  1.00  0.00    -0.230 OA
HETATM   24  N2  LIG X 999      43.129 129.844  22.968  1.00  0.00     0.009 N 
HETATM   25  H2  LIG X 999      42.436 129.552  22.238  1.00  0.00     0.292 HD
HETATM   26  C5  LIG X 999      44.247 130.523  22.296  1.00  0.00     0.282 C 
HETATM   27  C6  LIG X 999      42.451 130.750  23.908  1.00  0.00     0.282 C 
ENDBRANCH  21  22
ENDBRANCH   2  21
TORSDOF 5
ENDMDL
MODEL 3
REMARK VINA RESULT:      -4.7      1.869      6.386
REMARK  5 active torsions:
REMARK  status: ('A' for Active; 'I' for Inactive)
REMARK    1  A    between atoms: O1_2  and  C1_3 
REMARK    2  A    between atoms: C1_3  and  C15_22 
REMARK    3  A    between atoms: N1_4  and  C2_5 
REMARK    4  A    between atoms: C3_6  and  O2_7 
REMARK    5  A    between atoms: O2_7  and  C4_8 
REMARK       I    between atoms: C4_8  and  N2_10 
ROOT
HETATM    1  C2  LIG X 999      44.481 125.265  22.712  1.00  0.00     0.104 A 
HETATM    2  C3  LIG X 999      45.729 124.620  22.709  1.00  0.00     0.110 A 
HETATM    3  C7  LIG X 999      45.815 123.267  23.082  1.00  0.00     0.041 A 
HETATM    4  C8  LIG X 999      44.668 122.550  23.417  1.00  0.00     0.015 A 
HETATM    5  C9  LIG X 999      43.411 123.166  23.378  1.00  0.00    -0.024 A 
HETATM    6  C10 LIG X 999      42.257 122.431  23.692  1.00  0.00     0.012 A 
HETATM    7  C11 LIG X 999      41.001 123.038  23.632  1.00  0.00     0.001 A 
HETATM    8  C12 LIG X 999      40.885 124.376  23.254  1.00  0.00     0.001 A 
HETATM    9  C13 LIG X 999      42.025 125.121  22.942  1.00  0.00     0.014 A 
HETATM   10  C14 LIG X 999      43.305 124.534  23.015  1.00  0.00     0.006 A 
ENDROOT
BRANCH   1  11
HETATM   11  N1  LIG X 999      44.433 126.657  22.365  1.00  0.00    -0.221 NA
HETATM   12  C1  LIG X 999      44.770 127.616  23.176  1.00  0.00     0.176 C 
BRANCH  12  13
HETATM   13  O1  LIG X 999      45.232 127.316  24.459  1.00  0.00    -0.344 OA
HETATM   14  H1  LIG X 999      44.609 127.219  25.249  1.00  0.00     0.219 HD
ENDBRANCH  12  13
BRANCH  12  15
HETATM   15  C15 LIG X 999      44.665 129.013  22.717  1.00  0.00     0.053 A 
HETATM   16  C16 LIG X 999      44.092 130.073  23.400  1.00  0.00     0.156 A 
HETATM   17  N3  LIG X 999      44.178 131.187  22.647  1.00  0.00    -0.185 NA
HETATM   18  N4  LIG X 999      44.798 130.862  21.523  1.00  0.00    -0.285 N 
HETATM   19  C17 LIG X 999      45.023 131.788  20.423  1.00  0.00     0.179 C 
HETATM   20  C18 LIG X 999      45.099 129.551  21.521  1.00  0.00     0.129 A 
ENDBRANCH  12  15
ENDBRANCH   1  11
BRANCH   2  21
HETATM   21  O2  LIG X 999      46.870 125.369  22.382  1.00  0.00    -0.254 OA
BRANCH  21  22
HETATM   22  C4  LIG X 999      48.021 125.479  23.175  1.00  0.00     0.461 C 
HETATM   23  O3  LIG X 999      47.989 126.112  24.268  1.00  0.00    -0.230 OA
HETATM   24  N2  LIG X 999      49.224 124.796  22.767  1.00  0.00     0.009 N 
HETATM   25  H2  LIG X 999      49.070 124.386  21.816  1.00  0.00     0.292 HD
HETATM   26  C5  LIG X 999      49.525 123.698  23.699  1.00  0.00     0.282 C 
HETATM   27  C6  LIG X 999      50.350 125.739  22.684  1.00  0.00     0.282 C 
ENDBRANCH  21  22
ENDBRANCH   2  21
TORSDOF 5
ENDMDL
MODEL 4
REMARK VINA RESULT:      -4.6      2.146      4.995
REMARK  5 active torsions:
REMARK  status: ('A' for Active; 'I' for Inactive)
REMARK    1  A    between atoms: O1_2  and  C1_3 
REMARK    2  A    between atoms: C1_3  and  C15_22 
REMARK    3  A    between atoms: N1_4  and  C2_5 
REMARK    4  A    between atoms: C3_6  and  O2_7 
REMARK    5  A    between atoms: O2_7  and  C4_8 
REMARK       I    between atoms: C4_8  and  N2_10 
ROOT
HETATM    1  C2  LIG X 999      43.107 126.398  23.924  1.00  0.00     0.104 A 
HETATM    2  C3  LIG X 999      42.730 127.725  24.192  1.00  0.00     0.110 A 
HETATM    3  C7  LIG X 999      41.383 128.106  24.070  1.00  0.00     0.041 A 
HETATM    4  C8  LIG X 999      40.411 127.170  23.722  1.00  0.00     0.015 A 
HETATM    5  C9  LIG X 999      40.763 125.833  23.499  1.00  0.00    -0.024 A 
HETATM    6  C10 LIG X 999      39.775 124.890  23.174  1.00  0.00     0.012 A 
HETATM    7  C11 LIG X 999      40.121 123.552  22.973  1.00  0.00     0.001 A 
HETATM    8  C12 LIG X 999      41.450 123.144  23.100  1.00  0.00     0.001 A 
HETATM    9  C13 LIG X 999      42.444 124.072  23.419  1.00  0.00     0.014 A 
HETATM   10  C14 LIG X 999      42.120 125.432  23.607  1.00  0.00     0.006 A 
ENDROOT
BRANCH   1  11
HETATM   11  N1  LIG X 999      44.496 126.052  24.020  1.00  0.00    -0.221 NA
HETATM   12  C1  LIG X 999      45.377 126.341  23.109  1.00  0.00     0.176 C 
BRANCH  12  13
HETATM   13  O1  LIG X 999      44.996 127.050  21.967  1.00  0.00    -0.344 OA
HETATM   14  H1  LIG X 999      44.969 128.060  21.943  1.00  0.00     0.219 HD
ENDBRANCH  12  13
BRANCH  12  15
HETATM   15  C15 LIG X 999      46.777 125.920  23.305  1.00  0.00     0.053 A 
HETATM   16  C16 LIG X 999      47.452 125.808  24.509  1.00  0.00     0.156 A 
HETATM   17  N3  LIG X 999      48.718 125.409  24.274  1.00  0.00    -0.185 NA
HETATM   18  N4  LIG X 999      48.851 125.253  22.966  1.00  0.00    -0.285 N 
HETATM   19  C17 LIG X 999      50.102 124.891  22.315  1.00  0.00     0.179 C 
HETATM   20  C18 LIG X 999      47.701 125.566  22.341  1.00  0.00     0.129 A 
ENDBRANCH  12  15
ENDBRANCH   1  11
BRANCH   2  21
HETATM   21  O2  LIG X 999      43.731 128.651  24.526  1.00  0.00    -0.254 OA
BRANCH  21  22
HETATM   22  C4  LIG X 999      43.959 129.869  23.869  1.00  0.00     0.461 C 
HETATM   23  O3  LIG X 999      44.583 129.898  22.771  1.00  0.00    -0.230 OA
HETATM   24  N2  LIG X 999      43.407 131.081  24.422  1.00  0.00     0.009 N 
HETATM   25  H2  LIG X 999      42.985 130.862  25.356  1.00  0.00     0.292 HD
HETATM   26  C5  LIG X 999      42.345 131.600  23.547  1.00  0.00     0.282 C 
HETATM   27  C6  LIG X 999      44.464 132.085  24.621  1.00  0.00     0.282 C 
ENDBRANCH  21  22
ENDBRANCH   2  21
TORSDOF 5
ENDMDL
MODEL 5
REMARK VINA RESULT:      -3.2      3.387      5.251
REMARK  5 active torsions:
REMARK  status: ('A' for Active; 'I' for Inactive)
REMARK    1  A    between atoms: O1_2  and  C1_3 
REMARK    2  A    between atoms: C1_3  and  C15_22 
REMARK    3  A    between atoms: N1_4  and  C2_5 
REMARK    4  A    between atoms: C3_6  and  O2_7 
REMARK    5  A    between atoms: O2_7  and  C4_8 
REMARK       I    between atoms: C4_8  and  N2_10 
ROOT
HETATM    1  C2  LIG X 999      44.522 129.531  21.822  1.00  0.00     0.104 A 
HETATM    2  C3  LIG X 999      45.057 128.419  22.494  1.00  0.00     0.110 A 
HETATM    3  C7  LIG X 999      44.850 128.275  23.877  1.00  0.00     0.041 A 
HETATM    4  C8  LIG X 999      44.087 129.205  24.580  1.00  0.00     0.015 A 
HETATM    5  C9  LIG X 999      43.506 130.292  23.916  1.00  0.00    -0.024 A 
HETATM    6  C10 LIG X 999      42.717 131.211  24.625  1.00  0.00     0.012 A 
HETATM    7  C11 LIG X 999      42.119 132.283  23.960  1.00  0.00     0.001 A 
HETATM    8  C12 LIG X 999      42.298 132.444  22.585  1.00  0.00     0.001 A 
HETATM    9  C13 LIG X 999      43.084 131.540  21.867  1.00  0.00     0.014 A 
HETATM   10  C14 LIG X 999      43.713 130.461  22.522  1.00  0.00     0.006 A 
ENDROOT
BRANCH   1  11
HETATM   11  N1  LIG X 999      44.785 129.669  20.418  1.00  0.00    -0.221 NA
HETATM   12  C1  LIG X 999      45.518 130.615  19.910  1.00  0.00     0.176 C 
BRANCH  12  13
HETATM   13  O1  LIG X 999      46.122 131.557  20.746  1.00  0.00    -0.344 OA
HETATM   14  H1  LIG X 999      47.122 131.708  20.756  1.00  0.00     0.219 HD
ENDBRANCH  12  13
BRANCH  12  15
HETATM   15  C15 LIG X 999      45.707 130.670  18.448  1.00  0.00     0.053 A 
HETATM   16  C16 LIG X 999      45.371 131.714  17.603  1.00  0.00     0.156 A 
HETATM   17  N3  LIG X 999      45.686 131.381  16.336  1.00  0.00    -0.185 NA
HETATM   18  N4  LIG X 999      46.222 130.171  16.363  1.00  0.00    -0.285 N 
HETATM   19  C17 LIG X 999      46.632 129.438  15.174  1.00  0.00     0.179 C 
HETATM   20  C18 LIG X 999      46.241 129.699  17.623  1.00  0.00     0.129 A 
ENDBRANCH  12  15
ENDBRANCH   1  11
BRANCH   2  21
HETATM   21  O2  LIG X 999      45.835 127.506  21.766  1.00  0.00    -0.254 OA
BRANCH  21  22
HETATM   22  C4  LIG X 999      46.110 126.186  22.153  1.00  0.00     0.461 C 
HETATM   23  O3  LIG X 999      45.223 125.292  22.058  1.00  0.00    -0.230 OA
HETATM   24  N2  LIG X 999      47.442 125.844  22.588  1.00  0.00     0.009 N 
HETATM   25  H2  LIG X 999      48.007 126.723  22.658  1.00  0.00     0.292 HD
HETATM   26  C5  LIG X 999      48.085 124.959  21.604  1.00  0.00     0.282 C 
HETATM   27  C6  LIG X 999      47.404 125.215  23.917  1.00  0.00     0.282 C 
ENDBRANCH  21  22
ENDBRANCH   2  21
TORSDOF 5
ENDMDL
MODEL 6
REMARK VINA RESULT:      -3.1      4.075      6.566
REMARK  5 active torsions:
REMARK  status: ('A' for Active; 'I' for Inactive)
REMARK    1  A    between atoms: O1_2  and  C1_3 
REMARK    2  A    between atoms: C1_3  and  C15_22 
REMARK    3  A    between atoms: N1_4  and  C2_5 
REMARK    4  A    between atoms: C3_6  and  O2_7 
REMARK    5  A    between atoms: O2_7  and  C4_8 
REMARK       I    between atoms: C4_8  and  N2_10 
ROOT
HETATM    1  C2  LIG X 999      44.734 129.536  21.847  1.00  0.00     0.104 A 
HETATM    2  C3  LIG X 999      44.272 130.591  22.654  1.00  0.00     0.110 A 
HETATM    3  C7  LIG X 999      44.130 130.399  24.039  1.00  0.00     0.041 A 
HETATM    4  C8  LIG X 999      44.480 129.184  24.625  1.00  0.00     0.015 A 
HETATM    5  C9  LIG X 999      44.987 128.139  23.842  1.00  0.00    -0.024 A 
HETATM    6  C10 LIG X 999      45.362 126.927  24.443  1.00  0.00     0.012 A 
HETATM    7  C11 LIG X 999      45.888 125.893  23.667  1.00  0.00     0.001 A 
HETATM    8  C12 LIG X 999      46.051 126.060  22.291  1.00  0.00     0.001 A 
HETATM    9  C13 LIG X 999      45.680 127.260  21.679  1.00  0.00     0.014 A 
HETATM   10  C14 LIG X 999      45.127 128.310  22.441  1.00  0.00     0.006 A 
ENDROOT
BRANCH   1  11
HETATM   11  N1  LIG X 999      44.829 129.753  20.432  1.00  0.00    -0.221 NA
HETATM   12  C1  LIG X 999      45.650 130.600  19.885  1.00  0.00     0.176 C 
BRANCH  12  13
HETATM   13  O1  LIG X 999      46.523 131.343  20.683  1.00  0.00    -0.344 OA
HETATM   14  H1  LIG X 999      47.200 131.984  20.291  1.00  0.00     0.219 HD
ENDBRANCH  12  13
BRANCH  12  15
HETATM   15  C15 LIG X 999      45.651 130.753  18.418  1.00  0.00     0.053 A 
HETATM   16  C16 LIG X 999      45.118 131.803  17.690  1.00  0.00     0.156 A 
HETATM   17  N3  LIG X 999      45.303 131.574  16.376  1.00  0.00    -0.185 NA
HETATM   18  N4  LIG X 999      45.947 130.423  16.258  1.00  0.00    -0.285 N 
HETATM   19  C17 LIG X 999      46.273 129.802  14.983  1.00  0.00     0.179 C 
HETATM   20  C18 LIG X 999      46.166 129.887  17.473  1.00  0.00     0.129 A 
ENDBRANCH  12  15
ENDBRANCH   1  11
BRANCH   2  21
HETATM   21  O2  LIG X 999      43.913 131.799  22.036  1.00  0.00    -0.254 OA
BRANCH  21  22
HETATM   22  C4  LIG X 999      42.679 132.060  21.423  1.00  0.00     0.461 C 
HETATM   23  O3  LIG X 999      41.628 132.162  22.116  1.00  0.00    -0.230 OA
HETATM   24  N2  LIG X 999      42.635 132.288  20.000  1.00  0.00     0.009 N 
HETATM   25  H2  LIG X 999      43.585 132.099  19.601  1.00  0.00     0.292 HD
HETATM   26  C5  LIG X 999      42.289 133.691  19.722  1.00  0.00     0.282 C 
HETATM   27  C6  LIG X 999      41.678 131.373  19.360  1.00  0.00     0.282 C 
ENDBRANCH  21  22
ENDBRANCH   2  21
TORSDOF 5
ENDMDL
