REMARK VINA RESULT:      -3.4      3.033      7.310
REMARK  6 active torsions:
REMARK  status: ('A' for Active; 'I' for Inactive)
REMARK    1  A    between atoms: C8_8  and  O1_9 
REMARK    2  A    between atoms: O1_9  and  C9_10 
REMARK    3  A    between atoms: C9_10  and  C10_11 
REMARK    4  A    between atoms: C10_11  and  C11_12 
REMARK    5  A    between atoms: C11_12  and  N1_13 
REMARK    6  A    between atoms: C13_18  and  N4_19 
ROOT
HETATM    1  N1  LIG X 999      43.310 124.707  22.113  1.00  0.00    -0.116 NA
HETATM    2  N2  LIG X 999      42.309 124.932  22.793  1.00  0.00    -0.168 NA
HETATM    3  N3  LIG X 999      41.308 125.153  23.473  1.00  0.00     0.068 N 
ENDROOT
BRANCH   1   4
HETATM    4  C11 LIG X 999      44.604 125.289  22.457  1.00  0.00     0.191 C 
BRANCH   4   5
HETATM    5  C10 LIG X 999      44.502 126.802  22.707  1.00  0.00     0.051 C 
BRANCH   5   6
HETATM    6  C9  LIG X 999      45.585 127.598  21.973  1.00  0.00     0.170 C 
BRANCH   6   7
HETATM    7  O1  LIG X 999      44.990 128.666  21.269  1.00  0.00    -0.384 OA
BRANCH   7   8
HETATM    8  C8  LIG X 999      45.631 129.897  21.565  1.00  0.00     0.146 C 
HETATM    9  C7  LIG X 999      46.022 130.603  20.261  1.00  0.00     0.072 C 
HETATM   10  C5  LIG X 999      44.817 131.057  19.474  1.00  0.00    -0.047 A 
HETATM   11  C4  LIG X 999      43.572 131.313  20.103  1.00  0.00    -0.023 A 
HETATM   12  C6  LIG X 999      44.960 131.298  18.097  1.00  0.00     0.008 A 
HETATM   13  C3  LIG X 999      42.483 131.730  19.316  1.00  0.00     0.010 A 
HETATM   14  C13 LIG X 999      43.350 131.026  21.580  1.00  0.00     0.199 C 
HETATM   15  C2  LIG X 999      42.638 131.949  17.945  1.00  0.00     0.001 A 
HETATM   16  C1  LIG X 999      43.875 131.739  17.339  1.00  0.00     0.001 A 
HETATM   17  C12 LIG X 999      44.666 130.795  22.352  1.00  0.00     0.143 C 
HETATM   18 CL1  LIG X 999      44.322 130.063  23.947  1.00  0.00    -0.120 Cl
BRANCH  14  19
HETATM   19  N4  LIG X 999      42.630 132.139  22.197  1.00  0.00    -0.104 NA
HETATM   20  N5  LIG X 999      42.431 132.172  23.412  1.00  0.00    -0.167 NA
HETATM   21  N6  LIG X 999      42.232 132.206  24.625  1.00  0.00     0.068 N 
ENDBRANCH  14  19
ENDBRANCH   7   8
ENDBRANCH   6   7
ENDBRANCH   5   6
ENDBRANCH   4   5
ENDBRANCH   1   4
TORSDOF 6
