REMARK VINA RESULT:      -8.4      0.818      2.000
REMARK  2 active torsions:
REMARK  status: ('A' for Active; 'I' for Inactive)
REMARK    1  A    between atoms: C3_3  and  S1_4 
REMARK    2  A    between atoms: S1_4  and  C4_5 
ROOT
HETATM    1  C1  LIG X 999      47.623 130.948  12.825  1.00  0.00     0.013 C 
HETATM    2  C2  LIG X 999      47.049 131.217  13.850  1.00  0.00    -0.107 C 
HETATM    3  C3  LIG X 999      46.349 131.541  15.096  1.00  0.00     0.172 C 
ENDROOT
BRANCH   3   4
HETATM    4  S1  LIG X 999      44.544 131.430  14.856  1.00  0.00    -0.118 SA
BRANCH   4   5
HETATM    5  C4  LIG X 999      44.149 131.515  16.605  1.00  0.00     0.002 A 
HETATM    6  C5  LIG X 999      42.861 131.881  17.013  1.00  0.00     0.019 A 
HETATM    7  C6  LIG X 999      42.544 131.950  18.372  1.00  0.00     0.013 A 
HETATM    8  C7  LIG X 999      43.515 131.646  19.338  1.00  0.00    -0.026 A 
HETATM    9  C8  LIG X 999      43.210 131.714  20.706  1.00  0.00     0.012 A 
HETATM   10  C12 LIG X 999      44.818 131.268  18.928  1.00  0.00    -0.025 A 
HETATM   11  C9  LIG X 999      44.187 131.408  21.659  1.00  0.00     0.001 A 
HETATM   12  C10 LIG X 999      45.472 131.036  21.254  1.00  0.00     0.001 A 
HETATM   13  C11 LIG X 999      45.789 130.965  19.894  1.00  0.00     0.012 A 
HETATM   14  C13 LIG X 999      45.123 131.202  17.560  1.00  0.00     0.030 A 
ENDBRANCH   4   5
ENDBRANCH   3   4
TORSDOF 2
