REMARK VINA RESULT:      -2.7      4.527      7.156
REMARK  3 active torsions:
REMARK  status: ('A' for Active; 'I' for Inactive)
REMARK    1  A    between atoms: C3_3  and  S1_4 
REMARK    2  A    between atoms: S1_4  and  C4_7 
REMARK    3  A    between atoms: C13_17  and  N2_18 
ROOT
HETATM    1  C1  LIG X 999      46.874 130.688  14.497  1.00  0.00     0.013 C 
HETATM    2  C2  LIG X 999      46.372 130.304  15.524  1.00  0.00    -0.102 C 
HETATM    3  C3  LIG X 999      45.758 129.842  16.771  1.00  0.00     0.238 C 
ENDROOT
BRANCH   3   4
HETATM    4  S1  LIG X 999      44.986 131.208  17.616  1.00  0.00     0.185 S 
HETATM    5  O1  LIG X 999      45.533 132.500  17.078  1.00  0.00    -0.222 OA
HETATM    6  O2  LIG X 999      43.503 131.177  17.371  1.00  0.00    -0.222 OA
BRANCH   4   7
HETATM    7  C4  LIG X 999      45.324 131.102  19.344  1.00  0.00     0.062 C 
HETATM    8  C5  LIG X 999      44.726 130.062  20.077  1.00  0.00     0.025 C 
HETATM    9  C6  LIG X 999      45.280 129.534  21.249  1.00  0.00     0.024 C 
HETATM   10  C7  LIG X 999      44.503 129.212  22.375  1.00  0.00     0.044 C 
HETATM   11  C8  LIG X 999      45.000 128.202  23.271  1.00  0.00     0.099 C 
HETATM   12  C9  LIG X 999      43.306 129.877  22.722  1.00  0.00     0.022 C 
HETATM   13  N1  LIG X 999      45.400 127.389  23.993  1.00  0.00    -0.191 NA
HETATM   14  C10 LIG X 999      42.923 131.164  22.293  1.00  0.00     0.002 C 
HETATM   15  C11 LIG X 999      43.800 132.134  21.790  1.00  0.00     0.002 C 
HETATM   16  C12 LIG X 999      45.142 132.215  22.180  1.00  0.00     0.034 C 
HETATM   17  C13 LIG X 999      46.194 132.465  21.285  1.00  0.00     0.094 C 
HETATM   18  C14 LIG X 999      46.152 132.093  19.916  1.00  0.00     0.057 C 
BRANCH  17  19
HETATM   19  N2  LIG X 999      47.379 133.061  21.832  1.00  0.00    -0.073 NA
HETATM   20  N3  LIG X 999      47.625 134.264  21.727  1.00  0.00    -0.162 NA
HETATM   21  N4  LIG X 999      47.872 135.465  21.625  1.00  0.00     0.068 N 
ENDBRANCH  17  19
ENDBRANCH   4   7
ENDBRANCH   3   4
TORSDOF 3
