REMARK VINA RESULT:      -6.6      2.059      2.757
REMARK  5 active torsions:
REMARK  status: ('A' for Active; 'I' for Inactive)
REMARK    1  A    between atoms: C6_6  and  O1_7 
REMARK    2  A    between atoms: O1_7  and  C7_8 
REMARK    3  A    between atoms: C7_8  and  C8_9 
REMARK    4  A    between atoms: C8_9  and  C9_10 
REMARK    5  A    between atoms: C9_10  and  N1_11 
ROOT
HETATM    1  N1  LIG X 999      42.036 130.382  23.548  1.00  0.00    -0.116 NA
HETATM    2  N2  LIG X 999      42.430 129.251  23.836  1.00  0.00    -0.168 NA
HETATM    3  N3  LIG X 999      42.823 128.121  24.124  1.00  0.00     0.068 N 
ENDROOT
BRANCH   1   4
HETATM    4  C9  LIG X 999      42.983 131.471  23.367  1.00  0.00     0.191 C 
BRANCH   4   5
HETATM    5  C8  LIG X 999      44.097 131.031  22.416  1.00  0.00     0.051 C 
BRANCH   5   6
HETATM    6  C7  LIG X 999      43.835 131.522  20.994  1.00  0.00     0.177 C 
BRANCH   6   7
HETATM    7  O1  LIG X 999      44.844 131.012  20.125  1.00  0.00    -0.351 OA
BRANCH   7   8
HETATM    8  C6  LIG X 999      44.804 131.097  18.726  1.00  0.00     0.069 A 
HETATM    9  C5  LIG X 999      45.847 130.514  17.996  1.00  0.00     0.049 A 
HETATM   10  C4  LIG X 999      45.857 130.571  16.595  1.00  0.00    -0.023 A 
HETATM   11  C3  LIG X 999      46.903 129.987  15.861  1.00  0.00     0.012 A 
HETATM   12  C12 LIG X 999      44.803 131.225  15.912  1.00  0.00    -0.026 A 
HETATM   13  C2  LIG X 999      46.902 130.050  14.465  1.00  0.00     0.001 A 
HETATM   14  C1  LIG X 999      45.861 130.695  13.792  1.00  0.00     0.001 A 
HETATM   15  C13 LIG X 999      44.815 131.281  14.509  1.00  0.00     0.012 A 
HETATM   16  C11 LIG X 999      43.760 131.808  16.644  1.00  0.00     0.015 A 
HETATM   17  C10 LIG X 999      43.759 131.746  18.039  1.00  0.00     0.037 A 
ENDBRANCH   7   8
ENDBRANCH   6   7
ENDBRANCH   5   6
ENDBRANCH   4   5
ENDBRANCH   1   4
TORSDOF 5
