REMARK VINA RESULT:      -6.3      5.405      6.757
REMARK  3 active torsions:
REMARK  status: ('A' for Active; 'I' for Inactive)
REMARK    1  A    between atoms: C6_6  and  C7_7 
REMARK    2  A    between atoms: C7_7  and  N1_8 
REMARK    3  A    between atoms: C8_12  and  N4_13 
ROOT
HETATM    1  N1  LIG X 999      44.849 131.785  22.724  1.00  0.00    -0.065 NA
HETATM    2  N2  LIG X 999      44.212 132.238  23.675  1.00  0.00    -0.164 NA
HETATM    3  N3  LIG X 999      43.575 132.689  24.625  1.00  0.00     0.068 N 
ENDROOT
BRANCH   1   4
HETATM    4  C7  LIG X 999      44.267 130.769  21.855  1.00  0.00     0.267 A 
HETATM    5  O1  LIG X 999      43.076 130.240  22.391  1.00  0.00    -0.314 OA
HETATM    6  C8  LIG X 999      44.191 129.373  22.356  1.00  0.00     0.349 A 
BRANCH   4   7
HETATM    7  C6  LIG X 999      44.182 131.047  20.384  1.00  0.00     0.007 A 
HETATM    8  C5  LIG X 999      45.221 130.653  19.527  1.00  0.00     0.024 A 
HETATM    9  C4  LIG X 999      45.128 130.891  18.148  1.00  0.00    -0.025 A 
HETATM   10  C3  LIG X 999      46.164 130.506  17.283  1.00  0.00     0.012 A 
HETATM   11  C11 LIG X 999      43.976 131.524  17.621  1.00  0.00    -0.026 A 
HETATM   12  C2  LIG X 999      46.060 130.749  15.910  1.00  0.00     0.001 A 
HETATM   13  C1  LIG X 999      44.924 131.375  15.391  1.00  0.00     0.001 A 
HETATM   14  C12 LIG X 999      43.883 131.762  16.240  1.00  0.00     0.012 A 
HETATM   15  C10 LIG X 999      42.937 131.906  18.484  1.00  0.00     0.013 A 
HETATM   16  C9  LIG X 999      43.040 131.663  19.856  1.00  0.00     0.013 A 
ENDBRANCH   4   7
BRANCH   6  17
HETATM   17  N4  LIG X 999      44.695 129.142  23.702  1.00  0.00    -0.077 NA
HETATM   18  N5  LIG X 999      44.955 128.002  24.087  1.00  0.00    -0.165 NA
HETATM   19  N6  LIG X 999      45.214 126.863  24.471  1.00  0.00     0.068 N 
ENDBRANCH   6  17
ENDBRANCH   1   4
TORSDOF 3
