REMARK VINA RESULT:      -8.6      0.928      1.108
REMARK  1 active torsions:
REMARK  status: ('A' for Active; 'I' for Inactive)
REMARK    1  A    between atoms: C2_5  and  C3_6 
ROOT
HETATM    1  C3  LIG X 999      44.360 131.466  17.404  1.00  0.00     0.030 A 
HETATM    2  C4  LIG X 999      43.091 131.873  16.941  1.00  0.00     0.017 A 
HETATM    3  C5  LIG X 999      42.056 132.172  17.821  1.00  0.00     0.002 A 
HETATM    4  C6  LIG X 999      42.253 132.075  19.191  1.00  0.00     0.012 A 
HETATM    5  C7  LIG X 999      43.493 131.675  19.701  1.00  0.00    -0.025 A 
HETATM    6  C8  LIG X 999      43.659 131.589  21.093  1.00  0.00     0.012 A 
HETATM    7  C9  LIG X 999      44.879 131.196  21.633  1.00  0.00     0.001 A 
HETATM    8  C10 LIG X 999      45.944 130.886  20.793  1.00  0.00     0.001 A 
HETATM    9  C11 LIG X 999      45.799 130.967  19.406  1.00  0.00     0.013 A 
HETATM   10  C12 LIG X 999      44.572 131.363  18.819  1.00  0.00    -0.011 A 
ENDROOT
BRANCH   1  11
HETATM   11  C2  LIG X 999      45.376 131.178  16.343  1.00  0.00     0.203 A 
HETATM   12  O1  LIG X 999      45.802 129.960  16.064  1.00  0.00    -0.255 OA
HETATM   13  C1  LIG X 999      46.670 130.115  15.098  1.00  0.00     0.262 A 
HETATM   14  N1  LIG X 999      47.320 129.150  14.535  1.00  0.00    -0.260 NA
HETATM   15  N3  LIG X 999      46.801 131.404  14.762  1.00  0.00    -0.238 N 
HETATM   16  H1  LIG X 999      47.178 128.161  14.839  1.00  0.00     0.190 HD
HETATM   17  N2  LIG X 999      45.985 132.085  15.547  1.00  0.00    -0.145 NA
HETATM   18  H9  LIG X 999      47.419 131.818  14.029  1.00  0.00     0.193 HD
ENDBRANCH   1  11
TORSDOF 1
