REMARK VINA RESULT:      -5.4      2.602      7.396
REMARK  6 active torsions:
REMARK  status: ('A' for Active; 'I' for Inactive)
REMARK    1  A    between atoms: O1_2  and  C1_3 
REMARK    2  A    between atoms: C1_3  and  C4_10 
REMARK    3  A    between atoms: N1_4  and  C2_5 
REMARK    4  A    between atoms: C2_5  and  C3_6 
REMARK    5  A    between atoms: C3_6  and  N2_7 
REMARK    6  A    between atoms: C13_19  and  N5_20 
ROOT
HETATM    1  N2  LIG X 999      45.519 127.172  23.117  1.00  0.00    -0.114 NA
HETATM    2  N3  LIG X 999      45.154 126.039  22.804  1.00  0.00    -0.168 NA
HETATM    3  N4  LIG X 999      44.789 124.906  22.491  1.00  0.00     0.068 N 
ENDROOT
BRANCH   1   4
HETATM    4  C3  LIG X 999      45.089 127.768  24.372  1.00  0.00     0.211 C 
BRANCH   4   5
HETATM    5  C2  LIG X 999      44.034 128.834  24.102  1.00  0.00     0.176 C 
BRANCH   5   6
HETATM    6  N1  LIG X 999      44.161 129.310  22.728  1.00  0.00    -0.265 NA
HETATM    7  C1  LIG X 999      44.519 130.520  22.419  1.00  0.00     0.167 C 
BRANCH   7   8
HETATM    8  O1  LIG X 999      44.806 131.437  23.435  1.00  0.00    -0.344 OA
HETATM    9  H1  LIG X 999      45.683 131.938  23.485  1.00  0.00     0.219 HD
ENDBRANCH   7   8
BRANCH   7  10
HETATM   10  C4  LIG X 999      44.625 130.908  20.990  1.00  0.00     0.017 A 
HETATM   11  C5  LIG X 999      43.939 132.028  20.496  1.00  0.00     0.016 A 
HETATM   12  C6  LIG X 999      44.044 132.387  19.151  1.00  0.00     0.011 A 
HETATM   13  C7  LIG X 999      44.837 131.638  18.268  1.00  0.00    -0.024 A 
HETATM   14  C8  LIG X 999      45.509 130.489  18.748  1.00  0.00    -0.049 A 
HETATM   15  C13 LIG X 999      44.867 132.026  16.806  1.00  0.00     0.179 C 
HETATM   16  C9  LIG X 999      45.406 130.143  20.105  1.00  0.00     0.023 A 
HETATM   17  C10 LIG X 999      46.433 129.684  17.864  1.00  0.00     0.039 C 
HETATM   18  C11 LIG X 999      46.176 129.912  16.371  1.00  0.00     0.007 C 
HETATM   19  C12 LIG X 999      46.069 131.406  16.071  1.00  0.00     0.035 C 
BRANCH  15  20
HETATM   20  N5  LIG X 999      43.612 131.608  16.184  1.00  0.00    -0.105 NA
HETATM   21  N6  LIG X 999      43.499 131.537  14.959  1.00  0.00    -0.167 NA
HETATM   22  N7  LIG X 999      43.386 131.465  13.737  1.00  0.00     0.068 N 
ENDBRANCH  15  20
ENDBRANCH   7  10
ENDBRANCH   5   6
ENDBRANCH   4   5
ENDBRANCH   1   4
TORSDOF 6
