REMARK VINA RESULT:      -5.3      3.133      5.693
REMARK  2 active torsions:
REMARK  status: ('A' for Active; 'I' for Inactive)
REMARK    1  A    between atoms: N1_1  and  C1_2 
REMARK    2  A    between atoms: C2_5  and  C3_6 
ROOT
HETATM    1  C3  LIG X 999      44.355 131.222  17.907  1.00  0.00     0.030 A 
HETATM    2  C4  LIG X 999      45.290 130.619  18.767  1.00  0.00     0.017 A 
HETATM    3  C5  LIG X 999      46.441 130.015  18.264  1.00  0.00     0.002 A 
HETATM    4  C6  LIG X 999      46.682 129.995  16.893  1.00  0.00     0.012 A 
HETATM    5  C7  LIG X 999      45.759 130.561  16.004  1.00  0.00    -0.025 A 
HETATM    6  C8  LIG X 999      46.003 130.511  14.623  1.00  0.00     0.012 A 
HETATM    7  C9  LIG X 999      45.075 131.037  13.725  1.00  0.00     0.001 A 
HETATM    8  C10 LIG X 999      43.891 131.603  14.195  1.00  0.00     0.001 A 
HETATM    9  C11 LIG X 999      43.633 131.664  15.567  1.00  0.00     0.013 A 
HETATM   10  C12 LIG X 999      44.571 131.169  16.500  1.00  0.00    -0.011 A 
ENDROOT
BRANCH   1  11
HETATM   11  C2  LIG X 999      43.202 131.917  18.528  1.00  0.00     0.203 A 
HETATM   12  N3  LIG X 999      42.123 132.349  17.838  1.00  0.00    -0.145 NA
HETATM   13  N2  LIG X 999      41.312 132.878  18.736  1.00  0.00    -0.240 N 
HETATM   14  C1  LIG X 999      41.908 132.748  19.930  1.00  0.00     0.240 A 
HETATM   15  H3  LIG X 999      40.382 133.307  18.531  1.00  0.00     0.193 HD
HETATM   16  O1  LIG X 999      43.071 132.155  19.817  1.00  0.00    -0.257 OA
BRANCH  14  17
HETATM   17  N1  LIG X 999      41.350 133.197  21.162  1.00  0.00    -0.364 N 
HETATM   18  H1  LIG X 999      40.367 133.550  21.193  1.00  0.00     0.159 HD
HETATM   19  H2  LIG X 999      41.916 133.174  22.038  1.00  0.00     0.159 HD
ENDBRANCH  14  17
ENDBRANCH   1  11
TORSDOF 2
