REMARK VINA RESULT:      -7.3      1.472      2.545
REMARK  3 active torsions:
REMARK  status: ('A' for Active; 'I' for Inactive)
REMARK       I    between atoms: N1_2  and  C3_4 
REMARK    1  A    between atoms: C3_4  and  O2_6 
REMARK    2  A    between atoms: O2_6  and  C4_7 
REMARK    3  A    between atoms: C13_16  and  N2_17 
ROOT
HETATM    1  C4  LIG X 999      44.168 131.373  17.103  1.00  0.00     0.108 A 
HETATM    2  C5  LIG X 999      42.866 131.822  17.329  1.00  0.00     0.040 A 
HETATM    3  C6  LIG X 999      42.397 132.020  18.624  1.00  0.00     0.015 A 
HETATM    4  C7  LIG X 999      43.218 131.743  19.723  1.00  0.00    -0.024 A 
HETATM    5  C8  LIG X 999      42.731 131.939  21.024  1.00  0.00     0.012 A 
HETATM    6  C9  LIG X 999      43.526 131.637  22.128  1.00  0.00     0.001 A 
HETATM    7  C10 LIG X 999      44.811 131.126  21.944  1.00  0.00     0.001 A 
HETATM    8  C11 LIG X 999      45.314 130.927  20.656  1.00  0.00     0.014 A 
HETATM    9  C12 LIG X 999      44.536 131.247  19.521  1.00  0.00     0.003 A 
HETATM   10  C13 LIG X 999      45.013 131.059  18.195  1.00  0.00     0.071 A 
ENDROOT
BRANCH   1  11
HETATM   11  O2  LIG X 999      44.596 131.241  15.777  1.00  0.00    -0.259 OA
BRANCH  11  12
HETATM   12  C3  LIG X 999      45.360 130.162  15.313  1.00  0.00     0.367 C 
HETATM   13  N1  LIG X 999      46.580 130.407  14.594  1.00  0.00    -0.336 N 
HETATM   14  C1  LIG X 999      46.999 131.788  14.342  1.00  0.00     0.154 C 
HETATM   15  C2  LIG X 999      47.384 129.278  14.116  1.00  0.00     0.154 C 
HETATM   16  O1  LIG X 999      44.987 128.977  15.541  1.00  0.00    -0.238 OA
ENDBRANCH  11  12
ENDBRANCH   1  11
BRANCH  10  17
HETATM   17  N2  LIG X 999      46.320 130.520  17.938  1.00  0.00    -0.396 N 
HETATM   18  H13 LIG X 999      46.469 129.677  17.345  1.00  0.00     0.156 HD
HETATM   19  H14 LIG X 999      47.163 130.916  18.410  1.00  0.00     0.156 HD
ENDBRANCH  10  17
TORSDOF 3
