REMARK VINA RESULT:      -5.7      8.894     10.177
REMARK  1 active torsions:
REMARK  status: ('A' for Active; 'I' for Inactive)
REMARK    1  A    between atoms: C11_13  and  N2_14 
ROOT
HETATM    1  N2  LIG X 999      48.993 138.734  19.823  1.00  0.00    -0.053 NA
HETATM    2  N3  LIG X 999      49.062 138.461  18.624  1.00  0.00    -0.160 NA
HETATM    3  N4  LIG X 999      49.130 138.187  17.427  1.00  0.00     0.068 N 
ENDROOT
BRANCH   1   4
HETATM    4  C11 LIG X 999      49.813 138.066  20.783  1.00  0.00     0.175 A 
HETATM    5  C10 LIG X 999      49.524 136.840  21.363  1.00  0.00     0.026 A 
HETATM    6  C5  LIG X 999      50.560 136.592  22.199  1.00  0.00     0.017 A 
HETATM    7  C9  LIG X 999      48.475 135.929  21.244  1.00  0.00     0.016 A 
HETATM    8  C4  LIG X 999      51.442 137.619  22.134  1.00  0.00     0.046 A 
HETATM    9  C6  LIG X 999      50.684 135.468  22.987  1.00  0.00     0.005 A 
HETATM   10  C3  LIG X 999      52.668 137.608  22.948  1.00  0.00     0.033 A 
HETATM   11  N5  LIG X 999      50.998 138.549  21.259  1.00  0.00    -0.337 N 
HETATM   12  C2  LIG X 999      52.889 136.549  23.760  1.00  0.00     0.034 A 
HETATM   13  C1  LIG X 999      51.915 135.408  23.835  1.00  0.00     0.059 A 
HETATM   14  N1  LIG X 999      52.165 134.411  24.625  1.00  0.00    -0.300 NA
HETATM   15  H1  LIG X 999      51.532 133.588  24.726  1.00  0.00     0.187 HD
HETATM   16  H7  LIG X 999      51.468 139.446  21.004  1.00  0.00     0.167 HD
HETATM   17  C7  LIG X 999      49.643 134.516  22.899  1.00  0.00     0.015 A 
HETATM   18  C8  LIG X 999      48.542 134.752  22.029  1.00  0.00     0.002 A 
ENDBRANCH   1   4
TORSDOF 1
