REMARK VINA RESULT:      -6.2      1.555      2.137
REMARK  2 active torsions:
REMARK  status: ('A' for Active; 'I' for Inactive)
REMARK    1  A    between atoms: N1_1  and  C1_2 
REMARK    2  A    between atoms: C2_5  and  C3_6 
ROOT
HETATM    1  C3  LIG X 999      43.451 131.713  19.216  1.00  0.00     0.030 A 
HETATM    2  C4  LIG X 999      42.376 132.584  18.966  1.00  0.00     0.017 A 
HETATM    3  C5  LIG X 999      41.589 133.069  20.009  1.00  0.00     0.002 A 
HETATM    4  C6  LIG X 999      41.854 132.693  21.323  1.00  0.00     0.012 A 
HETATM    5  C7  LIG X 999      42.899 131.805  21.607  1.00  0.00    -0.025 A 
HETATM    6  C8  LIG X 999      43.139 131.414  22.933  1.00  0.00     0.012 A 
HETATM    7  C9  LIG X 999      44.151 130.502  23.227  1.00  0.00     0.001 A 
HETATM    8  C10 LIG X 999      44.923 129.960  22.200  1.00  0.00     0.001 A 
HETATM    9  C11 LIG X 999      44.701 130.340  20.874  1.00  0.00     0.013 A 
HETATM   10  C12 LIG X 999      43.704 131.288  20.552  1.00  0.00    -0.011 A 
ENDROOT
BRANCH   1  11
HETATM   11  C2  LIG X 999      44.291 131.313  18.062  1.00  0.00     0.203 A 
HETATM   12  N3  LIG X 999      44.039 131.678  16.785  1.00  0.00    -0.145 NA
HETATM   13  N2  LIG X 999      45.018 131.160  16.065  1.00  0.00    -0.240 N 
HETATM   14  C1  LIG X 999      45.830 130.511  16.913  1.00  0.00     0.240 A 
HETATM   15  H3  LIG X 999      45.121 131.256  15.030  1.00  0.00     0.193 HD
HETATM   16  O1  LIG X 999      45.397 130.600  18.146  1.00  0.00    -0.257 OA
BRANCH  14  17
HETATM   17  N1  LIG X 999      47.011 129.816  16.523  1.00  0.00    -0.364 N 
HETATM   18  H1  LIG X 999      47.659 129.437  17.249  1.00  0.00     0.159 HD
HETATM   19  H2  LIG X 999      47.236 129.682  15.513  1.00  0.00     0.159 HD
ENDBRANCH  14  17
ENDBRANCH   1  11
TORSDOF 2
