REMARK VINA RESULT:      -6.2      2.002      6.622
REMARK  1 active torsions:
REMARK  status: ('A' for Active; 'I' for Inactive)
REMARK    1  A    between atoms: C3_3  and  N1_4 
ROOT
HETATM    1  N1  LIG X 999      41.817 132.918  20.133  1.00  0.00    -0.072 NA
HETATM    2  N2  LIG X 999      41.024 133.332  20.981  1.00  0.00    -0.162 NA
HETATM    3  N3  LIG X 999      40.233 133.748  21.825  1.00  0.00     0.068 N 
ENDROOT
BRANCH   1   4
HETATM    4  C3  LIG X 999      42.978 132.153  20.481  1.00  0.00     0.104 A 
HETATM    5  C2  LIG X 999      43.206 131.911  21.842  1.00  0.00     0.035 A 
HETATM    6  C1  LIG X 999      44.270 131.112  22.262  1.00  0.00     0.003 A 
HETATM    7  C10 LIG X 999      45.136 130.548  21.328  1.00  0.00     0.012 A 
HETATM    8  C9  LIG X 999      44.965 130.804  19.961  1.00  0.00    -0.023 A 
HETATM    9  C4  LIG X 999      43.887 131.634  19.519  1.00  0.00     0.006 A 
HETATM   10  C8  LIG X 999      45.872 130.263  19.029  1.00  0.00     0.021 A 
HETATM   11  C5  LIG X 999      43.794 131.949  18.141  1.00  0.00     0.024 A 
HETATM   12  C6  LIG X 999      44.711 131.387  17.253  1.00  0.00    -0.023 A 
HETATM   13  C7  LIG X 999      45.708 130.568  17.680  1.00  0.00    -0.024 A 
HETATM   14  C14 LIG X 999      44.805 131.602  15.793  1.00  0.00     0.276 C 
HETATM   15  C11 LIG X 999      46.561 130.153  16.546  1.00  0.00     0.276 C 
HETATM   16  N4  LIG X 999      45.881 130.674  15.318  1.00  0.00    -0.067 N 
HETATM   17  C12 LIG X 999      45.283 129.554  14.554  1.00  0.00     0.272 C 
HETATM   18  C13 LIG X 999      46.844 131.390  14.450  1.00  0.00     0.272 C 
ENDBRANCH   1   4
TORSDOF 1
