REMARK VINA RESULT:      -4.8      5.634      7.271
REMARK  1 active torsions:
REMARK  status: ('A' for Active; 'I' for Inactive)
REMARK    1  A    between atoms: C4_4  and  N1_5 
ROOT
HETATM    1  C1  LIG X 999      44.587 125.664  23.126  1.00  0.00     0.049 C 
HETATM    2  C2  LIG X 999      43.737 126.894  23.325  1.00  0.00    -0.045 C 
HETATM    3  C3  LIG X 999      44.430 128.112  23.424  1.00  0.00     0.057 C 
HETATM    4  C4  LIG X 999      43.777 129.257  23.873  1.00  0.00     0.122 C 
HETATM    5  N2  LIG X 999      42.479 129.185  24.247  1.00  0.00    -0.231 NA
HETATM    6  C5  LIG X 999      41.751 128.045  24.128  1.00  0.00     0.070 C 
HETATM    7  C6  LIG X 999      40.439 128.044  24.601  1.00  0.00     0.033 C 
HETATM    8  C7  LIG X 999      39.656 126.901  24.510  1.00  0.00     0.014 C 
HETATM    9  C8  LIG X 999      40.136 125.769  23.845  1.00  0.00    -0.025 C 
HETATM   10  C9  LIG X 999      39.285 124.664  23.674  1.00  0.00     0.012 C 
HETATM   11  C10 LIG X 999      39.690 123.578  22.903  1.00  0.00     0.001 C 
HETATM   12  C11 LIG X 999      40.926 123.604  22.263  1.00  0.00     0.001 C 
HETATM   13  C12 LIG X 999      41.788 124.690  22.436  1.00  0.00     0.013 C 
HETATM   14  C13 LIG X 999      41.453 125.760  23.298  1.00  0.00    -0.013 C 
HETATM   15  C14 LIG X 999      42.323 126.872  23.557  1.00  0.00     0.010 C 
ENDROOT
BRANCH   4  16
HETATM   16  N1  LIG X 999      44.484 130.492  24.001  1.00  0.00    -0.384 N 
HETATM   17  H5  LIG X 999      45.168 130.798  23.274  1.00  0.00     0.157 HD
HETATM   18  H6  LIG X 999      44.320 131.108  24.828  1.00  0.00     0.157 HD
ENDBRANCH   4  16
TORSDOF 1
