REMARK VINA RESULT:      -7.2      2.764      8.693
REMARK  6 active torsions:
REMARK  status: ('A' for Active; 'I' for Inactive)
REMARK    1  A    between atoms: C4_5  and  C5_6 
REMARK       I    between atoms: C5_6  and  N2_8 
REMARK    2  A    between atoms: N2_8  and  C6_9 
REMARK    3  A    between atoms: C6_9  and  O2_10 
REMARK    4  A    between atoms: O2_10  and  C7_11 
REMARK    5  A    between atoms: C7_11  and  O4_13 
REMARK    6  A    between atoms: O4_13  and  C8_14 
ROOT
HETATM    1  C7  LIG X 999      43.363 131.910  20.376  1.00  0.00     0.413 C 
HETATM    2  O3  LIG X 999      42.286 132.549  20.522  1.00  0.00    -0.229 OA
ENDROOT
BRANCH   1   3
HETATM    3  O2  LIG X 999      43.821 131.573  19.099  1.00  0.00    -0.276 OA
BRANCH   3   4
HETATM    4  C6  LIG X 999      43.027 131.679  17.918  1.00  0.00     0.334 C 
BRANCH   4   5
HETATM    5  N2  LIG X 999      43.843 131.406  16.741  1.00  0.00    -0.224 NA
HETATM    6  C5  LIG X 999      45.131 130.781  16.777  1.00  0.00     0.292 C 
HETATM    7  O1  LIG X 999      45.586 130.317  17.857  1.00  0.00    -0.264 OA
BRANCH   6   8
HETATM    8  C4  LIG X 999      45.919 130.665  15.543  1.00  0.00     0.119 A 
HETATM    9  C3  LIG X 999      45.608 131.230  14.316  1.00  0.00     0.055 A 
HETATM   10  C2  LIG X 999      46.629 130.827  13.476  1.00  0.00     0.112 A 
HETATM   11  N1  LIG X 999      47.496 130.077  14.184  1.00  0.00    -0.307 N 
HETATM   12  C1  LIG X 999      48.667 129.393  13.654  1.00  0.00     0.177 C 
HETATM   13  N3  LIG X 999      47.063 129.966  15.429  1.00  0.00    -0.294 N 
HETATM   14  H15 LIG X 999      47.537 129.413  16.179  1.00  0.00     0.187 HD
ENDBRANCH   6   8
ENDBRANCH   4   5
ENDBRANCH   3   4
ENDBRANCH   1   3
BRANCH   1  15
HETATM   15  O4  LIG X 999      44.100 131.485  21.487  1.00  0.00    -0.256 OA
BRANCH  15  16
HETATM   16  C8  LIG X 999      44.080 130.191  22.028  1.00  0.00     0.082 A 
HETATM   17  C9  LIG X 999      45.128 129.275  21.822  1.00  0.00     0.038 A 
HETATM   18  C10 LIG X 999      45.067 127.990  22.370  1.00  0.00     0.015 A 
HETATM   19  C11 LIG X 999      43.952 127.599  23.126  1.00  0.00    -0.026 A 
HETATM   20  C12 LIG X 999      43.880 126.313  23.684  1.00  0.00     0.012 A 
HETATM   21  C16 LIG X 999      42.886 128.509  23.322  1.00  0.00    -0.023 A 
HETATM   22  C13 LIG X 999      42.761 125.934  24.430  1.00  0.00     0.001 A 
HETATM   23  C14 LIG X 999      41.708 126.831  24.624  1.00  0.00     0.001 A 
HETATM   24  C15 LIG X 999      41.767 128.115  24.073  1.00  0.00     0.012 A 
HETATM   25  C17 LIG X 999      42.957 129.795  22.766  1.00  0.00     0.049 A 
ENDBRANCH  15  16
ENDBRANCH   1  15
TORSDOF 6
