REMARK VINA RESULT:      -5.1      6.601      9.652
REMARK  3 active torsions:
REMARK  status: ('A' for Active; 'I' for Inactive)
REMARK    1  A    between atoms: C2_2  and  N1_3 
REMARK       I    between atoms: N2_8  and  C7_9 
REMARK    2  A    between atoms: C7_9  and  C8_11 
REMARK    3  A    between atoms: C9_12  and  C10_13 
ROOT
HETATM    1  C8  LIG X 999      46.956 125.204  22.014  1.00  0.00     0.001 C 
HETATM    2  C9  LIG X 999      46.134 126.004  22.381  1.00  0.00    -0.057 C 
ENDROOT
BRANCH   1   3
HETATM    3  C7  LIG X 999      47.947 124.259  21.572  1.00  0.00     0.313 C 
HETATM    4  N2  LIG X 999      49.149 124.046  22.329  1.00  0.00    -0.269 N 
HETATM    5  N1  LIG X 999      49.486 124.860  23.429  1.00  0.00    -0.226 NA
HETATM    6  C6  LIG X 999      49.849 122.775  22.272  1.00  0.00     0.153 C 
HETATM    7  C3  LIG X 999      50.188 123.950  24.354  1.00  0.00     0.119 C 
HETATM    8  C4  LIG X 999      50.659 122.722  23.560  1.00  0.00     0.016 C 
HETATM    9  C5  LIG X 999      52.169 122.747  23.298  1.00  0.00     0.013 C 
HETATM   10  O1  LIG X 999      47.733 123.596  20.522  1.00  0.00    -0.257 OA
BRANCH   5  11
HETATM   11  C2  LIG X 999      50.391 125.937  22.970  1.00  0.00     0.109 C 
HETATM   12  C1  LIG X 999      50.877 126.793  24.136  1.00  0.00     0.023 C 
ENDBRANCH   5  11
ENDBRANCH   1   3
BRANCH   2  13
HETATM   13  C10 LIG X 999      45.159 126.968  22.818  1.00  0.00     0.019 A 
HETATM   14  C11 LIG X 999      44.146 126.587  23.706  1.00  0.00     0.021 A 
HETATM   15  C12 LIG X 999      43.195 127.520  24.132  1.00  0.00     0.013 A 
HETATM   16  C13 LIG X 999      43.250 128.844  23.671  1.00  0.00    -0.026 A 
HETATM   17  C14 LIG X 999      42.301 129.788  24.091  1.00  0.00     0.012 A 
HETATM   18  C18 LIG X 999      44.274 129.230  22.772  1.00  0.00    -0.025 A 
HETATM   19  C15 LIG X 999      42.367 131.104  23.624  1.00  0.00     0.001 A 
HETATM   20  C16 LIG X 999      43.377 131.486  22.738  1.00  0.00     0.001 A 
HETATM   21  C17 LIG X 999      44.329 130.555  22.311  1.00  0.00     0.012 A 
HETATM   22  C19 LIG X 999      45.224 128.287  22.351  1.00  0.00     0.032 A 
ENDBRANCH   2  13
TORSDOF 3
