REMARK VINA RESULT:      -6.9      1.963      2.783
REMARK  5 active torsions:
REMARK  status: ('A' for Active; 'I' for Inactive)
REMARK    1  A    between atoms: N1_1  and  C1_2 
REMARK    2  A    between atoms: C1_2  and  C2_3 
REMARK    3  A    between atoms: C2_3  and  C3_4 
REMARK    4  A    between atoms: C3_4  and  O1_5 
REMARK    5  A    between atoms: O1_5  and  C4_6 
ROOT
HETATM    1  C4  LIG X 999      44.644 131.264  18.809  1.00  0.00     0.069 A 
HETATM    2  C5  LIG X 999      43.571 131.789  18.079  1.00  0.00     0.037 A 
HETATM    3  C6  LIG X 999      43.578 131.766  16.682  1.00  0.00     0.015 A 
HETATM    4  C7  LIG X 999      44.666 131.214  15.992  1.00  0.00    -0.026 A 
HETATM    5  C8  LIG X 999      44.684 131.186  14.589  1.00  0.00     0.012 A 
HETATM    6  C9  LIG X 999      45.774 130.632  13.912  1.00  0.00     0.001 A 
HETATM    7  C10 LIG X 999      46.852 130.105  14.629  1.00  0.00     0.001 A 
HETATM    8  C11 LIG X 999      46.846 130.127  16.027  1.00  0.00     0.012 A 
HETATM    9  C12 LIG X 999      45.757 130.680  16.718  1.00  0.00    -0.023 A 
HETATM   10  C13 LIG X 999      45.741 130.708  18.122  1.00  0.00     0.049 A 
ENDROOT
BRANCH   1  11
HETATM   11  O1  LIG X 999      44.580 131.314  20.209  1.00  0.00    -0.351 OA
BRANCH  11  12
HETATM   12  C3  LIG X 999      45.195 130.368  21.081  1.00  0.00     0.177 C 
BRANCH  12  13
HETATM   13  C2  LIG X 999      44.484 130.359  22.437  1.00  0.00     0.054 C 
BRANCH  13  14
HETATM   14  C1  LIG X 999      42.954 130.473  22.325  1.00  0.00     0.231 C 
BRANCH  14  15
HETATM   15  N1  LIG X 999      42.511 131.863  22.185  1.00  0.00    -0.079 N 
HETATM   16  H1  LIG X 999      42.776 132.418  23.032  1.00  0.00     0.274 HD
HETATM   17  H2  LIG X 999      42.975 132.283  21.348  1.00  0.00     0.274 HD
HETATM   18  H3  LIG X 999      41.477 131.902  22.043  1.00  0.00     0.274 HD
ENDBRANCH  14  15
ENDBRANCH  13  14
ENDBRANCH  12  13
ENDBRANCH  11  12
ENDBRANCH   1  11
TORSDOF 5
