REMARK VINA RESULT:      -6.6      2.711      5.147
REMARK  1 active torsions:
REMARK  status: ('A' for Active; 'I' for Inactive)
REMARK    1  A    between atoms: C2_5  and  C3_6 
ROOT
HETATM    1  C3  LIG X 999      44.868 131.130  16.968  1.00  0.00     0.030 A 
HETATM    2  C4  LIG X 999      43.624 131.727  16.675  1.00  0.00     0.017 A 
HETATM    3  C5  LIG X 999      43.217 131.954  15.365  1.00  0.00     0.002 A 
HETATM    4  C6  LIG X 999      44.036 131.594  14.303  1.00  0.00     0.012 A 
HETATM    5  C7  LIG X 999      45.279 130.999  14.542  1.00  0.00    -0.025 A 
HETATM    6  C8  LIG X 999      46.086 130.646  13.448  1.00  0.00     0.012 A 
HETATM    7  C9  LIG X 999      47.328 130.053  13.651  1.00  0.00     0.001 A 
HETATM    8  C10 LIG X 999      47.778 129.807  14.945  1.00  0.00     0.001 A 
HETATM    9  C11 LIG X 999      46.990 130.151  16.047  1.00  0.00     0.013 A 
HETATM   10  C12 LIG X 999      45.721 130.756  15.877  1.00  0.00    -0.011 A 
ENDROOT
BRANCH   1  11
HETATM   11  C2  LIG X 999      45.193 130.939  18.416  1.00  0.00     0.203 A 
HETATM   12  O1  LIG X 999      44.702 131.635  19.420  1.00  0.00    -0.255 OA
HETATM   13  C1  LIG X 999      45.257 131.130  20.491  1.00  0.00     0.262 A 
HETATM   14  N1  LIG X 999      45.034 131.542  21.696  1.00  0.00    -0.260 NA
HETATM   15  N3  LIG X 999      46.091 130.129  20.183  1.00  0.00    -0.238 N 
HETATM   16  H1  LIG X 999      44.372 132.330  21.876  1.00  0.00     0.190 HD
HETATM   17  N2  LIG X 999      46.058 129.999  18.869  1.00  0.00    -0.145 NA
HETATM   18  H9  LIG X 999      46.666 129.548  20.834  1.00  0.00     0.193 HD
ENDBRANCH   1  11
TORSDOF 1
