REMARK VINA RESULT:      -8.9      0.000      0.000
REMARK  1 active torsions:
REMARK  status: ('A' for Active; 'I' for Inactive)
REMARK    1  A    between atoms: C2_2  and  N1_3 
ROOT
HETATM    1  N1  LIG X 999      42.433 132.280  19.399  1.00  0.00    -0.073 NA
HETATM    2  N2  LIG X 999      42.445 132.248  20.630  1.00  0.00    -0.162 NA
HETATM    3  N3  LIG X 999      42.455 132.216  21.860  1.00  0.00     0.068 N 
ENDROOT
BRANCH   1   4
HETATM    4  C2  LIG X 999      43.511 131.761  18.608  1.00  0.00     0.094 A 
HETATM    5  C1  LIG X 999      44.654 131.190  19.197  1.00  0.00     0.035 A 
HETATM    6  C11 LIG X 999      45.688 130.692  18.400  1.00  0.00     0.014 A 
HETATM    7  C10 LIG X 999      45.594 130.755  17.003  1.00  0.00    -0.024 A 
HETATM    8  C4  LIG X 999      44.448 131.329  16.403  1.00  0.00    -0.024 A 
HETATM    9  C9  LIG X 999      46.628 130.258  16.192  1.00  0.00     0.034 A 
HETATM   10  C3  LIG X 999      43.415 131.827  17.212  1.00  0.00     0.046 A 
HETATM   11  C5  LIG X 999      44.354 131.393  15.004  1.00  0.00     0.014 A 
HETATM   12  C6  LIG X 999      45.389 130.895  14.207  1.00  0.00     0.023 A 
HETATM   13  C7  LIG X 999      46.524 130.328  14.797  1.00  0.00     0.045 A 
HETATM   14  C8  LIG X 999      47.585 129.816  13.970  1.00  0.00     0.099 C 
HETATM   15  N4  LIG X 999      48.438 129.405  13.305  1.00  0.00    -0.191 NA
ENDBRANCH   1   4
TORSDOF 1
