REMARK VINA RESULT:      -5.9      3.008      5.077
REMARK  1 active torsions:
REMARK  status: ('A' for Active; 'I' for Inactive)
REMARK    1  A    between atoms: C8_8  and  N1_9 
ROOT
HETATM    1  N1  LIG X 999      43.919 131.559  23.086  1.00  0.00    -0.072 NA
HETATM    2  N2  LIG X 999      43.480 130.634  23.772  1.00  0.00    -0.162 NA
HETATM    3  N3  LIG X 999      43.040 129.718  24.464  1.00  0.00     0.068 N 
ENDROOT
BRANCH   1   4
HETATM    4  C8  LIG X 999      43.526 131.768  21.722  1.00  0.00     0.104 A 
HETATM    5  C7  LIG X 999      42.296 132.442  21.485  1.00  0.00     0.038 A 
HETATM    6  C6  LIG X 999      41.809 132.648  20.176  1.00  0.00     0.035 A 
HETATM    7  C5  LIG X 999      42.569 132.175  19.110  1.00  0.00     0.073 A 
HETATM    8  C4  LIG X 999      43.761 131.553  19.346  1.00  0.00     0.021 A 
HETATM    9  N4  LIG X 999      42.299 132.298  17.710  1.00  0.00    -0.209 NA
HETATM   10  C3  LIG X 999      44.374 131.227  18.179  1.00  0.00     0.047 A 
HETATM   11  C9  LIG X 999      44.303 131.335  20.606  1.00  0.00     0.009 A 
HETATM   12  C2  LIG X 999      45.637 130.642  18.177  1.00  0.00     0.018 A 
HETATM   13  C11 LIG X 999      43.465 131.685  17.135  1.00  0.00     0.278 A 
HETATM   14  C1  LIG X 999      46.251 130.407  19.428  1.00  0.00     0.002 A 
HETATM   15  C10 LIG X 999      45.597 130.759  20.639  1.00  0.00     0.015 A 
HETATM   16  O1  LIG X 999      43.660 131.577  15.896  1.00  0.00    -0.265 OA
ENDBRANCH   1   4
TORSDOF 1
