REMARK VINA RESULT:      -6.9      3.893      5.402
REMARK  7 active torsions:
REMARK  status: ('A' for Active; 'I' for Inactive)
REMARK    1  A    between atoms: O1_2  and  C1_3 
REMARK    2  A    between atoms: C1_3  and  C14_20 
REMARK    3  A    between atoms: N1_4  and  C2_5 
REMARK    4  A    between atoms: C2_5  and  O2_6 
REMARK    5  A    between atoms: O2_6  and  C3_7 
REMARK    6  A    between atoms: C3_7  and  O4_9 
REMARK    7  A    between atoms: O4_9  and  C4_10 
ROOT
HETATM    1  C3  LIG X 999      44.977 131.608  19.866  1.00  0.00     0.413 C 
HETATM    2  O3  LIG X 999      43.910 132.236  20.105  1.00  0.00    -0.229 OA
ENDROOT
BRANCH   1   3
HETATM    3  O2  LIG X 999      46.120 131.838  20.636  1.00  0.00    -0.276 OA
BRANCH   3   4
HETATM    4  C2  LIG X 999      46.677 133.137  20.815  1.00  0.00     0.332 C 
BRANCH   4   5
HETATM    5  N1  LIG X 999      47.075 133.317  22.208  1.00  0.00    -0.238 NA
HETATM    6  C1  LIG X 999      47.855 134.241  22.702  1.00  0.00     0.190 C 
BRANCH   6   7
HETATM    7  O1  LIG X 999      48.117 134.225  24.069  1.00  0.00    -0.343 OA
HETATM    8  H1  LIG X 999      47.447 134.585  24.737  1.00  0.00     0.219 HD
ENDBRANCH   6   7
BRANCH   6   9
HETATM    9  C14 LIG X 999      48.484 135.313  21.891  1.00  0.00     0.130 A 
HETATM   10  N2  LIG X 999      47.840 136.141  21.044  1.00  0.00    -0.169 NA
HETATM   11  N3  LIG X 999      48.742 136.944  20.507  1.00  0.00    -0.285 N 
HETATM   12  C15 LIG X 999      48.422 138.019  19.577  1.00  0.00     0.179 C 
HETATM   13  C16 LIG X 999      49.959 136.670  21.009  1.00  0.00     0.114 A 
HETATM   14  C17 LIG X 999      49.834 135.623  21.897  1.00  0.00     0.056 A 
ENDBRANCH   6   9
ENDBRANCH   4   5
ENDBRANCH   3   4
ENDBRANCH   1   3
BRANCH   1  15
HETATM   15  O4  LIG X 999      45.030 130.644  18.854  1.00  0.00    -0.256 OA
BRANCH  15  16
HETATM   16  C4  LIG X 999      45.541 130.856  17.565  1.00  0.00     0.082 A 
HETATM   17  C5  LIG X 999      45.243 132.062  16.921  1.00  0.00     0.038 A 
HETATM   18  C6  LIG X 999      45.715 132.318  15.631  1.00  0.00     0.015 A 
HETATM   19  C7  LIG X 999      46.486 131.359  14.959  1.00  0.00    -0.026 A 
HETATM   20  C8  LIG X 999      46.964 131.604  13.663  1.00  0.00     0.012 A 
HETATM   21  C12 LIG X 999      46.778 130.127  15.593  1.00  0.00    -0.023 A 
HETATM   22  C9  LIG X 999      47.722 130.634  13.000  1.00  0.00     0.001 A 
HETATM   23  C10 LIG X 999      48.008 129.417  13.625  1.00  0.00     0.001 A 
HETATM   24  C11 LIG X 999      47.538 129.162  14.916  1.00  0.00     0.012 A 
HETATM   25  C13 LIG X 999      46.300 129.882  16.890  1.00  0.00     0.049 A 
ENDBRANCH  15  16
ENDBRANCH   1  15
TORSDOF 7
