REMARK VINA RESULT:      -6.6      3.133      7.444
REMARK  7 active torsions:
REMARK  status: ('A' for Active; 'I' for Inactive)
REMARK    1  A    between atoms: N1_2  and  C2_3 
REMARK    2  A    between atoms: C2_3  and  C4_5 
REMARK    3  A    between atoms: C4_5  and  C5_6 
REMARK    4  A    between atoms: C5_6  and  C6_7 
REMARK    5  A    between atoms: C6_7  and  C7_8 
REMARK    6  A    between atoms: C7_8  and  N2_9 
REMARK    7  A    between atoms: N2_9  and  C8_10 
ROOT
HETATM    1  C8  LIG X 999      43.478 131.105  22.689  1.00  0.00     0.101 C 
HETATM    2  C9  LIG X 999      42.544 131.829  21.940  1.00  0.00     0.056 C 
HETATM    3  C10 LIG X 999      42.766 132.087  20.580  1.00  0.00    -0.045 C 
HETATM    4  C11 LIG X 999      41.864 133.118  19.945  1.00  0.00     0.049 C 
HETATM    5  C12 LIG X 999      43.889 131.490  19.928  1.00  0.00     0.008 C 
HETATM    6  C13 LIG X 999      44.874 130.895  20.767  1.00  0.00     0.045 C 
HETATM    7  C14 LIG X 999      46.113 130.511  20.239  1.00  0.00     0.031 C 
HETATM    8  C15 LIG X 999      46.396 130.682  18.892  1.00  0.00     0.014 C 
HETATM    9  C16 LIG X 999      45.406 131.137  18.017  1.00  0.00    -0.025 C 
HETATM   10  C17 LIG X 999      45.681 131.195  16.641  1.00  0.00     0.012 C 
HETATM   11  C18 LIG X 999      44.674 131.515  15.735  1.00  0.00     0.001 C 
HETATM   12  C19 LIG X 999      43.378 131.739  16.190  1.00  0.00     0.001 C 
HETATM   13  C20 LIG X 999      43.093 131.699  17.557  1.00  0.00     0.013 C 
HETATM   14  C21 LIG X 999      44.116 131.484  18.512  1.00  0.00    -0.013 C 
HETATM   15  N3  LIG X 999      44.635 130.707  22.096  1.00  0.00    -0.342 N 
HETATM   16  H28 LIG X 999      45.356 130.230  22.685  1.00  0.00     0.167 HD
ENDROOT
BRANCH   1  17
HETATM   17  N2  LIG X 999      43.278 130.836  24.090  1.00  0.00    -0.376 N 
HETATM   18  H17 LIG X 999      43.826 131.394  24.783  1.00  0.00     0.161 HD
BRANCH  17  19
HETATM   19  C7  LIG X 999      42.406 129.785  24.625  1.00  0.00     0.121 C 
BRANCH  19  20
HETATM   20  C6  LIG X 999      42.793 128.402  24.083  1.00  0.00     0.020 C 
BRANCH  20  21
HETATM   21  C5  LIG X 999      44.270 128.075  24.345  1.00  0.00     0.004 C 
BRANCH  21  22
HETATM   22  C4  LIG X 999      44.845 127.197  23.224  1.00  0.00     0.035 C 
BRANCH  22  23
HETATM   23  C2  LIG X 999      44.623 125.698  23.500  1.00  0.00     0.216 C 
HETATM   24  C3  LIG X 999      43.479 125.168  22.616  1.00  0.00     0.042 C 
BRANCH  23  25
HETATM   25  N1  LIG X 999      45.880 124.964  23.257  1.00  0.00     0.083 N 
HETATM   26  C1  LIG X 999      47.062 125.764  23.588  1.00  0.00     0.307 C 
HETATM   27  H4  LIG X 999      45.902 124.082  23.822  1.00  0.00     0.315 HD
ENDBRANCH  23  25
ENDBRANCH  22  23
ENDBRANCH  21  22
ENDBRANCH  20  21
ENDBRANCH  19  20
ENDBRANCH  17  19
ENDBRANCH   1  17
TORSDOF 7
