REMARK VINA RESULT:      -5.2      6.065      8.297
REMARK  4 active torsions:
REMARK  status: ('A' for Active; 'I' for Inactive)
REMARK    1  A    between atoms: C1_2  and  C2_4 
REMARK    2  A    between atoms: C8_10  and  C9_11 
REMARK       I    between atoms: C9_11  and  N1_13 
REMARK    3  A    between atoms: N1_13  and  S1_14 
REMARK    4  A    between atoms: S1_14  and  C10_17 
ROOT
HETATM    1  C9  LIG X 999      47.269 125.271  23.320  1.00  0.00     0.259 C 
HETATM    2  O3  LIG X 999      47.411 126.141  22.420  1.00  0.00    -0.270 OA
HETATM    3  N1  LIG X 999      46.016 125.137  23.993  1.00  0.00    -0.122 NA
ENDROOT
BRANCH   3   4
HETATM    4  S1  LIG X 999      44.588 125.948  23.449  1.00  0.00     0.286 S 
HETATM    5  O4  LIG X 999      44.445 127.250  24.186  1.00  0.00    -0.198 OA
HETATM    6  O5  LIG X 999      44.697 126.240  21.979  1.00  0.00    -0.198 OA
BRANCH   4   7
HETATM    7  C10 LIG X 999      43.192 124.928  23.782  1.00  0.00     0.082 A 
HETATM    8  C11 LIG X 999      43.328 123.534  23.760  1.00  0.00     0.026 A 
HETATM    9  C12 LIG X 999      42.215 122.713  23.966  1.00  0.00     0.014 A 
HETATM   10  C13 LIG X 999      40.952 123.280  24.190  1.00  0.00    -0.026 A 
HETATM   11  C14 LIG X 999      39.828 122.465  24.390  1.00  0.00     0.012 A 
HETATM   12  C18 LIG X 999      40.811 124.688  24.208  1.00  0.00    -0.025 A 
HETATM   13  C15 LIG X 999      38.572 123.042  24.606  1.00  0.00     0.001 A 
HETATM   14  C16 LIG X 999      38.432 124.433  24.623  1.00  0.00     0.001 A 
HETATM   15  C17 LIG X 999      39.544 125.256  24.425  1.00  0.00     0.012 A 
HETATM   16  C19 LIG X 999      41.934 125.504  24.004  1.00  0.00     0.037 A 
ENDBRANCH   4   7
ENDBRANCH   3   4
BRANCH   1  17
HETATM   17  C8  LIG X 999      48.388 124.311  23.655  1.00  0.00     0.099 C 
HETATM   18  C2  LIG X 999      48.558 123.132  22.649  1.00  0.00     0.104 C 
HETATM   19  C3  LIG X 999      50.028 123.299  22.183  1.00  0.00     0.001 C 
HETATM   20  C4  LIG X 999      50.956 122.885  23.342  1.00  0.00     0.006 C 
HETATM   21  C7  LIG X 999      50.210 124.801  22.187  1.00  0.00     0.011 C 
HETATM   22  C5  LIG X 999      50.787 124.040  24.345  1.00  0.00     0.006 C 
HETATM   23  C6  LIG X 999      49.790 124.973  23.630  1.00  0.00    -0.000 C 
BRANCH  18  24
HETATM   24  C1  LIG X 999      47.576 123.111  21.496  1.00  0.00     0.178 C 
HETATM   25  O1  LIG X 999      47.871 123.613  20.378  1.00  0.00    -0.648 OA
HETATM   26  O2  LIG X 999      46.310 122.572  21.687  1.00  0.00    -0.648 OA
ENDBRANCH  18  24
ENDBRANCH   1  17
TORSDOF 4
