REMARK VINA RESULT:      -7.3      0.000      0.000
REMARK  4 active torsions:
REMARK  status: ('A' for Active; 'I' for Inactive)
REMARK    1  A    between atoms: C1_2  and  C2_4 
REMARK    2  A    between atoms: C8_10  and  C9_11 
REMARK       I    between atoms: C9_11  and  N1_13 
REMARK    3  A    between atoms: N1_13  and  S1_14 
REMARK    4  A    between atoms: S1_14  and  C10_17 
ROOT
HETATM    1  C9  LIG X 999      44.336 129.475  23.770  1.00  0.00     0.259 C 
HETATM    2  O3  LIG X 999      44.303 130.401  24.625  1.00  0.00    -0.270 OA
HETATM    3  N1  LIG X 999      44.234 129.784  22.377  1.00  0.00    -0.122 NA
ENDROOT
BRANCH   3   4
HETATM    4  S1  LIG X 999      44.041 131.404  21.801  1.00  0.00     0.286 S 
HETATM    5  O4  LIG X 999      42.766 131.969  22.360  1.00  0.00    -0.198 OA
HETATM    6  O5  LIG X 999      45.198 132.239  22.272  1.00  0.00    -0.198 OA
BRANCH   4   7
HETATM    7  C10 LIG X 999      44.004 131.412  20.041  1.00  0.00     0.082 A 
HETATM    8  C11 LIG X 999      42.867 131.879  19.371  1.00  0.00     0.026 A 
HETATM    9  C12 LIG X 999      42.827 131.898  17.974  1.00  0.00     0.014 A 
HETATM   10  C13 LIG X 999      43.926 131.444  17.230  1.00  0.00    -0.026 A 
HETATM   11  C14 LIG X 999      43.896 131.458  15.827  1.00  0.00     0.012 A 
HETATM   12  C18 LIG X 999      45.076 130.964  17.904  1.00  0.00    -0.025 A 
HETATM   13  C15 LIG X 999      44.996 130.997  15.099  1.00  0.00     0.001 A 
HETATM   14  C16 LIG X 999      46.131 130.521  15.763  1.00  0.00     0.001 A 
HETATM   15  C17 LIG X 999      46.175 130.505  17.159  1.00  0.00     0.012 A 
HETATM   16  C19 LIG X 999      45.107 130.951  19.307  1.00  0.00     0.037 A 
ENDBRANCH   4   7
ENDBRANCH   3   4
BRANCH   1  17
HETATM   17  C8  LIG X 999      44.533 128.035  24.191  1.00  0.00     0.099 C 
HETATM   18  C2  LIG X 999      43.226 127.194  24.305  1.00  0.00     0.104 C 
HETATM   19  C3  LIG X 999      43.502 126.015  23.337  1.00  0.00     0.001 C 
HETATM   20  C4  LIG X 999      44.559 125.095  23.977  1.00  0.00     0.006 C 
HETATM   21  C7  LIG X 999      44.313 126.670  22.239  1.00  0.00     0.011 C 
HETATM   22  C5  LIG X 999      45.851 125.925  23.865  1.00  0.00     0.006 C 
HETATM   23  C6  LIG X 999      45.369 127.215  23.174  1.00  0.00    -0.000 C 
BRANCH  18  24
HETATM   24  C1  LIG X 999      41.950 127.938  23.971  1.00  0.00     0.178 C 
HETATM   25  O1  LIG X 999      41.159 127.461  23.115  1.00  0.00    -0.648 OA
HETATM   26  O2  LIG X 999      41.613 129.117  24.625  1.00  0.00    -0.648 OA
ENDBRANCH  18  24
ENDBRANCH   1  17
TORSDOF 4
