REMARK VINA RESULT:      -7.7      0.000      0.000
REMARK  1 active torsions:
REMARK  status: ('A' for Active; 'I' for Inactive)
REMARK    1  A    between atoms: C5_5  and  N1_6 
ROOT
HETATM    1  N1  LIG X 999      45.576 130.246  18.170  1.00  0.00    -0.070 NA
HETATM    2  N2  LIG X 999      45.644 131.004  19.139  1.00  0.00    -0.162 NA
HETATM    3  N3  LIG X 999      45.710 131.758  20.109  1.00  0.00     0.068 N 
ENDROOT
BRANCH   1   4
HETATM    4  C5  LIG X 999      45.173 130.707  16.869  1.00  0.00     0.124 A 
HETATM    5  C4  LIG X 999      45.976 130.514  15.711  1.00  0.00     0.007 A 
HETATM    6  C3  LIG X 999      47.158 129.744  15.731  1.00  0.00     0.015 A 
HETATM    7  C10 LIG X 999      45.555 131.075  14.473  1.00  0.00    -0.024 A 
HETATM    8  C2  LIG X 999      47.928 129.588  14.576  1.00  0.00     0.001 A 
HETATM    9  C1  LIG X 999      47.528 130.180  13.378  1.00  0.00     0.001 A 
HETATM   10  C11 LIG X 999      46.343 130.914  13.323  1.00  0.00     0.012 A 
HETATM   11  C9  LIG X 999      44.344 131.773  14.396  1.00  0.00     0.014 A 
HETATM   12  C8  LIG X 999      43.535 131.906  15.523  1.00  0.00     0.026 A 
HETATM   13  C6  LIG X 999      43.937 131.374  16.750  1.00  0.00     0.077 A 
HETATM   14  C7  LIG X 999      43.083 131.553  17.900  1.00  0.00     0.102 C 
HETATM   15  N4  LIG X 999      42.398 131.698  18.822  1.00  0.00    -0.191 NA
ENDBRANCH   1   4
TORSDOF 1
