MODEL 1
REMARK VINA RESULT:      -8.4      0.000      0.000
REMARK  3 active torsions:
REMARK  status: ('A' for Active; 'I' for Inactive)
REMARK    1  A    between atoms: C7_9  and  C8_10 
REMARK    2  A    between atoms: C9_14  and  N4_15 
REMARK    3  A    between atoms: N7_24  and  C14_25 
ROOT
HETATM    1  N4  LIG X 999      47.099 131.512  13.982  1.00  0.00    -0.025 NA
HETATM    2  N5  LIG X 999      47.736 130.501  13.687  1.00  0.00    -0.158 NA
HETATM    3  N6  LIG X 999      48.373 129.492  13.392  1.00  0.00     0.068 N 
ENDROOT
BRANCH   1   4
HETATM    4  C9  LIG X 999      45.860 131.413  14.682  1.00  0.00     0.302 A 
HETATM    5  N3  LIG X 999      44.710 131.013  14.119  1.00  0.00    -0.236 N 
HETATM    6  N2  LIG X 999      43.784 131.045  15.063  1.00  0.00    -0.145 NA
HETATM    7  H4  LIG X 999      44.550 130.729  13.128  1.00  0.00     0.193 HD
HETATM    8  C8  LIG X 999      44.418 131.461  16.182  1.00  0.00     0.203 A 
HETATM    9  O1  LIG X 999      45.693 131.697  15.950  1.00  0.00    -0.253 OA
BRANCH   8  10
HETATM   10  C7  LIG X 999      43.744 131.677  17.478  1.00  0.00     0.032 A 
HETATM   11  C6  LIG X 999      44.341 131.341  18.732  1.00  0.00     0.020 A 
HETATM   12  C1  LIG X 999      45.595 130.561  18.999  1.00  0.00     0.060 A 
HETATM   13  C5  LIG X 999      43.642 131.718  19.866  1.00  0.00     0.019 A 
HETATM   14  N1  LIG X 999      46.254 129.995  18.039  1.00  0.00    -0.299 NA
HETATM   15  C2  LIG X 999      46.025 130.350  20.425  1.00  0.00     0.034 A 
HETATM   16  H1  LIG X 999      47.107 129.421  18.216  1.00  0.00     0.187 HD
HETATM   17  C3  LIG X 999      45.273 130.786  21.456  1.00  0.00     0.033 A 
HETATM   18  C4  LIG X 999      44.018 131.492  21.153  1.00  0.00     0.048 A 
HETATM   19  N7  LIG X 999      43.064 131.964  21.993  1.00  0.00    -0.324 N 
HETATM   20  C13 LIG X 999      42.080 132.465  21.195  1.00  0.00     0.193 A 
HETATM   21  C12 LIG X 999      42.429 132.326  19.863  1.00  0.00     0.032 A 
HETATM   22  O2  LIG X 999      40.893 133.016  21.665  1.00  0.00    -0.171 OA
HETATM   23  C11 LIG X 999      41.789 132.629  18.668  1.00  0.00     0.018 A 
HETATM   24  C10 LIG X 999      42.459 132.304  17.467  1.00  0.00     0.018 A 
BRANCH  19  25
HETATM   25  C14 LIG X 999      43.035 131.853  23.451  1.00  0.00     0.127 C 
HETATM   26  C15 LIG X 999      42.515 130.483  23.868  1.00  0.00     0.027 C 
ENDBRANCH  19  25
ENDBRANCH   8  10
ENDBRANCH   1   4
TORSDOF 3
ENDMDL
MODEL 2
REMARK VINA RESULT:      -6.7      1.406      2.711
REMARK  3 active torsions:
REMARK  status: ('A' for Active; 'I' for Inactive)
REMARK    1  A    between atoms: C7_9  and  C8_10 
REMARK    2  A    between atoms: C9_14  and  N4_15 
REMARK    3  A    between atoms: N7_24  and  C14_25 
ROOT
HETATM    1  N4  LIG X 999      47.002 131.034  13.792  1.00  0.00    -0.025 NA
HETATM    2  N5  LIG X 999      47.878 130.264  13.399  1.00  0.00    -0.158 NA
HETATM    3  N6  LIG X 999      48.753 129.495  13.007  1.00  0.00     0.068 N 
ENDROOT
BRANCH   1   4
HETATM    4  C9  LIG X 999      46.186 130.699  14.913  1.00  0.00     0.302 A 
HETATM    5  N3  LIG X 999      45.130 129.875  14.853  1.00  0.00    -0.236 N 
HETATM    6  N2  LIG X 999      44.625 129.802  16.074  1.00  0.00    -0.145 NA
HETATM    7  H4  LIG X 999      44.756 129.378  14.016  1.00  0.00     0.193 HD
HETATM    8  C8  LIG X 999      45.411 130.590  16.841  1.00  0.00     0.203 A 
HETATM    9  O1  LIG X 999      46.367 131.150  16.130  1.00  0.00    -0.253 OA
BRANCH   8  10
HETATM   10  C7  LIG X 999      45.180 130.829  18.280  1.00  0.00     0.032 A 
HETATM   11  C6  LIG X 999      43.973 131.399  18.790  1.00  0.00     0.020 A 
HETATM   12  C1  LIG X 999      42.838 132.031  18.039  1.00  0.00     0.060 A 
HETATM   13  C5  LIG X 999      43.850 131.445  20.168  1.00  0.00     0.019 A 
HETATM   14  N1  LIG X 999      42.899 132.217  16.759  1.00  0.00    -0.299 NA
HETATM   15  C2  LIG X 999      41.659 132.551  18.814  1.00  0.00     0.034 A 
HETATM   16  H1  LIG X 999      42.131 132.688  16.231  1.00  0.00     0.187 HD
HETATM   17  C3  LIG X 999      41.637 132.522  20.162  1.00  0.00     0.033 A 
HETATM   18  C4  LIG X 999      42.797 131.949  20.865  1.00  0.00     0.048 A 
HETATM   19  N7  LIG X 999      43.050 131.864  22.194  1.00  0.00    -0.324 N 
HETATM   20  C13 LIG X 999      44.292 131.315  22.302  1.00  0.00     0.193 A 
HETATM   21  C12 LIG X 999      44.803 131.041  21.046  1.00  0.00     0.032 A 
HETATM   22  O2  LIG X 999      44.948 131.090  23.507  1.00  0.00    -0.171 OA
HETATM   23  C11 LIG X 999      46.012 130.525  20.595  1.00  0.00     0.018 A 
HETATM   24  C10 LIG X 999      46.195 130.416  19.198  1.00  0.00     0.018 A 
BRANCH  19  25
HETATM   25  C14 LIG X 999      42.217 132.364  23.288  1.00  0.00     0.127 C 
HETATM   26  C15 LIG X 999      41.955 131.258  24.302  1.00  0.00     0.027 C 
ENDBRANCH  19  25
ENDBRANCH   8  10
ENDBRANCH   1   4
TORSDOF 3
ENDMDL
MODEL 3
REMARK VINA RESULT:      -6.2      5.087      7.835
REMARK  3 active torsions:
REMARK  status: ('A' for Active; 'I' for Inactive)
REMARK    1  A    between atoms: C7_9  and  C8_10 
REMARK    2  A    between atoms: C9_14  and  N4_15 
REMARK    3  A    between atoms: N7_24  and  C14_25 
ROOT
HETATM    1  N4  LIG X 999      45.175 131.942  20.794  1.00  0.00    -0.025 NA
HETATM    2  N5  LIG X 999      44.903 131.711  19.616  1.00  0.00    -0.158 NA
HETATM    3  N6  LIG X 999      44.631 131.481  18.439  1.00  0.00     0.068 N 
ENDROOT
BRANCH   1   4
HETATM    4  C9  LIG X 999      44.793 131.029  21.822  1.00  0.00     0.302 A 
HETATM    5  N3  LIG X 999      44.595 131.379  23.101  1.00  0.00    -0.236 N 
HETATM    6  N2  LIG X 999      44.254 130.281  23.755  1.00  0.00    -0.145 NA
HETATM    7  H4  LIG X 999      44.688 132.328  23.524  1.00  0.00     0.193 HD
HETATM    8  C8  LIG X 999      44.251 129.294  22.833  1.00  0.00     0.203 A 
HETATM    9  O1  LIG X 999      44.590 129.747  21.644  1.00  0.00    -0.253 OA
BRANCH   8  10
HETATM   10  C7  LIG X 999      43.960 127.880  23.143  1.00  0.00     0.032 A 
HETATM   11  C6  LIG X 999      42.657 127.413  23.500  1.00  0.00     0.020 A 
HETATM   12  C1  LIG X 999      41.427 128.209  23.824  1.00  0.00     0.060 A 
HETATM   13  C5  LIG X 999      42.511 126.043  23.638  1.00  0.00     0.019 A 
HETATM   14  N1  LIG X 999      41.464 129.501  23.907  1.00  0.00    -0.299 NA
HETATM   15  C2  LIG X 999      40.158 127.476  24.160  1.00  0.00     0.034 A 
HETATM   16  H1  LIG X 999      40.623 130.063  24.167  1.00  0.00     0.187 HD
HETATM   17  C3  LIG X 999      40.127 126.130  24.243  1.00  0.00     0.033 A 
HETATM   18  C4  LIG X 999      41.370 125.387  23.978  1.00  0.00     0.048 A 
HETATM   19  N7  LIG X 999      41.619 124.056  24.060  1.00  0.00    -0.324 N 
HETATM   20  C13 LIG X 999      42.945 123.909  23.784  1.00  0.00     0.193 A 
HETATM   21  C12 LIG X 999      43.516 125.140  23.512  1.00  0.00     0.032 A 
HETATM   22  O2  LIG X 999      43.619 122.693  23.799  1.00  0.00    -0.171 OA
HETATM   23  C11 LIG X 999      44.809 125.552  23.213  1.00  0.00     0.018 A 
HETATM   24  C10 LIG X 999      45.026 126.935  23.023  1.00  0.00     0.018 A 
BRANCH  19  25
HETATM   25  C14 LIG X 999      40.690 123.006  24.474  1.00  0.00     0.127 C 
HETATM   26  C15 LIG X 999      39.807 122.588  23.304  1.00  0.00     0.027 C 
ENDBRANCH  19  25
ENDBRANCH   8  10
ENDBRANCH   1   4
TORSDOF 3
ENDMDL
