REMARK VINA RESULT:      -7.4      1.574      2.589
REMARK  6 active torsions:
REMARK  status: ('A' for Active; 'I' for Inactive)
REMARK    1  A    between atoms: O1_2  and  C2_3 
REMARK    2  A    between atoms: C2_3  and  C3_5 
REMARK    3  A    between atoms: C6_9  and  N1_10 
REMARK    4  A    between atoms: N1_10  and  C7_11 
REMARK    5  A    between atoms: C7_11  and  N2_13 
REMARK    6  A    between atoms: N2_13  and  C8_14 
ROOT
HETATM    1  C7  LIG X 999      44.318 131.458  19.563  1.00  0.00     0.278 C 
HETATM    2  S2  LIG X 999      42.850 132.006  19.067  1.00  0.00    -0.033 SA
ENDROOT
BRANCH   1   3
HETATM    3  N1  LIG X 999      44.693 131.625  20.942  1.00  0.00     0.012 N 
HETATM    4  H6  LIG X 999      44.020 132.292  21.387  1.00  0.00     0.293 HD
HETATM    5  H7  LIG X 999      45.650 132.038  21.023  1.00  0.00     0.293 HD
BRANCH   3   6
HETATM    6  C6  LIG X 999      44.668 130.358  21.630  1.00  0.00     0.164 A 
HETATM    7  C3  LIG X 999      43.917 130.090  22.786  1.00  0.00     0.114 A 
HETATM    8  S1  LIG X 999      44.254 128.509  23.260  1.00  0.00    -0.094 SA
HETATM    9  C4  LIG X 999      45.335 128.149  22.028  1.00  0.00     0.053 A 
HETATM   10  C5  LIG X 999      45.458 129.269  21.218  1.00  0.00     0.046 A 
BRANCH   7  11
HETATM   11  C2  LIG X 999      43.004 130.987  23.517  1.00  0.00     0.302 C 
HETATM   12  O2  LIG X 999      41.966 130.511  24.051  1.00  0.00    -0.259 OA
BRANCH  11  13
HETATM   13  O1  LIG X 999      43.279 132.353  23.621  1.00  0.00    -0.322 OA
HETATM   14  C1  LIG X 999      44.142 132.891  24.614  1.00  0.00     0.213 C 
ENDBRANCH  11  13
ENDBRANCH   7  11
ENDBRANCH   3   6
ENDBRANCH   1   3
BRANCH   1  15
HETATM   15  N2  LIG X 999      45.027 130.518  18.739  1.00  0.00    -0.327 N 
HETATM   16  H8  LIG X 999      45.225 129.573  19.138  1.00  0.00     0.168 HD
BRANCH  15  17
HETATM   17  C8  LIG X 999      45.523 130.824  17.425  1.00  0.00     0.035 A 
HETATM   18  C9  LIG X 999      45.326 132.090  16.846  1.00  0.00     0.030 A 
HETATM   19  C10 LIG X 999      45.839 132.380  15.579  1.00  0.00     0.014 A 
HETATM   20  C11 LIG X 999      46.569 131.412  14.875  1.00  0.00    -0.026 A 
HETATM   21  C12 LIG X 999      47.090 131.693  13.602  1.00  0.00     0.012 A 
HETATM   22  C16 LIG X 999      46.790 130.141  15.458  1.00  0.00    -0.024 A 
HETATM   23  C13 LIG X 999      47.821 130.720  12.914  1.00  0.00     0.001 A 
HETATM   24  C14 LIG X 999      48.038 129.466  13.489  1.00  0.00     0.001 A 
HETATM   25  C15 LIG X 999      47.527 129.174  14.756  1.00  0.00     0.012 A 
HETATM   26  C17 LIG X 999      46.271 129.861  16.731  1.00  0.00     0.041 A 
ENDBRANCH  15  17
ENDBRANCH   1  15
TORSDOF 6
