REMARK VINA RESULT:      -4.2      2.993      4.698
REMARK  5 active torsions:
REMARK  status: ('A' for Active; 'I' for Inactive)
REMARK    1  A    between atoms: C3_3  and  N1_4 
REMARK    2  A    between atoms: N1_4  and  C6_7 
REMARK    3  A    between atoms: C6_7  and  C7_8 
REMARK    4  A    between atoms: C9_10  and  C10_11 
REMARK    5  A    between atoms: C11_15  and  N4_16 
ROOT
HETATM    1  C1  LIG X 999      47.998 129.599  13.799  1.00  0.00     0.013 C 
HETATM    2  C2  LIG X 999      46.986 130.253  13.841  1.00  0.00    -0.089 C 
HETATM    3  C3  LIG X 999      45.747 131.054  13.891  1.00  0.00     0.329 C 
ENDROOT
BRANCH   3   4
HETATM    4  N1  LIG X 999      45.069 131.022  15.223  1.00  0.00    -0.061 N 
HETATM    5  C4  LIG X 999      45.044 129.615  15.698  1.00  0.00     0.273 C 
HETATM    6  C5  LIG X 999      43.659 131.467  15.075  1.00  0.00     0.273 C 
BRANCH   4   7
HETATM    7  C6  LIG X 999      45.738 131.901  16.236  1.00  0.00     0.275 C 
BRANCH   7   8
HETATM    8  C7  LIG X 999      45.543 131.465  17.676  1.00  0.00    -0.035 C 
HETATM    9  C8  LIG X 999      44.748 132.170  18.509  1.00  0.00     0.001 C 
HETATM   10  C9  LIG X 999      44.717 131.848  19.988  1.00  0.00     0.054 C 
HETATM   11  C12 LIG X 999      43.412 132.362  20.644  1.00  0.00     0.023 C 
HETATM   12  C16 LIG X 999      44.755 130.298  20.142  1.00  0.00     0.028 C 
HETATM   13  C13 LIG X 999      43.325 131.940  22.125  1.00  0.00     0.002 C 
HETATM   14  C14 LIG X 999      43.458 130.418  22.297  1.00  0.00     0.001 C 
HETATM   15  C15 LIG X 999      44.725 129.870  21.619  1.00  0.00     0.010 C 
HETATM   16  C17 LIG X 999      45.909 129.713  19.366  1.00  0.00    -0.020 C 
HETATM   17  C18 LIG X 999      46.226 130.239  18.175  1.00  0.00     0.005 C 
BRANCH  10  18
HETATM   18  C10 LIG X 999      45.924 132.536  20.608  1.00  0.00     0.182 A 
HETATM   19  N2  LIG X 999      47.043 131.889  21.007  1.00  0.00    -0.149 NA
HETATM   20  N3  LIG X 999      47.819 132.814  21.543  1.00  0.00    -0.236 N 
HETATM   21  H13 LIG X 999      48.765 132.644  21.951  1.00  0.00     0.193 HD
HETATM   22  C11 LIG X 999      47.158 133.977  21.466  1.00  0.00     0.301 A 
HETATM   23  O1  LIG X 999      45.988 133.820  20.897  1.00  0.00    -0.257 OA
BRANCH  22  24
HETATM   24  N4  LIG X 999      47.665 135.219  21.951  1.00  0.00    -0.025 NA
HETATM   25  N5  LIG X 999      48.258 135.992  21.198  1.00  0.00    -0.158 NA
HETATM   26  N6  LIG X 999      48.850 136.764  20.445  1.00  0.00     0.068 N 
ENDBRANCH  22  24
ENDBRANCH  10  18
ENDBRANCH   7   8
ENDBRANCH   4   7
ENDBRANCH   3   4
TORSDOF 5
