MODEL 1
REMARK VINA RESULT:      -7.2      0.000      0.000
REMARK  1 active torsions:
REMARK  status: ('A' for Active; 'I' for Inactive)
REMARK    1  A    between atoms: N1_2  and  C1_3 
ROOT
HETATM    1  C1  LIG X 999      43.267 131.787  22.844  1.00  0.00     0.143 C 
HETATM    2  N2  LIG X 999      42.469 132.243  21.849  1.00  0.00    -0.229 NA
HETATM    3  C2  LIG X 999      42.756 132.037  20.538  1.00  0.00     0.070 C 
HETATM    4  C3  LIG X 999      41.843 132.481  19.582  1.00  0.00     0.033 C 
HETATM    5  C4  LIG X 999      42.086 132.286  18.229  1.00  0.00     0.014 C 
HETATM    6  C5  LIG X 999      43.301 131.744  17.802  1.00  0.00    -0.025 C 
HETATM    7  C6  LIG X 999      43.566 131.657  16.425  1.00  0.00     0.012 C 
HETATM    8  C7  LIG X 999      44.817 131.245  15.975  1.00  0.00     0.001 C 
HETATM    9  C8  LIG X 999      45.824 130.956  16.890  1.00  0.00     0.001 C 
HETATM   10  C9  LIG X 999      45.571 131.024  18.263  1.00  0.00     0.013 C 
HETATM   11  C10 LIG X 999      44.281 131.335  18.753  1.00  0.00    -0.013 C 
HETATM   12  C11 LIG X 999      43.950 131.362  20.151  1.00  0.00     0.010 C 
HETATM   13  C12 LIG X 999      44.701 130.735  21.197  1.00  0.00    -0.045 C 
HETATM   14  C13 LIG X 999      45.734 129.656  20.975  1.00  0.00     0.049 C 
HETATM   15  C14 LIG X 999      44.384 131.017  22.536  1.00  0.00     0.059 C 
ENDROOT
BRANCH   1  16
HETATM   16  N1  LIG X 999      42.968 132.031  24.080  1.00  0.00    -0.282 NA
HETATM   17  H1  LIG X 999      42.003 132.318  24.362  1.00  0.00     0.188 HD
ENDBRANCH   1  16
TORSDOF 1
ENDMDL
MODEL 2
REMARK VINA RESULT:      -6.9      0.883      2.750
REMARK  1 active torsions:
REMARK  status: ('A' for Active; 'I' for Inactive)
REMARK    1  A    between atoms: N1_2  and  C1_3 
ROOT
HETATM    1  C1  LIG X 999      43.090 131.371  23.043  1.00  0.00     0.143 C 
HETATM    2  N2  LIG X 999      44.239 130.856  22.546  1.00  0.00    -0.229 NA
HETATM    3  C2  LIG X 999      44.568 130.951  21.232  1.00  0.00     0.070 C 
HETATM    4  C3  LIG X 999      45.803 130.453  20.819  1.00  0.00     0.033 C 
HETATM    5  C4  LIG X 999      46.189 130.535  19.489  1.00  0.00     0.014 C 
HETATM    6  C5  LIG X 999      45.298 131.016  18.524  1.00  0.00    -0.025 C 
HETATM    7  C6  LIG X 999      45.674 130.987  17.171  1.00  0.00     0.012 C 
HETATM    8  C7  LIG X 999      44.760 131.336  16.181  1.00  0.00     0.001 C 
HETATM    9  C8  LIG X 999      43.454 131.673  16.528  1.00  0.00     0.001 C 
HETATM   10  C9  LIG X 999      43.072 131.719  17.871  1.00  0.00     0.013 C 
HETATM   11  C10 LIG X 999      44.004 131.476  18.906  1.00  0.00    -0.013 C 
HETATM   12  C11 LIG X 999      43.680 131.567  20.303  1.00  0.00     0.010 C 
HETATM   13  C12 LIG X 999      42.552 132.258  20.853  1.00  0.00    -0.045 C 
HETATM   14  C13 LIG X 999      41.742 133.293  20.110  1.00  0.00     0.049 C 
HETATM   15  C14 LIG X 999      42.237 132.089  22.211  1.00  0.00     0.059 C 
ENDROOT
BRANCH   1  16
HETATM   16  N1  LIG X 999      42.805 131.232  24.299  1.00  0.00    -0.282 NA
HETATM   17  H1  LIG X 999      42.529 130.306  24.697  1.00  0.00     0.188 HD
ENDBRANCH   1  16
TORSDOF 1
ENDMDL
MODEL 3
REMARK VINA RESULT:      -6.9      2.171      4.784
REMARK  1 active torsions:
REMARK  status: ('A' for Active; 'I' for Inactive)
REMARK    1  A    between atoms: N1_2  and  C1_3 
ROOT
HETATM    1  C1  LIG X 999      44.270 131.349  17.078  1.00  0.00     0.143 C 
HETATM    2  N2  LIG X 999      43.176 131.916  17.639  1.00  0.00    -0.229 NA
HETATM    3  C2  LIG X 999      43.009 131.996  18.984  1.00  0.00     0.070 C 
HETATM    4  C3  LIG X 999      41.884 132.658  19.475  1.00  0.00     0.033 C 
HETATM    5  C4  LIG X 999      41.674 132.775  20.842  1.00  0.00     0.014 C 
HETATM    6  C5  LIG X 999      42.527 132.133  21.744  1.00  0.00    -0.025 C 
HETATM    7  C6  LIG X 999      42.230 132.177  23.116  1.00  0.00     0.012 C 
HETATM    8  C7  LIG X 999      42.986 131.439  24.022  1.00  0.00     0.001 C 
HETATM    9  C8  LIG X 999      44.014 130.620  23.565  1.00  0.00     0.001 C 
HETATM   10  C9  LIG X 999      44.330 130.578  22.204  1.00  0.00     0.013 C 
HETATM   11  C10 LIG X 999      43.652 131.397  21.271  1.00  0.00    -0.013 C 
HETATM   12  C11 LIG X 999      43.974 131.437  19.871  1.00  0.00     0.010 C 
HETATM   13  C12 LIG X 999      45.204 130.994  19.287  1.00  0.00    -0.045 C 
HETATM   14  C13 LIG X 999      46.480 130.761  20.060  1.00  0.00     0.049 C 
HETATM   15  C14 LIG X 999      45.305 130.893  17.889  1.00  0.00     0.059 C 
ENDROOT
BRANCH   1  16
HETATM   16  N1  LIG X 999      44.374 131.271  15.790  1.00  0.00    -0.282 NA
HETATM   17  H1  LIG X 999      45.211 131.643  15.286  1.00  0.00     0.188 HD
ENDBRANCH   1  16
TORSDOF 1
ENDMDL
MODEL 4
REMARK VINA RESULT:      -6.3      2.361      5.458
REMARK  1 active torsions:
REMARK  status: ('A' for Active; 'I' for Inactive)
REMARK    1  A    between atoms: N1_2  and  C1_3 
ROOT
HETATM    1  C1  LIG X 999      44.959 131.516  16.541  1.00  0.00     0.143 C 
HETATM    2  N2  LIG X 999      45.730 131.001  17.528  1.00  0.00    -0.229 NA
HETATM    3  C2  LIG X 999      45.300 130.914  18.813  1.00  0.00     0.070 C 
HETATM    4  C3  LIG X 999      46.134 130.306  19.752  1.00  0.00     0.033 C 
HETATM    5  C4  LIG X 999      45.736 130.184  21.076  1.00  0.00     0.014 C 
HETATM    6  C5  LIG X 999      44.543 130.769  21.511  1.00  0.00    -0.025 C 
HETATM    7  C6  LIG X 999      44.217 130.725  22.876  1.00  0.00     0.012 C 
HETATM    8  C7  LIG X 999      43.104 131.410  23.355  1.00  0.00     0.001 C 
HETATM    9  C8  LIG X 999      42.335 132.179  22.486  1.00  0.00     0.001 C 
HETATM   10  C9  LIG X 999      42.639 132.220  21.124  1.00  0.00     0.013 C 
HETATM   11  C10 LIG X 999      43.697 131.450  20.587  1.00  0.00    -0.013 C 
HETATM   12  C11 LIG X 999      44.017 131.410  19.187  1.00  0.00     0.010 C 
HETATM   13  C12 LIG X 999      43.141 131.794  18.121  1.00  0.00    -0.045 C 
HETATM   14  C13 LIG X 999      41.646 131.949  18.260  1.00  0.00     0.049 C 
HETATM   15  C14 LIG X 999      43.652 131.907  16.817  1.00  0.00     0.059 C 
ENDROOT
BRANCH   1  16
HETATM   16  N1  LIG X 999      45.421 131.604  15.335  1.00  0.00    -0.282 NA
HETATM   17  H1  LIG X 999      45.638 130.752  14.770  1.00  0.00     0.188 HD
ENDBRANCH   1  16
TORSDOF 1
ENDMDL
MODEL 5
REMARK VINA RESULT:      -5.2      3.426      6.205
REMARK  1 active torsions:
REMARK  status: ('A' for Active; 'I' for Inactive)
REMARK    1  A    between atoms: N1_2  and  C1_3 
ROOT
HETATM    1  C1  LIG X 999      46.686 130.729  14.229  1.00  0.00     0.143 C 
HETATM    2  N2  LIG X 999      46.984 130.497  15.529  1.00  0.00    -0.229 NA
HETATM    3  C2  LIG X 999      46.081 130.683  16.525  1.00  0.00     0.070 C 
HETATM    4  C3  LIG X 999      46.453 130.352  17.828  1.00  0.00     0.033 C 
HETATM    5  C4  LIG X 999      45.563 130.515  18.880  1.00  0.00     0.014 C 
HETATM    6  C5  LIG X 999      44.320 131.118  18.665  1.00  0.00    -0.025 C 
HETATM    7  C6  LIG X 999      43.482 131.370  19.763  1.00  0.00     0.012 C 
HETATM    8  C7  LIG X 999      42.300 132.086  19.596  1.00  0.00     0.001 C 
HETATM    9  C8  LIG X 999      41.966 132.592  18.343  1.00  0.00     0.001 C 
HETATM   10  C9  LIG X 999      42.783 132.337  17.239  1.00  0.00     0.013 C 
HETATM   11  C10 LIG X 999      43.934 131.523  17.353  1.00  0.00    -0.013 C 
HETATM   12  C11 LIG X 999      44.777 131.181  16.241  1.00  0.00     0.010 C 
HETATM   13  C12 LIG X 999      44.407 131.263  14.860  1.00  0.00    -0.045 C 
HETATM   14  C13 LIG X 999      42.984 131.364  14.363  1.00  0.00     0.049 C 
HETATM   15  C14 LIG X 999      45.393 131.102  13.873  1.00  0.00     0.059 C 
ENDROOT
BRANCH   1  16
HETATM   16  N1  LIG X 999      47.587 130.564  13.315  1.00  0.00    -0.282 NA
HETATM   17  H1  LIG X 999      47.481 129.841  12.567  1.00  0.00     0.188 HD
ENDBRANCH   1  16
TORSDOF 1
ENDMDL
MODEL 6
REMARK VINA RESULT:      -4.9      6.439      7.888
REMARK  1 active torsions:
REMARK  status: ('A' for Active; 'I' for Inactive)
REMARK    1  A    between atoms: N1_2  and  C1_3 
ROOT
HETATM    1  C1  LIG X 999      39.546 123.427  23.685  1.00  0.00     0.143 C 
HETATM    2  N2  LIG X 999      39.504 124.652  24.259  1.00  0.00    -0.229 NA
HETATM    3  C2  LIG X 999      40.466 125.586  24.047  1.00  0.00     0.070 C 
HETATM    4  C3  LIG X 999      40.307 126.845  24.625  1.00  0.00     0.033 C 
HETATM    5  C4  LIG X 999      41.258 127.837  24.430  1.00  0.00     0.014 C 
HETATM    6  C5  LIG X 999      42.443 127.553  23.746  1.00  0.00    -0.025 C 
HETATM    7  C6  LIG X 999      43.436 128.542  23.656  1.00  0.00     0.012 C 
HETATM    8  C7  LIG X 999      44.676 128.245  23.097  1.00  0.00     0.001 C 
HETATM    9  C8  LIG X 999      44.950 126.952  22.663  1.00  0.00     0.001 C 
HETATM   10  C9  LIG X 999      43.967 125.961  22.733  1.00  0.00     0.013 C 
HETATM   11  C10 LIG X 999      42.663 126.256  23.196  1.00  0.00    -0.013 C 
HETATM   12  C11 LIG X 999      41.599 125.292  23.234  1.00  0.00     0.010 C 
HETATM   13  C12 LIG X 999      41.558 124.067  22.494  1.00  0.00    -0.045 C 
HETATM   14  C13 LIG X 999      42.427 123.765  21.296  1.00  0.00     0.049 C 
HETATM   15  C14 LIG X 999      40.562 123.120  22.785  1.00  0.00     0.059 C 
ENDROOT
BRANCH   1  16
HETATM   16  N1  LIG X 999      38.620 122.558  23.937  1.00  0.00    -0.282 NA
HETATM   17  H1  LIG X 999      38.587 122.043  24.846  1.00  0.00     0.188 HD
ENDBRANCH   1  16
TORSDOF 1
ENDMDL
MODEL 7
REMARK VINA RESULT:      -4.8      6.262      7.789
REMARK  1 active torsions:
REMARK  status: ('A' for Active; 'I' for Inactive)
REMARK    1  A    between atoms: N1_2  and  C1_3 
ROOT
HETATM    1  C1  LIG X 999      40.789 125.179  23.186  1.00  0.00     0.143 C 
HETATM    2  N2  LIG X 999      41.703 126.149  23.426  1.00  0.00    -0.229 NA
HETATM    3  C2  LIG X 999      43.013 126.008  23.100  1.00  0.00     0.070 C 
HETATM    4  C3  LIG X 999      43.871 127.085  23.320  1.00  0.00     0.033 C 
HETATM    5  C4  LIG X 999      45.217 126.994  22.995  1.00  0.00     0.014 C 
HETATM    6  C5  LIG X 999      45.754 125.783  22.548  1.00  0.00    -0.025 C 
HETATM    7  C6  LIG X 999      47.138 125.688  22.329  1.00  0.00     0.012 C 
HETATM    8  C7  LIG X 999      47.716 124.462  22.011  1.00  0.00     0.001 C 
HETATM    9  C8  LIG X 999      46.928 123.317  21.950  1.00  0.00     0.001 C 
HETATM   10  C9  LIG X 999      45.548 123.400  22.151  1.00  0.00     0.013 C 
HETATM   11  C10 LIG X 999      44.914 124.645  22.370  1.00  0.00    -0.013 C 
HETATM   12  C11 LIG X 999      43.494 124.796  22.524  1.00  0.00     0.010 C 
HETATM   13  C12 LIG X 999      42.506 123.843  22.116  1.00  0.00    -0.045 C 
HETATM   14  C13 LIG X 999      42.759 122.716  21.143  1.00  0.00     0.049 C 
HETATM   15  C14 LIG X 999      41.171 124.020  22.517  1.00  0.00     0.059 C 
ENDROOT
BRANCH   1  16
HETATM   16  N1  LIG X 999      39.555 125.346  23.538  1.00  0.00    -0.282 NA
HETATM   17  H1  LIG X 999      38.768 124.941  22.982  1.00  0.00     0.188 HD
ENDBRANCH   1  16
TORSDOF 1
ENDMDL
MODEL 8
REMARK VINA RESULT:      -4.8      5.627      7.241
REMARK  1 active torsions:
REMARK  status: ('A' for Active; 'I' for Inactive)
REMARK    1  A    between atoms: N1_2  and  C1_3 
ROOT
HETATM    1  C1  LIG X 999      43.818 129.218  23.610  1.00  0.00     0.143 C 
HETATM    2  N2  LIG X 999      42.510 129.189  23.961  1.00  0.00    -0.229 NA
HETATM    3  C2  LIG X 999      41.774 128.049  23.922  1.00  0.00     0.070 C 
HETATM    4  C3  LIG X 999      40.453 128.097  24.366  1.00  0.00     0.033 C 
HETATM    5  C4  LIG X 999      39.662 126.957  24.355  1.00  0.00     0.014 C 
HETATM    6  C5  LIG X 999      40.143 125.771  23.793  1.00  0.00    -0.025 C 
HETATM    7  C6  LIG X 999      39.286 124.662  23.696  1.00  0.00     0.012 C 
HETATM    8  C7  LIG X 999      39.695 123.514  23.025  1.00  0.00     0.001 C 
HETATM    9  C8  LIG X 999      40.943 123.477  22.409  1.00  0.00     0.001 C 
HETATM   10  C9  LIG X 999      41.811 124.567  22.509  1.00  0.00     0.013 C 
HETATM   11  C10 LIG X 999      41.470 125.706  23.275  1.00  0.00    -0.013 C 
HETATM   12  C11 LIG X 999      42.347 126.829  23.460  1.00  0.00     0.010 C 
HETATM   13  C12 LIG X 999      43.764 126.821  23.254  1.00  0.00    -0.045 C 
HETATM   14  C13 LIG X 999      44.607 125.571  23.171  1.00  0.00     0.049 C 
HETATM   15  C14 LIG X 999      44.467 128.037  23.266  1.00  0.00     0.059 C 
ENDROOT
BRANCH   1  16
HETATM   16  N1  LIG X 999      44.474 130.334  23.637  1.00  0.00    -0.282 NA
HETATM   17  H1  LIG X 999      44.981 130.690  22.795  1.00  0.00     0.188 HD
ENDBRANCH   1  16
TORSDOF 1
ENDMDL
MODEL 9
REMARK VINA RESULT:      -4.7      6.955      8.206
REMARK  1 active torsions:
REMARK  status: ('A' for Active; 'I' for Inactive)
REMARK    1  A    between atoms: N1_2  and  C1_3 
ROOT
HETATM    1  C1  LIG X 999      40.673 124.874  23.041  1.00  0.00     0.143 C 
HETATM    2  N2  LIG X 999      41.289 123.780  22.534  1.00  0.00    -0.229 NA
HETATM    3  C2  LIG X 999      42.639 123.701  22.410  1.00  0.00     0.070 C 
HETATM    4  C3  LIG X 999      43.193 122.510  21.941  1.00  0.00     0.033 C 
HETATM    5  C4  LIG X 999      44.568 122.375  21.806  1.00  0.00     0.014 C 
HETATM    6  C5  LIG X 999      45.409 123.469  22.030  1.00  0.00    -0.025 C 
HETATM    7  C6  LIG X 999      46.785 123.337  21.782  1.00  0.00     0.012 C 
HETATM    8  C7  LIG X 999      47.624 124.443  21.870  1.00  0.00     0.001 C 
HETATM    9  C8  LIG X 999      47.094 125.696  22.163  1.00  0.00     0.001 C 
HETATM   10  C9  LIG X 999      45.729 125.840  22.426  1.00  0.00     0.013 C 
HETATM   11  C10 LIG X 999      44.867 124.719  22.452  1.00  0.00    -0.013 C 
HETATM   12  C11 LIG X 999      43.469 124.800  22.773  1.00  0.00     0.010 C 
HETATM   13  C12 LIG X 999      42.836 125.883  23.464  1.00  0.00    -0.045 C 
HETATM   14  C13 LIG X 999      43.571 126.921  24.279  1.00  0.00     0.049 C 
HETATM   15  C14 LIG X 999      41.434 125.934  23.525  1.00  0.00     0.059 C 
ENDROOT
BRANCH   1  16
HETATM   16  N1  LIG X 999      39.381 124.916  23.115  1.00  0.00    -0.282 NA
HETATM   17  H1  LIG X 999      38.805 124.044  23.116  1.00  0.00     0.188 HD
ENDBRANCH   1  16
TORSDOF 1
ENDMDL
