REMARK VINA RESULT:      -8.0      3.549      6.946
REMARK  4 active torsions:
REMARK  status: ('A' for Active; 'I' for Inactive)
REMARK    1  A    between atoms: O1_2  and  C1_3 
REMARK    2  A    between atoms: C1_3  and  N1_6 
REMARK    3  A    between atoms: N1_6  and  C4_8 
REMARK    4  A    between atoms: C4_8  and  C5_9 
ROOT
HETATM    1  C5  LIG X 999      44.766 131.112  18.782  1.00  0.00    -0.035 A 
HETATM    2  C6  LIG X 999      43.691 131.719  18.109  1.00  0.00     0.010 A 
HETATM    3  C7  LIG X 999      43.666 131.773  16.714  1.00  0.00     0.013 A 
HETATM    4  C8  LIG X 999      44.720 131.231  15.967  1.00  0.00    -0.026 A 
HETATM    5  C9  LIG X 999      44.704 131.280  14.564  1.00  0.00     0.012 A 
HETATM    6  C10 LIG X 999      45.764 130.739  13.832  1.00  0.00     0.001 A 
HETATM    7  C11 LIG X 999      46.845 130.148  14.490  1.00  0.00     0.001 A 
HETATM    8  C12 LIG X 999      46.873 130.093  15.887  1.00  0.00     0.012 A 
HETATM    9  C13 LIG X 999      45.815 130.631  16.635  1.00  0.00    -0.025 A 
HETATM   10  C14 LIG X 999      45.832 130.581  18.037  1.00  0.00     0.021 A 
ENDROOT
BRANCH   1  11
HETATM   11  C4  LIG X 999      44.805 131.071  20.296  1.00  0.00     0.113 C 
HETATM   12  C15 LIG X 999      45.926 131.979  20.811  1.00  0.00     0.037 C 
BRANCH  11  13
HETATM   13  N1  LIG X 999      43.512 131.478  20.860  1.00  0.00    -0.363 N 
HETATM   14  H6  LIG X 999      42.873 132.061  20.272  1.00  0.00     0.162 HD
BRANCH  13  15
HETATM   15  C1  LIG X 999      43.065 131.089  22.174  1.00  0.00     0.131 C 
HETATM   16  C2  LIG X 999      43.485 129.932  22.699  1.00  0.00     0.024 C 
HETATM   17  C3  LIG X 999      43.058 129.476  24.058  1.00  0.00     0.040 C 
BRANCH  15  18
HETATM   18  O1  LIG X 999      42.198 131.900  22.914  1.00  0.00    -0.347 OA
HETATM   19  H1  LIG X 999      42.486 132.772  23.334  1.00  0.00     0.219 HD
ENDBRANCH  15  18
ENDBRANCH  13  15
ENDBRANCH  11  13
ENDBRANCH   1  11
TORSDOF 4
