REMARK VINA RESULT:      -8.0      0.000      0.000
REMARK  2 active torsions:
REMARK  status: ('A' for Active; 'I' for Inactive)
REMARK    1  A    between atoms: C2_5  and  C3_6 
REMARK    2  A    between atoms: N3_18  and  C13_19 
ROOT
HETATM    1  H1  LIG X 999      42.747 132.202  15.051  1.00  0.00     0.190 HD
HETATM    2  N1  LIG X 999      43.701 131.777  15.056  1.00  0.00    -0.260 NA
HETATM    3  C1  LIG X 999      44.279 131.457  16.169  1.00  0.00     0.268 A 
HETATM    4  O1  LIG X 999      43.732 131.617  17.353  1.00  0.00    -0.257 OA
HETATM    5  C2  LIG X 999      44.612 131.126  18.202  1.00  0.00     0.177 A 
HETATM    6  N2  LIG X 999      45.708 130.677  17.553  1.00  0.00    -0.269 N 
HETATM    7  H9  LIG X 999      46.579 130.281  17.970  1.00  0.00     0.190 HD
HETATM    8  N3  LIG X 999      45.500 130.892  16.264  1.00  0.00    -0.212 N 
ENDROOT
BRANCH   5   9
HETATM    9  C3  LIG X 999      44.437 131.128  19.670  1.00  0.00     0.028 A 
HETATM   10  C4  LIG X 999      45.383 130.430  20.436  1.00  0.00     0.017 A 
HETATM   11  C5  LIG X 999      45.243 130.322  21.819  1.00  0.00     0.002 A 
HETATM   12  C6  LIG X 999      44.159 130.914  22.464  1.00  0.00     0.012 A 
HETATM   13  C7  LIG X 999      43.217 131.649  21.732  1.00  0.00    -0.025 A 
HETATM   14  C8  LIG X 999      42.146 132.269  22.394  1.00  0.00     0.012 A 
HETATM   15  C12 LIG X 999      43.354 131.779  20.322  1.00  0.00    -0.011 A 
HETATM   16  C9  LIG X 999      41.226 133.037  21.679  1.00  0.00     0.001 A 
HETATM   17  C10 LIG X 999      41.374 133.204  20.303  1.00  0.00     0.001 A 
HETATM   18  C11 LIG X 999      42.432 132.590  19.627  1.00  0.00     0.013 A 
ENDBRANCH   5   9
BRANCH   8  19
HETATM   19  C13 LIG X 999      46.415 130.531  15.216  1.00  0.00     0.105 A 
HETATM   20  C14 LIG X 999      46.786 129.189  15.049  1.00  0.00     0.054 A 
HETATM   21  C15 LIG X 999      47.677 128.839  14.032  1.00  0.00     0.122 A 
HETATM   22  N4  LIG X 999      48.191 129.798  13.218  1.00  0.00    -0.230 NA
HETATM   23  C16 LIG X 999      47.863 131.109  13.364  1.00  0.00     0.251 A 
HETATM   24  F1  LIG X 999      48.413 132.034  12.540  1.00  0.00    -0.181 F 
HETATM   25  C17 LIG X 999      46.973 131.503  14.368  1.00  0.00     0.202 A 
HETATM   26  F2  LIG X 999      46.702 132.821  14.539  1.00  0.00    -0.199 F 
ENDBRANCH   8  19
TORSDOF 2
