REMARK VINA RESULT:      -5.5      2.815      6.469
REMARK  6 active torsions:
REMARK  status: ('A' for Active; 'I' for Inactive)
REMARK    1  A    between atoms: S1_2  and  C1_3 
REMARK    2  A    between atoms: C1_3  and  N2_15 
REMARK    3  A    between atoms: N1_4  and  C2_5 
REMARK    4  A    between atoms: N2_15  and  C12_18 
REMARK    5  A    between atoms: C13_19  and  C14_20 
REMARK    6  A    between atoms: C14_20  and  O2_22 
ROOT
HETATM    1  C1  LIG X 999      42.987 130.607  23.766  1.00  0.00     0.266 C 
HETATM    2  N1  LIG X 999      43.044 129.504  24.459  1.00  0.00    -0.219 NA
ENDROOT
BRANCH   1   3
HETATM    3  S1  LIG X 999      43.580 132.117  24.526  1.00  0.00    -0.098 SA
HETATM    4  H1  LIG X 999      44.190 131.408  25.577  1.00  0.00     0.110 HD
ENDBRANCH   1   3
BRANCH   1   5
HETATM    5  N2  LIG X 999      42.506 130.636  22.404  1.00  0.00     0.010 N 
HETATM    6  H9  LIG X 999      41.771 131.374  22.311  1.00  0.00     0.293 HD
HETATM    7  H10 LIG X 999      42.058 129.722  22.194  1.00  0.00     0.293 HD
BRANCH   5   8
HETATM    8  C12 LIG X 999      43.577 130.960  21.489  1.00  0.00     0.164 A 
HETATM    9  C13 LIG X 999      43.436 131.716  20.311  1.00  0.00     0.114 A 
HETATM   10  S2  LIG X 999      44.930 131.749  19.541  1.00  0.00    -0.094 SA
HETATM   11  C16 LIG X 999      45.777 130.858  20.681  1.00  0.00     0.053 A 
HETATM   12  C17 LIG X 999      44.897 130.508  21.694  1.00  0.00     0.046 A 
BRANCH   9  13
HETATM   13  C14 LIG X 999      42.251 132.417  19.783  1.00  0.00     0.302 C 
HETATM   14  O1  LIG X 999      41.628 133.258  20.485  1.00  0.00    -0.259 OA
BRANCH  13  15
HETATM   15  O2  LIG X 999      41.851 132.171  18.466  1.00  0.00    -0.322 OA
HETATM   16  C15 LIG X 999      42.757 131.750  17.453  1.00  0.00     0.213 C 
ENDBRANCH  13  15
ENDBRANCH   9  13
ENDBRANCH   5   8
ENDBRANCH   1   5
BRANCH   2  17
HETATM   17  C2  LIG X 999      42.579 128.226  24.011  1.00  0.00     0.060 A 
HETATM   18  C3  LIG X 999      41.211 127.934  24.054  1.00  0.00     0.032 A 
HETATM   19  C4  LIG X 999      40.741 126.689  23.630  1.00  0.00     0.014 A 
HETATM   20  C5  LIG X 999      41.636 125.731  23.132  1.00  0.00    -0.026 A 
HETATM   21  C6  LIG X 999      41.177 124.476  22.701  1.00  0.00     0.012 A 
HETATM   22  C10 LIG X 999      43.019 126.034  23.059  1.00  0.00    -0.024 A 
HETATM   23  C7  LIG X 999      42.078 123.535  22.194  1.00  0.00     0.001 A 
HETATM   24  C8  LIG X 999      43.441 123.837  22.115  1.00  0.00     0.001 A 
HETATM   25  C9  LIG X 999      43.913 125.080  22.548  1.00  0.00     0.012 A 
HETATM   26  C11 LIG X 999      43.480 127.282  23.499  1.00  0.00     0.044 A 
ENDBRANCH   2  17
TORSDOF 6
