REMARK VINA RESULT:      -5.4      1.320      2.076
REMARK  4 active torsions:
REMARK  status: ('A' for Active; 'I' for Inactive)
REMARK    1  A    between atoms: C4_4  and  N1_5 
REMARK    2  A    between atoms: C7_10  and  S1_11 
REMARK    3  A    between atoms: S1_11  and  C8_12 
REMARK    4  A    between atoms: C8_12  and  C9_13 
ROOT
HETATM    1  N1  LIG X 999      42.956 129.792  23.999  1.00  0.00    -0.071 NA
HETATM    2  N2  LIG X 999      41.906 129.172  24.156  1.00  0.00    -0.162 NA
HETATM    3  N3  LIG X 999      40.862 128.543  24.326  1.00  0.00     0.068 N 
ENDROOT
BRANCH   1   4
HETATM    4  C4  LIG X 999      43.929 129.463  22.988  1.00  0.00     0.108 A 
HETATM    5  C3  LIG X 999      44.639 128.245  22.981  1.00  0.00     0.008 A 
HETATM    6  C2  LIG X 999      45.580 127.982  22.030  1.00  0.00    -0.021 A 
HETATM    7  C15 LIG X 999      44.520 127.071  23.888  1.00  0.00     0.278 C 
HETATM    8  C1  LIG X 999      45.854 128.875  21.002  1.00  0.00     0.018 A 
HETATM    9  C18 LIG X 999      46.185 126.649  22.242  1.00  0.00     0.276 C 
HETATM   10  C6  LIG X 999      45.111 130.069  20.907  1.00  0.00    -0.035 A 
HETATM   11  C5  LIG X 999      44.179 130.391  21.942  1.00  0.00    -0.018 A 
HETATM   12  C7  LIG X 999      45.407 131.038  19.772  1.00  0.00     0.081 C 
HETATM   13  C14 LIG X 999      43.387 131.682  21.905  1.00  0.00     0.042 C 
HETATM   14  C13 LIG X 999      43.973 132.733  20.961  1.00  0.00     0.006 C 
HETATM   15  C12 LIG X 999      44.317 132.105  19.615  1.00  0.00     0.020 C 
HETATM   16  N4  LIG X 999      45.298 125.975  23.233  1.00  0.00    -0.067 N 
HETATM   17  C16 LIG X 999      44.376 125.049  22.533  1.00  0.00     0.272 C 
HETATM   18  C17 LIG X 999      46.091 125.218  24.225  1.00  0.00     0.272 C 
BRANCH  12  19
HETATM   19  S1  LIG X 999      45.542 130.152  18.163  1.00  0.00    -0.147 SA
BRANCH  19  20
HETATM   20  C8  LIG X 999      45.245 131.590  17.082  1.00  0.00     0.168 C 
BRANCH  20  21
HETATM   21  C9  LIG X 999      45.938 131.417  15.803  1.00  0.00    -0.097 C 
HETATM   22  C10 LIG X 999      46.515 131.278  14.752  1.00  0.00    -0.110 C 
HETATM   23  C11 LIG X 999      47.214 131.106  13.478  1.00  0.00     0.112 C 
ENDBRANCH  20  21
ENDBRANCH  19  20
ENDBRANCH  12  19
ENDBRANCH   1   4
TORSDOF 4
