MODEL 1
REMARK VINA RESULT:      -8.3      0.000      0.000
REMARK  7 active torsions:
REMARK  status: ('A' for Active; 'I' for Inactive)
REMARK    1  A    between atoms: C2_2  and  C4_4 
REMARK    2  A    between atoms: C4_4  and  C5_5 
REMARK       I    between atoms: C5_5  and  N1_7 
REMARK    3  A    between atoms: N1_7  and  C6_8 
REMARK    4  A    between atoms: C6_8  and  C7_9 
REMARK    5  A    between atoms: C7_9  and  C8_10 
REMARK    6  A    between atoms: C8_10  and  O2_11 
REMARK    7  A    between atoms: O2_11  and  C9_12 
ROOT
HETATM    1  O2  LIG X 999      44.914 130.669  18.600  1.00  0.00    -0.351 OA
ENDROOT
BRANCH   1   2
HETATM    2  C8  LIG X 999      44.827 131.640  19.645  1.00  0.00     0.177 C 
BRANCH   2   3
HETATM    3  C7  LIG X 999      43.412 131.725  20.241  1.00  0.00     0.048 C 
BRANCH   3   4
HETATM    4  C6  LIG X 999      43.383 131.498  21.759  1.00  0.00     0.154 C 
BRANCH   4   5
HETATM    5  N1  LIG X 999      44.255 130.393  22.148  1.00  0.00    -0.256 NA
HETATM    6  C5  LIG X 999      43.832 129.296  22.965  1.00  0.00     0.238 C 
HETATM    7  O1  LIG X 999      42.627 129.192  23.322  1.00  0.00    -0.272 OA
BRANCH   6   8
HETATM    8  C4  LIG X 999      44.825 128.258  23.389  1.00  0.00     0.108 C 
BRANCH   8   9
HETATM    9  C2  LIG X 999      44.678 126.954  22.579  1.00  0.00    -0.014 C 
HETATM   10  C1  LIG X 999      46.046 126.325  22.272  1.00  0.00     0.010 C 
HETATM   11  C3  LIG X 999      43.800 125.956  23.342  1.00  0.00     0.010 C 
ENDBRANCH   8   9
ENDBRANCH   6   8
ENDBRANCH   4   5
ENDBRANCH   3   4
ENDBRANCH   2   3
ENDBRANCH   1   2
BRANCH   1  12
HETATM   12  C9  LIG X 999      45.518 130.861  17.347  1.00  0.00     0.069 A 
HETATM   13  C10 LIG X 999      45.316 132.086  16.703  1.00  0.00     0.037 A 
HETATM   14  C11 LIG X 999      45.852 132.326  15.436  1.00  0.00     0.015 A 
HETATM   15  C12 LIG X 999      46.610 131.339  14.795  1.00  0.00    -0.026 A 
HETATM   16  C13 LIG X 999      47.143 131.563  13.516  1.00  0.00     0.012 A 
HETATM   17  C17 LIG X 999      46.841 130.102  15.444  1.00  0.00    -0.023 A 
HETATM   18  C14 LIG X 999      47.901 130.570  12.888  1.00  0.00     0.001 A 
HETATM   19  C15 LIG X 999      48.132 129.350  13.529  1.00  0.00     0.001 A 
HETATM   20  C16 LIG X 999      47.606 129.115  14.803  1.00  0.00     0.012 A 
HETATM   21  C18 LIG X 999      46.302 129.873  16.720  1.00  0.00     0.049 A 
ENDBRANCH   1  12
TORSDOF 7
ENDMDL
MODEL 2
REMARK VINA RESULT:      -8.3      1.139      1.903
REMARK  7 active torsions:
REMARK  status: ('A' for Active; 'I' for Inactive)
REMARK    1  A    between atoms: C2_2  and  C4_4 
REMARK    2  A    between atoms: C4_4  and  C5_5 
REMARK       I    between atoms: C5_5  and  N1_7 
REMARK    3  A    between atoms: N1_7  and  C6_8 
REMARK    4  A    between atoms: C6_8  and  C7_9 
REMARK    5  A    between atoms: C7_9  and  C8_10 
REMARK    6  A    between atoms: C8_10  and  O2_11 
REMARK    7  A    between atoms: O2_11  and  C9_12 
ROOT
HETATM    1  O2  LIG X 999      44.368 132.172  17.995  1.00  0.00    -0.351 OA
ENDROOT
BRANCH   1   2
HETATM    2  C8  LIG X 999      43.050 131.827  18.425  1.00  0.00     0.177 C 
BRANCH   2   3
HETATM    3  C7  LIG X 999      42.933 131.785  19.958  1.00  0.00     0.048 C 
BRANCH   3   4
HETATM    4  C6  LIG X 999      44.295 131.721  20.664  1.00  0.00     0.154 C 
BRANCH   4   5
HETATM    5  N1  LIG X 999      44.351 130.610  21.610  1.00  0.00    -0.256 NA
HETATM    6  C5  LIG X 999      44.086 130.743  23.010  1.00  0.00     0.238 C 
HETATM    7  O1  LIG X 999      43.696 131.844  23.485  1.00  0.00    -0.272 OA
BRANCH   6   8
HETATM    8  C4  LIG X 999      44.261 129.562  23.917  1.00  0.00     0.108 C 
BRANCH   8   9
HETATM    9  C2  LIG X 999      43.964 128.232  23.195  1.00  0.00    -0.014 C 
HETATM   10  C1  LIG X 999      45.225 127.363  23.076  1.00  0.00     0.010 C 
HETATM   11  C3  LIG X 999      42.865 127.464  23.938  1.00  0.00     0.010 C 
ENDBRANCH   8   9
ENDBRANCH   6   8
ENDBRANCH   4   5
ENDBRANCH   3   4
ENDBRANCH   2   3
ENDBRANCH   1   2
BRANCH   1  12
HETATM   12  C9  LIG X 999      45.146 131.455  17.070  1.00  0.00     0.069 A 
HETATM   13  C10 LIG X 999      45.453 130.123  17.367  1.00  0.00     0.037 A 
HETATM   14  C11 LIG X 999      46.258 129.367  16.512  1.00  0.00     0.015 A 
HETATM   15  C12 LIG X 999      46.763 129.935  15.336  1.00  0.00    -0.026 A 
HETATM   16  C13 LIG X 999      47.584 129.189  14.476  1.00  0.00     0.012 A 
HETATM   17  C17 LIG X 999      46.441 131.275  15.013  1.00  0.00    -0.023 A 
HETATM   18  C14 LIG X 999      48.079 129.767  13.303  1.00  0.00     0.001 A 
HETATM   19  C15 LIG X 999      47.760 131.089  12.981  1.00  0.00     0.001 A 
HETATM   20  C16 LIG X 999      46.944 131.842  13.831  1.00  0.00     0.012 A 
HETATM   21  C18 LIG X 999      45.627 132.024  15.876  1.00  0.00     0.049 A 
ENDBRANCH   1  12
TORSDOF 7
ENDMDL
MODEL 3
REMARK VINA RESULT:      -8.0      1.966      8.313
REMARK  7 active torsions:
REMARK  status: ('A' for Active; 'I' for Inactive)
REMARK    1  A    between atoms: C2_2  and  C4_4 
REMARK    2  A    between atoms: C4_4  and  C5_5 
REMARK       I    between atoms: C5_5  and  N1_7 
REMARK    3  A    between atoms: N1_7  and  C6_8 
REMARK    4  A    between atoms: C6_8  and  C7_9 
REMARK    5  A    between atoms: C7_9  and  C8_10 
REMARK    6  A    between atoms: C8_10  and  O2_11 
REMARK    7  A    between atoms: O2_11  and  C9_12 
ROOT
HETATM    1  O2  LIG X 999      44.950 131.771  20.948  1.00  0.00    -0.351 OA
ENDROOT
BRANCH   1   2
HETATM    2  C8  LIG X 999      44.912 131.752  19.520  1.00  0.00     0.177 C 
BRANCH   2   3
HETATM    3  C7  LIG X 999      43.473 131.730  18.979  1.00  0.00     0.048 C 
BRANCH   3   4
HETATM    4  C6  LIG X 999      43.406 131.599  17.450  1.00  0.00     0.154 C 
BRANCH   4   5
HETATM    5  N1  LIG X 999      44.731 131.721  16.848  1.00  0.00    -0.256 NA
HETATM    6  C5  LIG X 999      44.965 131.717  15.436  1.00  0.00     0.238 C 
HETATM    7  O1  LIG X 999      43.998 131.693  14.627  1.00  0.00    -0.272 OA
BRANCH   6   8
HETATM    8  C4  LIG X 999      46.370 131.752  14.914  1.00  0.00     0.108 C 
BRANCH   8   9
HETATM    9  C2  LIG X 999      46.618 130.661  13.853  1.00  0.00    -0.014 C 
HETATM   10  C1  LIG X 999      47.658 131.112  12.816  1.00  0.00     0.010 C 
HETATM   11  C3  LIG X 999      47.078 129.364  14.528  1.00  0.00     0.010 C 
ENDBRANCH   8   9
ENDBRANCH   6   8
ENDBRANCH   4   5
ENDBRANCH   3   4
ENDBRANCH   2   3
ENDBRANCH   1   2
BRANCH   1  12
HETATM   12  C9  LIG X 999      44.446 130.774  21.799  1.00  0.00     0.069 A 
HETATM   13  C10 LIG X 999      43.329 131.085  22.581  1.00  0.00     0.037 A 
HETATM   14  C11 LIG X 999      42.804 130.154  23.480  1.00  0.00     0.015 A 
HETATM   15  C12 LIG X 999      43.387 128.887  23.602  1.00  0.00    -0.026 A 
HETATM   16  C13 LIG X 999      42.876 127.947  24.512  1.00  0.00     0.012 A 
HETATM   17  C17 LIG X 999      44.505 128.552  22.800  1.00  0.00    -0.023 A 
HETATM   18  C14 LIG X 999      43.467 126.685  24.622  1.00  0.00     0.001 A 
HETATM   19  C15 LIG X 999      44.569 126.352  23.829  1.00  0.00     0.001 A 
HETATM   20  C16 LIG X 999      45.087 127.280  22.920  1.00  0.00     0.012 A 
HETATM   21  C18 LIG X 999      45.022 129.493  21.897  1.00  0.00     0.049 A 
ENDBRANCH   1  12
TORSDOF 7
ENDMDL
MODEL 4
REMARK VINA RESULT:      -7.0      1.549      2.462
REMARK  7 active torsions:
REMARK  status: ('A' for Active; 'I' for Inactive)
REMARK    1  A    between atoms: C2_2  and  C4_4 
REMARK    2  A    between atoms: C4_4  and  C5_5 
REMARK       I    between atoms: C5_5  and  N1_7 
REMARK    3  A    between atoms: N1_7  and  C6_8 
REMARK    4  A    between atoms: C6_8  and  C7_9 
REMARK    5  A    between atoms: C7_9  and  C8_10 
REMARK    6  A    between atoms: C8_10  and  O2_11 
REMARK    7  A    between atoms: O2_11  and  C9_12 
ROOT
HETATM    1  O2  LIG X 999      43.716 131.766  20.210  1.00  0.00    -0.351 OA
ENDROOT
BRANCH   1   2
HETATM    2  C8  LIG X 999      44.213 131.517  21.526  1.00  0.00     0.177 C 
BRANCH   2   3
HETATM    3  C7  LIG X 999      43.094 131.527  22.580  1.00  0.00     0.048 C 
BRANCH   3   4
HETATM    4  C6  LIG X 999      42.591 130.121  22.938  1.00  0.00     0.154 C 
BRANCH   4   5
HETATM    5  N1  LIG X 999      43.696 129.172  23.043  1.00  0.00    -0.256 NA
HETATM    6  C5  LIG X 999      43.564 127.856  23.590  1.00  0.00     0.238 C 
HETATM    7  O1  LIG X 999      42.433 127.418  23.935  1.00  0.00    -0.272 OA
BRANCH   6   8
HETATM    8  C4  LIG X 999      44.776 126.988  23.742  1.00  0.00     0.108 C 
BRANCH   8   9
HETATM    9  C2  LIG X 999      45.075 126.185  22.461  1.00  0.00    -0.014 C 
HETATM   10  C1  LIG X 999      46.583 125.961  22.275  1.00  0.00     0.010 C 
HETATM   11  C3  LIG X 999      44.345 124.837  22.502  1.00  0.00     0.010 C 
ENDBRANCH   8   9
ENDBRANCH   6   8
ENDBRANCH   4   5
ENDBRANCH   3   4
ENDBRANCH   2   3
ENDBRANCH   1   2
BRANCH   1  12
HETATM   12  C9  LIG X 999      44.333 131.378  19.009  1.00  0.00     0.069 A 
HETATM   13  C10 LIG X 999      45.532 130.661  19.091  1.00  0.00     0.037 A 
HETATM   14  C11 LIG X 999      46.219 130.282  17.936  1.00  0.00     0.015 A 
HETATM   15  C12 LIG X 999      45.708 130.609  16.674  1.00  0.00    -0.026 A 
HETATM   16  C13 LIG X 999      46.397 130.245  15.506  1.00  0.00     0.012 A 
HETATM   17  C17 LIG X 999      44.485 131.315  16.576  1.00  0.00    -0.023 A 
HETATM   18  C14 LIG X 999      45.874 130.575  14.252  1.00  0.00     0.001 A 
HETATM   19  C15 LIG X 999      44.665 131.269  14.155  1.00  0.00     0.001 A 
HETATM   20  C16 LIG X 999      43.971 131.638  15.310  1.00  0.00     0.012 A 
HETATM   21  C18 LIG X 999      43.799 131.687  17.743  1.00  0.00     0.049 A 
ENDBRANCH   1  12
TORSDOF 7
ENDMDL
MODEL 5
REMARK VINA RESULT:      -6.7      2.243      8.322
REMARK  7 active torsions:
REMARK  status: ('A' for Active; 'I' for Inactive)
REMARK    1  A    between atoms: C2_2  and  C4_4 
REMARK    2  A    between atoms: C4_4  and  C5_5 
REMARK       I    between atoms: C5_5  and  N1_7 
REMARK    3  A    between atoms: N1_7  and  C6_8 
REMARK    4  A    between atoms: C6_8  and  C7_9 
REMARK    5  A    between atoms: C7_9  and  C8_10 
REMARK    6  A    between atoms: C8_10  and  O2_11 
REMARK    7  A    between atoms: O2_11  and  C9_12 
ROOT
HETATM    1  O2  LIG X 999      44.986 132.249  20.361  1.00  0.00    -0.351 OA
ENDROOT
BRANCH   1   2
HETATM    2  C8  LIG X 999      45.031 132.194  18.934  1.00  0.00     0.177 C 
BRANCH   2   3
HETATM    3  C7  LIG X 999      43.783 131.521  18.340  1.00  0.00     0.048 C 
BRANCH   3   4
HETATM    4  C6  LIG X 999      43.643 131.741  16.827  1.00  0.00     0.154 C 
BRANCH   4   5
HETATM    5  N1  LIG X 999      44.947 131.763  16.170  1.00  0.00    -0.256 NA
HETATM    6  C5  LIG X 999      45.147 131.440  14.790  1.00  0.00     0.238 C 
HETATM    7  O1  LIG X 999      44.162 131.201  14.040  1.00  0.00    -0.272 OA
BRANCH   6   8
HETATM    8  C4  LIG X 999      46.536 131.399  14.229  1.00  0.00     0.108 C 
BRANCH   8   9
HETATM    9  C2  LIG X 999      47.278 130.106  14.620  1.00  0.00    -0.014 C 
HETATM   10  C1  LIG X 999      46.295 128.969  14.941  1.00  0.00     0.010 C 
HETATM   11  C3  LIG X 999      48.224 129.679  13.493  1.00  0.00     0.010 C 
ENDBRANCH   8   9
ENDBRANCH   6   8
ENDBRANCH   4   5
ENDBRANCH   3   4
ENDBRANCH   2   3
ENDBRANCH   1   2
BRANCH   1  12
HETATM   12  C9  LIG X 999      44.664 131.183  21.217  1.00  0.00     0.069 A 
HETATM   13  C10 LIG X 999      45.436 130.019  21.130  1.00  0.00     0.037 A 
HETATM   14  C11 LIG X 999      45.144 128.906  21.921  1.00  0.00     0.015 A 
HETATM   15  C12 LIG X 999      44.072 128.945  22.822  1.00  0.00    -0.026 A 
HETATM   16  C13 LIG X 999      43.760 127.828  23.613  1.00  0.00     0.012 A 
HETATM   17  C17 LIG X 999      43.296 130.124  22.935  1.00  0.00    -0.023 A 
HETATM   18  C14 LIG X 999      42.689 127.881  24.510  1.00  0.00     0.001 A 
HETATM   19  C15 LIG X 999      41.925 129.045  24.625  1.00  0.00     0.001 A 
HETATM   20  C16 LIG X 999      42.225 130.164  23.842  1.00  0.00     0.012 A 
HETATM   21  C18 LIG X 999      43.602 131.239  22.140  1.00  0.00     0.049 A 
ENDBRANCH   1  12
TORSDOF 7
ENDMDL
MODEL 6
REMARK VINA RESULT:      -6.6      3.831      5.187
REMARK  7 active torsions:
REMARK  status: ('A' for Active; 'I' for Inactive)
REMARK    1  A    between atoms: C2_2  and  C4_4 
REMARK    2  A    between atoms: C4_4  and  C5_5 
REMARK       I    between atoms: C5_5  and  N1_7 
REMARK    3  A    between atoms: N1_7  and  C6_8 
REMARK    4  A    between atoms: C6_8  and  C7_9 
REMARK    5  A    between atoms: C7_9  and  C8_10 
REMARK    6  A    between atoms: C8_10  and  O2_11 
REMARK    7  A    between atoms: O2_11  and  C9_12 
ROOT
HETATM    1  O2  LIG X 999      44.989 130.611  18.739  1.00  0.00    -0.351 OA
ENDROOT
BRANCH   1   2
HETATM    2  C8  LIG X 999      44.909 131.581  19.783  1.00  0.00     0.177 C 
BRANCH   2   3
HETATM    3  C7  LIG X 999      46.203 131.652  20.610  1.00  0.00     0.048 C 
BRANCH   3   4
HETATM    4  C6  LIG X 999      46.319 132.939  21.441  1.00  0.00     0.154 C 
BRANCH   4   5
HETATM    5  N1  LIG X 999      47.715 133.308  21.659  1.00  0.00    -0.256 NA
HETATM    6  C5  LIG X 999      48.170 134.066  22.783  1.00  0.00     0.238 C 
HETATM    7  O1  LIG X 999      47.371 134.384  23.706  1.00  0.00    -0.272 OA
BRANCH   6   8
HETATM    8  C4  LIG X 999      49.609 134.477  22.871  1.00  0.00     0.108 C 
BRANCH   8   9
HETATM    9  C2  LIG X 999      49.818 135.941  22.435  1.00  0.00    -0.014 C 
HETATM   10  C1  LIG X 999      51.311 136.285  22.318  1.00  0.00     0.010 C 
HETATM   11  C3  LIG X 999      49.113 136.198  21.099  1.00  0.00     0.010 C 
ENDBRANCH   8   9
ENDBRANCH   6   8
ENDBRANCH   4   5
ENDBRANCH   3   4
ENDBRANCH   2   3
ENDBRANCH   1   2
BRANCH   1  12
HETATM   12  C9  LIG X 999      45.545 130.815  17.465  1.00  0.00     0.069 A 
HETATM   13  C10 LIG X 999      45.287 132.033  16.827  1.00  0.00     0.037 A 
HETATM   14  C11 LIG X 999      45.773 132.284  15.542  1.00  0.00     0.015 A 
HETATM   15  C12 LIG X 999      46.537 131.317  14.877  1.00  0.00    -0.026 A 
HETATM   16  C13 LIG X 999      47.020 131.552  13.580  1.00  0.00     0.012 A 
HETATM   17  C17 LIG X 999      46.823 130.088  15.520  1.00  0.00    -0.023 A 
HETATM   18  C14 LIG X 999      47.783 130.579  12.928  1.00  0.00     0.001 A 
HETATM   19  C15 LIG X 999      48.069 129.367  13.564  1.00  0.00     0.001 A 
HETATM   20  C16 LIG X 999      47.593 129.121  14.855  1.00  0.00     0.012 A 
HETATM   21  C18 LIG X 999      46.334 129.848  16.814  1.00  0.00     0.049 A 
ENDBRANCH   1  12
TORSDOF 7
ENDMDL
MODEL 7
REMARK VINA RESULT:      -6.5      5.194      8.118
REMARK  7 active torsions:
REMARK  status: ('A' for Active; 'I' for Inactive)
REMARK    1  A    between atoms: C2_2  and  C4_4 
REMARK    2  A    between atoms: C4_4  and  C5_5 
REMARK       I    between atoms: C5_5  and  N1_7 
REMARK    3  A    between atoms: N1_7  and  C6_8 
REMARK    4  A    between atoms: C6_8  and  C7_9 
REMARK    5  A    between atoms: C7_9  and  C8_10 
REMARK    6  A    between atoms: C8_10  and  O2_11 
REMARK    7  A    between atoms: O2_11  and  C9_12 
ROOT
HETATM    1  O2  LIG X 999      47.135 133.058  21.950  1.00  0.00    -0.351 OA
ENDROOT
BRANCH   1   2
HETATM    2  C8  LIG X 999      46.124 132.881  20.956  1.00  0.00     0.177 C 
BRANCH   2   3
HETATM    3  C7  LIG X 999      45.941 131.404  20.572  1.00  0.00     0.048 C 
BRANCH   3   4
HETATM    4  C6  LIG X 999      44.951 131.200  19.415  1.00  0.00     0.154 C 
BRANCH   4   5
HETATM    5  N1  LIG X 999      45.565 131.515  18.128  1.00  0.00    -0.256 NA
HETATM    6  C5  LIG X 999      44.826 131.684  16.915  1.00  0.00     0.238 C 
HETATM    7  O1  LIG X 999      43.565 131.651  16.925  1.00  0.00    -0.272 OA
BRANCH   6   8
HETATM    8  C4  LIG X 999      45.554 131.912  15.625  1.00  0.00     0.108 C 
BRANCH   8   9
HETATM    9  C2  LIG X 999      46.445 130.713  15.245  1.00  0.00    -0.014 C 
HETATM   10  C1  LIG X 999      45.650 129.398  15.249  1.00  0.00     0.010 C 
HETATM   11  C3  LIG X 999      47.076 130.941  13.867  1.00  0.00     0.010 C 
ENDBRANCH   8   9
ENDBRANCH   6   8
ENDBRANCH   4   5
ENDBRANCH   3   4
ENDBRANCH   2   3
ENDBRANCH   1   2
BRANCH   1  12
HETATM   12  C9  LIG X 999      48.075 134.101  21.991  1.00  0.00     0.069 A 
HETATM   13  C10 LIG X 999      49.137 133.990  22.895  1.00  0.00     0.037 A 
HETATM   14  C11 LIG X 999      50.082 135.010  23.017  1.00  0.00     0.015 A 
HETATM   15  C12 LIG X 999      49.982 136.161  22.226  1.00  0.00    -0.026 A 
HETATM   16  C13 LIG X 999      50.919 137.199  22.349  1.00  0.00     0.012 A 
HETATM   17  C17 LIG X 999      48.924 136.277  21.292  1.00  0.00    -0.023 A 
HETATM   18  C14 LIG X 999      50.808 138.341  21.551  1.00  0.00     0.001 A 
HETATM   19  C15 LIG X 999      49.766 138.456  20.626  1.00  0.00     0.001 A 
HETATM   20  C16 LIG X 999      48.827 137.429  20.495  1.00  0.00     0.012 A 
HETATM   21  C18 LIG X 999      47.983 135.243  21.173  1.00  0.00     0.049 A 
ENDBRANCH   1  12
TORSDOF 7
ENDMDL
MODEL 8
REMARK VINA RESULT:      -6.3      1.426      2.137
REMARK  7 active torsions:
REMARK  status: ('A' for Active; 'I' for Inactive)
REMARK    1  A    between atoms: C2_2  and  C4_4 
REMARK    2  A    between atoms: C4_4  and  C5_5 
REMARK       I    between atoms: C5_5  and  N1_7 
REMARK    3  A    between atoms: N1_7  and  C6_8 
REMARK    4  A    between atoms: C6_8  and  C7_9 
REMARK    5  A    between atoms: C7_9  and  C8_10 
REMARK    6  A    between atoms: C8_10  and  O2_11 
REMARK    7  A    between atoms: O2_11  and  C9_12 
ROOT
HETATM    1  O2  LIG X 999      45.173 130.447  18.481  1.00  0.00    -0.351 OA
ENDROOT
BRANCH   1   2
HETATM    2  C8  LIG X 999      45.070 131.377  19.561  1.00  0.00     0.177 C 
BRANCH   2   3
HETATM    3  C7  LIG X 999      45.805 130.888  20.820  1.00  0.00     0.048 C 
BRANCH   3   4
HETATM    4  C6  LIG X 999      45.436 129.450  21.213  1.00  0.00     0.154 C 
BRANCH   4   5
HETATM    5  N1  LIG X 999      44.663 129.419  22.452  1.00  0.00    -0.256 NA
HETATM    6  C5  LIG X 999      44.735 128.357  23.408  1.00  0.00     0.238 C 
HETATM    7  O1  LIG X 999      45.560 127.415  23.256  1.00  0.00    -0.272 OA
BRANCH   6   8
HETATM    8  C4  LIG X 999      43.833 128.369  24.604  1.00  0.00     0.108 C 
BRANCH   8   9
HETATM    9  C2  LIG X 999      42.901 129.598  24.611  1.00  0.00    -0.014 C 
HETATM   10  C1  LIG X 999      43.699 130.909  24.543  1.00  0.00     0.010 C 
HETATM   11  C3  LIG X 999      41.918 129.520  23.437  1.00  0.00     0.010 C 
ENDBRANCH   8   9
ENDBRANCH   6   8
ENDBRANCH   4   5
ENDBRANCH   3   4
ENDBRANCH   2   3
ENDBRANCH   1   2
BRANCH   1  12
HETATM   12  C9  LIG X 999      45.720 130.713  17.215  1.00  0.00     0.069 A 
HETATM   13  C10 LIG X 999      45.420 131.941  16.617  1.00  0.00     0.037 A 
HETATM   14  C11 LIG X 999      45.895 132.251  15.341  1.00  0.00     0.015 A 
HETATM   15  C12 LIG X 999      46.691 131.333  14.645  1.00  0.00    -0.026 A 
HETATM   16  C13 LIG X 999      47.164 131.628  13.356  1.00  0.00     0.012 A 
HETATM   17  C17 LIG X 999      47.021 130.095  15.247  1.00  0.00    -0.023 A 
HETATM   18  C14 LIG X 999      47.960 130.703  12.673  1.00  0.00     0.001 A 
HETATM   19  C15 LIG X 999      48.288 129.482  13.268  1.00  0.00     0.001 A 
HETATM   20  C16 LIG X 999      47.822 129.177  14.550  1.00  0.00     0.012 A 
HETATM   21  C18 LIG X 999      46.542 129.795  16.532  1.00  0.00     0.049 A 
ENDBRANCH   1  12
TORSDOF 7
ENDMDL
MODEL 9
REMARK VINA RESULT:      -6.2      2.657      8.246
REMARK  7 active torsions:
REMARK  status: ('A' for Active; 'I' for Inactive)
REMARK    1  A    between atoms: C2_2  and  C4_4 
REMARK    2  A    between atoms: C4_4  and  C5_5 
REMARK       I    between atoms: C5_5  and  N1_7 
REMARK    3  A    between atoms: N1_7  and  C6_8 
REMARK    4  A    between atoms: C6_8  and  C7_9 
REMARK    5  A    between atoms: C7_9  and  C8_10 
REMARK    6  A    between atoms: C8_10  and  O2_11 
REMARK    7  A    between atoms: O2_11  and  C9_12 
ROOT
HETATM    1  O2  LIG X 999      44.441 131.749  18.414  1.00  0.00    -0.351 OA
ENDROOT
BRANCH   1   2
HETATM    2  C8  LIG X 999      43.348 131.744  17.494  1.00  0.00     0.177 C 
BRANCH   2   3
HETATM    3  C7  LIG X 999      43.820 131.745  16.031  1.00  0.00     0.048 C 
BRANCH   3   4
HETATM    4  C6  LIG X 999      45.274 132.211  15.868  1.00  0.00     0.154 C 
BRANCH   4   5
HETATM    5  N1  LIG X 999      46.026 131.311  14.998  1.00  0.00    -0.256 NA
HETATM    6  C5  LIG X 999      46.370 129.968  15.352  1.00  0.00     0.238 C 
HETATM    7  O1  LIG X 999      45.950 129.463  16.429  1.00  0.00    -0.272 OA
BRANCH   6   8
HETATM    8  C4  LIG X 999      47.226 129.151  14.432  1.00  0.00     0.108 C 
BRANCH   8   9
HETATM    9  C2  LIG X 999      48.256 130.019  13.682  1.00  0.00    -0.014 C 
HETATM   10  C1  LIG X 999      49.226 129.157  12.859  1.00  0.00     0.010 C 
HETATM   11  C3  LIG X 999      47.537 131.018  12.767  1.00  0.00     0.010 C 
ENDBRANCH   8   9
ENDBRANCH   6   8
ENDBRANCH   4   5
ENDBRANCH   3   4
ENDBRANCH   2   3
ENDBRANCH   1   2
BRANCH   1  12
HETATM   12  C9  LIG X 999      44.387 131.353  19.760  1.00  0.00     0.069 A 
HETATM   13  C10 LIG X 999      45.322 130.413  20.204  1.00  0.00     0.037 A 
HETATM   14  C11 LIG X 999      45.297 129.944  21.519  1.00  0.00     0.015 A 
HETATM   15  C12 LIG X 999      44.333 130.419  22.417  1.00  0.00    -0.026 A 
HETATM   16  C13 LIG X 999      44.289 129.945  23.738  1.00  0.00     0.012 A 
HETATM   17  C17 LIG X 999      43.394 131.387  21.987  1.00  0.00    -0.023 A 
HETATM   18  C14 LIG X 999      43.323 130.430  24.625  1.00  0.00     0.001 A 
HETATM   19  C15 LIG X 999      42.397 131.388  24.202  1.00  0.00     0.001 A 
HETATM   20  C16 LIG X 999      42.430 131.866  22.889  1.00  0.00     0.012 A 
HETATM   21  C18 LIG X 999      43.431 131.856  20.665  1.00  0.00     0.049 A 
ENDBRANCH   1  12
TORSDOF 7
ENDMDL
