REMARK VINA RESULT:      -6.1      0.000      0.000
REMARK  3 active torsions:
REMARK  status: ('A' for Active; 'I' for Inactive)
REMARK    1  A    between atoms: C2_2  and  N1_3 
REMARK    2  A    between atoms: C3_6  and  O1_7 
REMARK    3  A    between atoms: O1_7  and  C4_8 
REMARK       I    between atoms: C4_8  and  N4_10 
ROOT
HETATM    1  N1  LIG X 999      43.208 132.001  15.090  1.00  0.00    -0.070 NA
HETATM    2  N2  LIG X 999      43.501 131.314  14.111  1.00  0.00    -0.162 NA
HETATM    3  N3  LIG X 999      43.786 130.630  13.129  1.00  0.00     0.068 N 
ENDROOT
BRANCH   1   4
HETATM    4  C2  LIG X 999      43.774 131.807  16.396  1.00  0.00     0.128 A 
HETATM    5  C1  LIG X 999      42.913 131.928  17.495  1.00  0.00     0.049 A 
HETATM    6  C13 LIG X 999      43.382 131.742  18.801  1.00  0.00    -0.023 A 
HETATM    7  C8  LIG X 999      44.752 131.436  19.018  1.00  0.00    -0.022 A 
HETATM    8  C12 LIG X 999      42.508 131.862  19.900  1.00  0.00     0.021 A 
HETATM    9  C7  LIG X 999      45.616 131.324  17.922  1.00  0.00     0.052 A 
HETATM   10  C9  LIG X 999      45.232 131.260  20.331  1.00  0.00     0.021 A 
HETATM   11  C3  LIG X 999      45.140 131.496  16.607  1.00  0.00     0.113 A 
HETATM   12  C10 LIG X 999      44.333 131.381  21.392  1.00  0.00    -0.024 A 
HETATM   13  C11 LIG X 999      43.020 131.671  21.184  1.00  0.00    -0.024 A 
HETATM   14  C17 LIG X 999      44.617 131.259  22.838  1.00  0.00     0.276 C 
HETATM   15  C14 LIG X 999      42.300 131.771  22.472  1.00  0.00     0.276 C 
HETATM   16  N5  LIG X 999      43.285 131.347  23.518  1.00  0.00    -0.067 N 
HETATM   17  C15 LIG X 999      43.328 132.330  24.625  1.00  0.00     0.272 C 
HETATM   18  C16 LIG X 999      42.906 130.023  24.065  1.00  0.00     0.272 C 
BRANCH  11  19
HETATM   19  O1  LIG X 999      46.020 131.417  15.516  1.00  0.00    -0.259 OA
BRANCH  19  20
HETATM   20  C4  LIG X 999      46.860 130.328  15.241  1.00  0.00     0.367 C 
HETATM   21  O2  LIG X 999      47.002 129.404  16.090  1.00  0.00    -0.238 OA
HETATM   22  N4  LIG X 999      47.526 130.242  13.969  1.00  0.00    -0.336 N 
HETATM   23  C5  LIG X 999      48.353 129.072  13.658  1.00  0.00     0.154 C 
HETATM   24  C6  LIG X 999      47.389 131.340  13.011  1.00  0.00     0.154 C 
ENDBRANCH  19  20
ENDBRANCH  11  19
ENDBRANCH   1   4
TORSDOF 3
