REMARK VINA RESULT:      -8.1      0.000      0.000
REMARK  4 active torsions:
REMARK  status: ('A' for Active; 'I' for Inactive)
REMARK    1  A    between atoms: C3_3  and  O1_4 
REMARK    2  A    between atoms: O1_4  and  C4_5 
REMARK    3  A    between atoms: C4_5  and  O2_6 
REMARK    4  A    between atoms: C5_8  and  C6_9 
ROOT
HETATM    1  C1  LIG X 999      41.618 132.159  19.045  1.00  0.00     0.014 C 
HETATM    2  C2  LIG X 999      42.727 132.148  19.516  1.00  0.00    -0.091 C 
HETATM    3  C3  LIG X 999      44.076 132.136  20.084  1.00  0.00     0.270 C 
ENDROOT
BRANCH   3   4
HETATM    4  O1  LIG X 999      45.002 131.770  19.071  1.00  0.00    -0.319 OA
BRANCH   4   5
HETATM    5  C4  LIG X 999      45.691 130.549  19.049  1.00  0.00     0.179 C 
HETATM    6  C5  LIG X 999      45.933 129.943  17.884  1.00  0.00     0.075 C 
BRANCH   5   7
HETATM    7  O2  LIG X 999      46.126 129.940  20.227  1.00  0.00    -0.341 OA
HETATM    8  H4  LIG X 999      46.050 130.387  21.131  1.00  0.00     0.220 HD
ENDBRANCH   5   7
BRANCH   6   9
HETATM    9  C6  LIG X 999      45.474 130.490  16.588  1.00  0.00    -0.021 A 
HETATM   10  C7  LIG X 999      44.213 131.104  16.556  1.00  0.00     0.012 A 
HETATM   11  C8  LIG X 999      43.734 131.687  15.382  1.00  0.00     0.002 A 
HETATM   12  C9  LIG X 999      44.501 131.658  14.219  1.00  0.00     0.012 A 
HETATM   13  C10 LIG X 999      45.749 131.021  14.211  1.00  0.00    -0.025 A 
HETATM   14  C11 LIG X 999      46.505 130.973  13.028  1.00  0.00     0.012 A 
HETATM   15  C15 LIG X 999      46.245 130.414  15.397  1.00  0.00    -0.015 A 
HETATM   16  C12 LIG X 999      47.734 130.313  13.005  1.00  0.00     0.001 A 
HETATM   17  C13 LIG X 999      48.215 129.687  14.154  1.00  0.00     0.001 A 
HETATM   18  C14 LIG X 999      47.478 129.728  15.340  1.00  0.00     0.013 A 
ENDBRANCH   6   9
ENDBRANCH   4   5
ENDBRANCH   3   4
TORSDOF 4
