REMARK VINA RESULT:      -7.0      1.395      2.701
REMARK  4 active torsions:
REMARK  status: ('A' for Active; 'I' for Inactive)
REMARK    1  A    between atoms: C7_9  and  C8_10 
REMARK    2  A    between atoms: C9_13  and  N4_14 
REMARK    3  A    between atoms: C13_21  and  O2_22 
REMARK    4  A    between atoms: N7_24  and  C14_25 
ROOT
HETATM    1  N4  LIG X 999      47.012 131.022  13.735  1.00  0.00    -0.023 NA
HETATM    2  N5  LIG X 999      47.901 130.251  13.372  1.00  0.00    -0.158 NA
HETATM    3  N6  LIG X 999      48.789 129.482  13.010  1.00  0.00     0.068 N 
ENDROOT
BRANCH   1   4
HETATM    4  C9  LIG X 999      46.184 130.704  14.853  1.00  0.00     0.326 A 
HETATM    5  N3  LIG X 999      45.103 129.911  14.774  1.00  0.00    -0.099 NA
HETATM    6  N2  LIG X 999      44.607 129.856  16.001  1.00  0.00    -0.119 NA
HETATM    7  C8  LIG X 999      45.413 130.611  16.777  1.00  0.00     0.205 A 
HETATM    8  O1  LIG X 999      46.382 131.144  16.071  1.00  0.00    -0.252 OA
BRANCH   7   9
HETATM    9  C7  LIG X 999      45.188 130.848  18.217  1.00  0.00     0.032 A 
HETATM   10  C6  LIG X 999      43.980 131.407  18.735  1.00  0.00     0.020 A 
HETATM   11  C1  LIG X 999      42.836 132.030  17.988  1.00  0.00     0.060 A 
HETATM   12  C5  LIG X 999      43.863 131.451  20.113  1.00  0.00     0.019 A 
HETATM   13  N1  LIG X 999      42.889 132.219  16.710  1.00  0.00    -0.299 NA
HETATM   14  C2  LIG X 999      41.654 132.538  18.768  1.00  0.00     0.034 A 
HETATM   15  H1  LIG X 999      42.115 132.684  16.185  1.00  0.00     0.187 HD
HETATM   16  C3  LIG X 999      41.639 132.505  20.117  1.00  0.00     0.033 A 
HETATM   17  C4  LIG X 999      42.808 131.944  20.815  1.00  0.00     0.048 A 
HETATM   18  N7  LIG X 999      43.065 131.858  22.142  1.00  0.00    -0.327 N 
HETATM   19  C13 LIG X 999      44.312 131.321  22.248  1.00  0.00     0.154 A 
HETATM   20  C12 LIG X 999      44.823 131.053  20.985  1.00  0.00     0.028 A 
HETATM   21  C11 LIG X 999      46.034 130.547  20.526  1.00  0.00     0.018 A 
HETATM   22  C10 LIG X 999      46.210 130.442  19.129  1.00  0.00     0.018 A 
BRANCH  18  23
HETATM   23  C14 LIG X 999      42.229 132.347  23.239  1.00  0.00     0.127 C 
HETATM   24  C15 LIG X 999      41.965 131.229  24.240  1.00  0.00     0.027 C 
ENDBRANCH  18  23
BRANCH  19  25
HETATM   25  O2  LIG X 999      44.965 131.100  23.459  1.00  0.00    -0.345 OA
HETATM   26  H6  LIG X 999      44.667 131.564  24.307  1.00  0.00     0.219 HD
ENDBRANCH  19  25
ENDBRANCH   7   9
ENDBRANCH   1   4
TORSDOF 4
