REMARK VINA RESULT:      -6.4      0.000      0.000
REMARK  3 active torsions:
REMARK  status: ('A' for Active; 'I' for Inactive)
REMARK    1  A    between atoms: C2_2  and  N1_3 
REMARK       I    between atoms: N2_8  and  C7_9 
REMARK    2  A    between atoms: C7_9  and  C8_11 
REMARK    3  A    between atoms: C9_12  and  C10_13 
ROOT
HETATM    1  C8  LIG X 999      43.572 131.732  18.784  1.00  0.00     0.001 C 
HETATM    2  C9  LIG X 999      44.313 131.642  17.838  1.00  0.00    -0.057 C 
ENDROOT
BRANCH   1   3
HETATM    3  C7  LIG X 999      42.677 131.844  19.905  1.00  0.00     0.313 C 
HETATM    4  N2  LIG X 999      43.109 131.492  21.229  1.00  0.00    -0.269 N 
HETATM    5  N1  LIG X 999      44.353 130.872  21.462  1.00  0.00    -0.226 NA
HETATM    6  C6  LIG X 999      42.504 132.107  22.396  1.00  0.00     0.153 C 
HETATM    7  C3  LIG X 999      44.781 131.394  22.773  1.00  0.00     0.119 C 
HETATM    8  C4  LIG X 999      43.546 131.954  23.497  1.00  0.00     0.016 C 
HETATM    9  C5  LIG X 999      43.068 131.032  24.625  1.00  0.00     0.013 C 
HETATM   10  O1  LIG X 999      41.512 132.284  19.714  1.00  0.00    -0.257 OA
BRANCH   5  11
HETATM   11  C2  LIG X 999      44.155 129.407  21.523  1.00  0.00     0.109 C 
HETATM   12  C1  LIG X 999      44.956 128.782  22.661  1.00  0.00     0.023 C 
ENDBRANCH   5  11
ENDBRANCH   1   3
BRANCH   2  13
HETATM   13  C10 LIG X 999      45.189 131.538  16.702  1.00  0.00     0.019 A 
HETATM   14  C11 LIG X 999      45.472 132.670  15.927  1.00  0.00     0.021 A 
HETATM   15  C12 LIG X 999      46.320 132.574  14.821  1.00  0.00     0.013 A 
HETATM   16  C13 LIG X 999      46.894 131.340  14.478  1.00  0.00    -0.026 A 
HETATM   17  C14 LIG X 999      47.748 131.231  13.369  1.00  0.00     0.012 A 
HETATM   18  C18 LIG X 999      46.610 130.194  15.259  1.00  0.00    -0.025 A 
HETATM   19  C15 LIG X 999      48.313 129.997  13.038  1.00  0.00     0.001 A 
HETATM   20  C16 LIG X 999      48.032 128.865  13.809  1.00  0.00     0.001 A 
HETATM   21  C17 LIG X 999      47.184 128.960  14.916  1.00  0.00     0.012 A 
HETATM   22  C19 LIG X 999      45.757 130.301  16.368  1.00  0.00     0.032 A 
ENDBRANCH   2  13
TORSDOF 3
