REMARK VINA RESULT:      -7.2      0.000      0.000
REMARK  4 active torsions:
REMARK  status: ('A' for Active; 'I' for Inactive)
REMARK    1  A    between atoms: C2_2  and  C3_3 
REMARK    2  A    between atoms: C3_3  and  C5_5 
REMARK       I    between atoms: C5_5  and  N1_7 
REMARK    3  A    between atoms: N1_7  and  C6_8 
REMARK    4  A    between atoms: C7_9  and  O2_10 
ROOT
HETATM    1  C6  LIG X 999      44.399 131.645  17.332  1.00  0.00     0.104 A 
HETATM    2  C7  LIG X 999      43.089 131.941  16.898  1.00  0.00     0.098 A 
HETATM    3  C9  LIG X 999      42.055 132.060  17.845  1.00  0.00     0.040 A 
HETATM    4  C10 LIG X 999      42.306 131.854  19.201  1.00  0.00     0.015 A 
HETATM    5  C11 LIG X 999      43.591 131.517  19.639  1.00  0.00    -0.024 A 
HETATM    6  C12 LIG X 999      43.836 131.293  21.003  1.00  0.00     0.012 A 
HETATM    7  C13 LIG X 999      45.118 130.956  21.441  1.00  0.00     0.001 A 
HETATM    8  C14 LIG X 999      46.164 130.843  20.525  1.00  0.00     0.001 A 
HETATM    9  C15 LIG X 999      45.937 131.066  19.165  1.00  0.00     0.014 A 
HETATM   10  C16 LIG X 999      44.648 131.403  18.702  1.00  0.00     0.006 A 
ENDROOT
BRANCH   1  11
HETATM   11  N1  LIG X 999      45.474 131.521  16.386  1.00  0.00    -0.210 NA
HETATM   12  C5  LIG X 999      46.013 130.285  15.901  1.00  0.00     0.247 C 
HETATM   13  O1  LIG X 999      45.409 129.198  16.114  1.00  0.00    -0.271 OA
BRANCH  12  14
HETATM   14  C3  LIG X 999      47.271 130.287  15.073  1.00  0.00     0.076 C 
HETATM   15  C4  LIG X 999      47.416 128.945  14.349  1.00  0.00     0.020 C 
BRANCH  14  16
HETATM   16  C2  LIG X 999      47.281 131.453  14.064  1.00  0.00     0.009 C 
HETATM   17  C1  LIG X 999      47.715 131.008  12.667  1.00  0.00     0.006 C 
ENDBRANCH  14  16
ENDBRANCH  12  14
ENDBRANCH   1  11
BRANCH   2  18
HETATM   18  O2  LIG X 999      42.841 132.080  15.523  1.00  0.00    -0.354 OA
HETATM   19  C8  LIG X 999      43.559 131.403  14.495  1.00  0.00     0.210 C 
ENDBRANCH   2  18
TORSDOF 4
