REMARK VINA RESULT:      -3.9      3.679      5.742
REMARK  3 active torsions:
REMARK  status: ('A' for Active; 'I' for Inactive)
REMARK    1  A    between atoms: N2_3  and  N3_4 
REMARK    2  A    between atoms: C1_5  and  C2_6 
REMARK    3  A    between atoms: C3_8  and  C4_9 
REMARK       I    between atoms: N4_19  and  C14_20 
ROOT
HETATM    1  C2  LIG X 999      44.504 131.485  20.261  1.00  0.00     0.259 C 
HETATM    2  O1  LIG X 999      43.418 130.665  20.656  1.00  0.00    -0.335 OA
HETATM    3  C3  LIG X 999      43.139 131.003  21.993  1.00  0.00     0.280 C 
HETATM    4  N4  LIG X 999      44.281 131.752  22.464  1.00  0.00    -0.247 N 
HETATM    5  C14 LIG X 999      44.434 132.273  23.795  1.00  0.00     0.232 C 
HETATM    6  O2  LIG X 999      43.490 132.176  24.625  1.00  0.00    -0.272 OA
HETATM    7  C15 LIG X 999      45.698 132.962  24.202  1.00  0.00     0.119 C 
HETATM    8  N5  LIG X 999      45.195 132.000  21.445  1.00  0.00    -0.199 NA
HETATM    9  H15 LIG X 999      45.285 133.039  21.345  1.00  0.00     0.150 HD
ENDROOT
BRANCH   3  10
HETATM   10  C4  LIG X 999      42.945 129.734  22.816  1.00  0.00     0.003 A 
HETATM   11  C5  LIG X 999      41.779 129.650  23.603  1.00  0.00     0.012 A 
HETATM   12  C6  LIG X 999      41.526 128.542  24.405  1.00  0.00     0.002 A 
HETATM   13  C7  LIG X 999      42.422 127.480  24.437  1.00  0.00     0.012 A 
HETATM   14  C8  LIG X 999      43.579 127.508  23.650  1.00  0.00    -0.025 A 
HETATM   15  C9  LIG X 999      44.461 126.416  23.684  1.00  0.00     0.012 A 
HETATM   16  C13 LIG X 999      43.855 128.631  22.815  1.00  0.00    -0.015 A 
HETATM   17  C10 LIG X 999      45.608 126.412  22.894  1.00  0.00     0.001 A 
HETATM   18  C11 LIG X 999      45.883 127.492  22.058  1.00  0.00     0.001 A 
HETATM   19  C12 LIG X 999      45.020 128.590  22.013  1.00  0.00     0.013 A 
ENDBRANCH   3  10
BRANCH   1  20
HETATM   20  C1  LIG X 999      45.455 130.703  19.412  1.00  0.00     0.164 C 
HETATM   21  N3  LIG X 999      45.319 130.675  18.125  1.00  0.00    -0.143 NA
BRANCH  21  22
HETATM   22  N2  LIG X 999      46.206 129.945  17.328  1.00  0.00    -0.052 NA
HETATM   23  N1  LIG X 999      45.763 129.227  16.379  1.00  0.00    -0.184 NA
HETATM   24  H1  LIG X 999      46.424 128.682  15.785  1.00  0.00     0.214 HD
ENDBRANCH  21  22
ENDBRANCH   1  20
TORSDOF 3
