MODEL 1
REMARK VINA RESULT:      -7.3      0.000      0.000
REMARK  4 active torsions:
REMARK  status: ('A' for Active; 'I' for Inactive)
REMARK    1  A    between atoms: C1_2  and  C2_4 
REMARK    2  A    between atoms: C8_10  and  C9_11 
REMARK       I    between atoms: C9_11  and  N1_13 
REMARK    3  A    between atoms: N1_13  and  S1_14 
REMARK    4  A    between atoms: S1_14  and  C10_17 
ROOT
HETATM    1  C9  LIG X 999      44.336 129.475  23.770  1.00  0.00     0.259 C 
HETATM    2  O3  LIG X 999      44.303 130.401  24.625  1.00  0.00    -0.270 OA
HETATM    3  N1  LIG X 999      44.234 129.784  22.377  1.00  0.00    -0.122 NA
ENDROOT
BRANCH   3   4
HETATM    4  S1  LIG X 999      44.041 131.404  21.801  1.00  0.00     0.286 S 
HETATM    5  O4  LIG X 999      42.766 131.969  22.360  1.00  0.00    -0.198 OA
HETATM    6  O5  LIG X 999      45.198 132.239  22.272  1.00  0.00    -0.198 OA
BRANCH   4   7
HETATM    7  C10 LIG X 999      44.004 131.412  20.041  1.00  0.00     0.082 A 
HETATM    8  C11 LIG X 999      42.867 131.879  19.371  1.00  0.00     0.026 A 
HETATM    9  C12 LIG X 999      42.827 131.898  17.974  1.00  0.00     0.014 A 
HETATM   10  C13 LIG X 999      43.926 131.444  17.230  1.00  0.00    -0.026 A 
HETATM   11  C14 LIG X 999      43.896 131.458  15.827  1.00  0.00     0.012 A 
HETATM   12  C18 LIG X 999      45.076 130.964  17.904  1.00  0.00    -0.025 A 
HETATM   13  C15 LIG X 999      44.996 130.997  15.099  1.00  0.00     0.001 A 
HETATM   14  C16 LIG X 999      46.131 130.521  15.763  1.00  0.00     0.001 A 
HETATM   15  C17 LIG X 999      46.175 130.505  17.159  1.00  0.00     0.012 A 
HETATM   16  C19 LIG X 999      45.107 130.951  19.307  1.00  0.00     0.037 A 
ENDBRANCH   4   7
ENDBRANCH   3   4
BRANCH   1  17
HETATM   17  C8  LIG X 999      44.533 128.035  24.191  1.00  0.00     0.099 C 
HETATM   18  C2  LIG X 999      43.226 127.194  24.305  1.00  0.00     0.104 C 
HETATM   19  C3  LIG X 999      43.502 126.015  23.337  1.00  0.00     0.001 C 
HETATM   20  C4  LIG X 999      44.559 125.095  23.977  1.00  0.00     0.006 C 
HETATM   21  C7  LIG X 999      44.313 126.670  22.239  1.00  0.00     0.011 C 
HETATM   22  C5  LIG X 999      45.851 125.925  23.865  1.00  0.00     0.006 C 
HETATM   23  C6  LIG X 999      45.369 127.215  23.174  1.00  0.00    -0.000 C 
BRANCH  18  24
HETATM   24  C1  LIG X 999      41.950 127.938  23.971  1.00  0.00     0.178 C 
HETATM   25  O1  LIG X 999      41.159 127.461  23.115  1.00  0.00    -0.648 OA
HETATM   26  O2  LIG X 999      41.613 129.117  24.625  1.00  0.00    -0.648 OA
ENDBRANCH  18  24
ENDBRANCH   1  17
TORSDOF 4
ENDMDL
MODEL 2
REMARK VINA RESULT:      -6.8      0.790      1.610
REMARK  4 active torsions:
REMARK  status: ('A' for Active; 'I' for Inactive)
REMARK    1  A    between atoms: C1_2  and  C2_4 
REMARK    2  A    between atoms: C8_10  and  C9_11 
REMARK       I    between atoms: C9_11  and  N1_13 
REMARK    3  A    between atoms: N1_13  and  S1_14 
REMARK    4  A    between atoms: S1_14  and  C10_17 
ROOT
HETATM    1  C9  LIG X 999      44.301 129.822  23.340  1.00  0.00     0.259 C 
HETATM    2  O3  LIG X 999      43.933 130.861  23.951  1.00  0.00    -0.270 OA
HETATM    3  N1  LIG X 999      44.549 129.871  21.932  1.00  0.00    -0.122 NA
ENDROOT
BRANCH   3   4
HETATM    4  S1  LIG X 999      44.341 131.318  21.006  1.00  0.00     0.286 S 
HETATM    5  O4  LIG X 999      42.901 131.742  21.084  1.00  0.00    -0.198 OA
HETATM    6  O5  LIG X 999      45.205 132.404  21.582  1.00  0.00    -0.198 OA
BRANCH   4   7
HETATM    7  C10 LIG X 999      44.813 131.030  19.335  1.00  0.00     0.082 A 
HETATM    8  C11 LIG X 999      45.968 130.288  19.055  1.00  0.00     0.026 A 
HETATM    9  C12 LIG X 999      46.350 130.046  17.733  1.00  0.00     0.014 A 
HETATM   10  C13 LIG X 999      45.582 130.551  16.673  1.00  0.00    -0.026 A 
HETATM   11  C14 LIG X 999      45.958 130.315  15.341  1.00  0.00     0.012 A 
HETATM   12  C18 LIG X 999      44.418 131.309  16.951  1.00  0.00    -0.025 A 
HETATM   13  C15 LIG X 999      45.187 130.829  14.295  1.00  0.00     0.001 A 
HETATM   14  C16 LIG X 999      44.039 131.579  14.568  1.00  0.00     0.001 A 
HETATM   15  C17 LIG X 999      43.653 131.818  15.890  1.00  0.00     0.012 A 
HETATM   16  C19 LIG X 999      44.042 131.544  18.282  1.00  0.00     0.037 A 
ENDBRANCH   4   7
ENDBRANCH   3   4
BRANCH   1  17
HETATM   17  C8  LIG X 999      44.534 128.525  24.083  1.00  0.00     0.099 C 
HETATM   18  C2  LIG X 999      43.243 127.738  24.461  1.00  0.00     0.104 C 
HETATM   19  C3  LIG X 999      43.485 126.361  23.791  1.00  0.00     0.001 C 
HETATM   20  C4  LIG X 999      44.583 125.619  24.579  1.00  0.00     0.006 C 
HETATM   21  C7  LIG X 999      44.233 126.732  22.529  1.00  0.00     0.011 C 
HETATM   22  C5  LIG X 999      45.858 126.398  24.206  1.00  0.00     0.006 C 
HETATM   23  C6  LIG X 999      45.328 127.485  23.251  1.00  0.00    -0.000 C 
BRANCH  18  24
HETATM   24  C1  LIG X 999      41.944 128.380  24.024  1.00  0.00     0.178 C 
HETATM   25  O1  LIG X 999      41.251 127.831  23.128  1.00  0.00    -0.648 OA
HETATM   26  O2  LIG X 999      41.480 129.545  24.624  1.00  0.00    -0.648 OA
ENDBRANCH  18  24
ENDBRANCH   1  17
TORSDOF 4
ENDMDL
MODEL 3
REMARK VINA RESULT:      -6.5      1.336      1.818
REMARK  4 active torsions:
REMARK  status: ('A' for Active; 'I' for Inactive)
REMARK    1  A    between atoms: C1_2  and  C2_4 
REMARK    2  A    between atoms: C8_10  and  C9_11 
REMARK       I    between atoms: C9_11  and  N1_13 
REMARK    3  A    between atoms: N1_13  and  S1_14 
REMARK    4  A    between atoms: S1_14  and  C10_17 
ROOT
HETATM    1  C9  LIG X 999      43.917 128.696  23.640  1.00  0.00     0.259 C 
HETATM    2  O3  LIG X 999      43.016 128.693  22.758  1.00  0.00    -0.270 OA
HETATM    3  N1  LIG X 999      44.348 129.931  24.218  1.00  0.00    -0.122 NA
ENDROOT
BRANCH   3   4
HETATM    4  S1  LIG X 999      43.692 131.457  23.734  1.00  0.00     0.286 S 
HETATM    5  O4  LIG X 999      42.307 131.593  24.303  1.00  0.00    -0.198 OA
HETATM    6  O5  LIG X 999      44.556 132.562  24.272  1.00  0.00    -0.198 OA
BRANCH   4   7
HETATM    7  C10 LIG X 999      43.652 131.561  21.976  1.00  0.00     0.082 A 
HETATM    8  C11 LIG X 999      42.536 132.114  21.336  1.00  0.00     0.026 A 
HETATM    9  C12 LIG X 999      42.495 132.209  19.943  1.00  0.00     0.014 A 
HETATM   10  C13 LIG X 999      43.571 131.746  19.172  1.00  0.00    -0.026 A 
HETATM   11  C14 LIG X 999      43.540 131.836  17.772  1.00  0.00     0.012 A 
HETATM   12  C18 LIG X 999      44.699 131.179  19.814  1.00  0.00    -0.025 A 
HETATM   13  C15 LIG X 999      44.617 131.365  17.015  1.00  0.00     0.001 A 
HETATM   14  C16 LIG X 999      45.729 130.803  17.649  1.00  0.00     0.001 A 
HETATM   15  C17 LIG X 999      45.775 130.711  19.042  1.00  0.00     0.012 A 
HETATM   16  C19 LIG X 999      44.731 131.090  21.215  1.00  0.00     0.037 A 
ENDBRANCH   4   7
ENDBRANCH   3   4
BRANCH   1  17
HETATM   17  C8  LIG X 999      44.519 127.401  24.139  1.00  0.00     0.099 C 
HETATM   18  C2  LIG X 999      43.500 126.245  24.375  1.00  0.00     0.104 C 
HETATM   19  C3  LIG X 999      44.060 125.118  23.469  1.00  0.00     0.001 C 
HETATM   20  C4  LIG X 999      45.352 124.573  24.109  1.00  0.00     0.006 C 
HETATM   21  C7  LIG X 999      44.619 125.886  22.292  1.00  0.00     0.011 C 
HETATM   22  C5  LIG X 999      46.358 125.715  23.876  1.00  0.00     0.006 C 
HETATM   23  C6  LIG X 999      45.514 126.768  23.133  1.00  0.00    -0.000 C 
BRANCH  18  24
HETATM   24  C1  LIG X 999      42.057 126.583  24.064  1.00  0.00     0.178 C 
HETATM   25  O1  LIG X 999      41.517 127.572  24.625  1.00  0.00    -0.648 OA
HETATM   26  O2  LIG X 999      41.331 125.847  23.136  1.00  0.00    -0.648 OA
ENDBRANCH  18  24
ENDBRANCH   1  17
TORSDOF 4
ENDMDL
MODEL 4
REMARK VINA RESULT:      -6.0      1.734      3.004
REMARK  4 active torsions:
REMARK  status: ('A' for Active; 'I' for Inactive)
REMARK    1  A    between atoms: C1_2  and  C2_4 
REMARK    2  A    between atoms: C8_10  and  C9_11 
REMARK       I    between atoms: C9_11  and  N1_13 
REMARK    3  A    between atoms: N1_13  and  S1_14 
REMARK    4  A    between atoms: S1_14  and  C10_17 
ROOT
HETATM    1  C9  LIG X 999      44.478 130.699  21.610  1.00  0.00     0.259 C 
HETATM    2  O3  LIG X 999      45.421 131.525  21.475  1.00  0.00    -0.270 OA
HETATM    3  N1  LIG X 999      43.390 130.699  20.683  1.00  0.00    -0.122 NA
ENDROOT
BRANCH   3   4
HETATM    4  S1  LIG X 999      43.295 131.820  19.368  1.00  0.00     0.286 S 
HETATM    5  O4  LIG X 999      41.878 131.862  18.867  1.00  0.00    -0.198 OA
HETATM    6  O5  LIG X 999      43.687 133.187  19.853  1.00  0.00    -0.198 OA
BRANCH   4   7
HETATM    7  C10 LIG X 999      44.392 131.328  18.083  1.00  0.00     0.082 A 
HETATM    8  C11 LIG X 999      45.545 130.595  18.393  1.00  0.00     0.026 A 
HETATM    9  C12 LIG X 999      46.421 130.192  17.382  1.00  0.00     0.014 A 
HETATM   10  C13 LIG X 999      46.155 130.523  16.045  1.00  0.00    -0.026 A 
HETATM   11  C14 LIG X 999      47.028 130.124  15.021  1.00  0.00     0.012 A 
HETATM   12  C18 LIG X 999      44.994 131.270  15.727  1.00  0.00    -0.025 A 
HETATM   13  C15 LIG X 999      46.754 130.465  13.694  1.00  0.00     0.001 A 
HETATM   14  C16 LIG X 999      45.610 131.205  13.379  1.00  0.00     0.001 A 
HETATM   15  C17 LIG X 999      44.731 131.606  14.389  1.00  0.00     0.012 A 
HETATM   16  C19 LIG X 999      44.120 131.668  16.750  1.00  0.00     0.037 A 
ENDBRANCH   4   7
ENDBRANCH   3   4
BRANCH   1  17
HETATM   17  C8  LIG X 999      44.502 129.667  22.716  1.00  0.00     0.099 C 
HETATM   18  C2  LIG X 999      43.775 130.087  24.029  1.00  0.00     0.104 C 
HETATM   19  C3  LIG X 999      42.732 128.954  24.209  1.00  0.00     0.001 C 
HETATM   20  C4  LIG X 999      43.474 127.668  24.624  1.00  0.00     0.006 C 
HETATM   21  C7  LIG X 999      42.351 128.623  22.783  1.00  0.00     0.011 C 
HETATM   22  C5  LIG X 999      44.192 127.253  23.327  1.00  0.00     0.006 C 
HETATM   23  C6  LIG X 999      43.770 128.354  22.335  1.00  0.00    -0.000 C 
BRANCH  18  24
HETATM   24  C1  LIG X 999      43.145 131.463  24.005  1.00  0.00     0.178 C 
HETATM   25  O1  LIG X 999      41.958 131.596  23.607  1.00  0.00    -0.648 OA
HETATM   26  O2  LIG X 999      43.839 132.580  24.457  1.00  0.00    -0.648 OA
ENDBRANCH  18  24
ENDBRANCH   1  17
TORSDOF 4
ENDMDL
MODEL 5
REMARK VINA RESULT:      -5.7      2.665      7.734
REMARK  4 active torsions:
REMARK  status: ('A' for Active; 'I' for Inactive)
REMARK    1  A    between atoms: C1_2  and  C2_4 
REMARK    2  A    between atoms: C8_10  and  C9_11 
REMARK       I    between atoms: C9_11  and  N1_13 
REMARK    3  A    between atoms: N1_13  and  S1_14 
REMARK    4  A    between atoms: S1_14  and  C10_17 
ROOT
HETATM    1  C9  LIG X 999      45.544 131.146  17.547  1.00  0.00     0.259 C 
HETATM    2  O3  LIG X 999      45.349 132.388  17.459  1.00  0.00    -0.270 OA
HETATM    3  N1  LIG X 999      45.411 130.489  18.809  1.00  0.00    -0.122 NA
ENDROOT
BRANCH   3   4
HETATM    4  S1  LIG X 999      45.008 131.343  20.259  1.00  0.00     0.286 S 
HETATM    5  O4  LIG X 999      46.200 132.147  20.697  1.00  0.00    -0.198 OA
HETATM    6  O5  LIG X 999      43.861 132.274  19.983  1.00  0.00    -0.198 OA
BRANCH   4   7
HETATM    7  C10 LIG X 999      44.534 130.202  21.513  1.00  0.00     0.082 A 
HETATM    8  C11 LIG X 999      43.511 130.538  22.409  1.00  0.00     0.026 A 
HETATM    9  C12 LIG X 999      43.120 129.639  23.405  1.00  0.00     0.014 A 
HETATM   10  C13 LIG X 999      43.754 128.392  23.519  1.00  0.00    -0.026 A 
HETATM   11  C14 LIG X 999      43.370 127.482  24.516  1.00  0.00     0.012 A 
HETATM   12  C18 LIG X 999      44.794 128.052  22.620  1.00  0.00    -0.025 A 
HETATM   13  C15 LIG X 999      44.014 126.246  24.622  1.00  0.00     0.001 A 
HETATM   14  C16 LIG X 999      45.042 125.910  23.736  1.00  0.00     0.001 A 
HETATM   15  C17 LIG X 999      45.432 126.806  22.737  1.00  0.00     0.012 A 
HETATM   16  C19 LIG X 999      45.177 128.961  21.622  1.00  0.00     0.037 A 
ENDBRANCH   4   7
ENDBRANCH   3   4
BRANCH   1  17
HETATM   17  C8  LIG X 999      45.871 130.322  16.320  1.00  0.00     0.099 C 
HETATM   18  C2  LIG X 999      44.847 130.442  15.151  1.00  0.00     0.104 C 
HETATM   19  C3  LIG X 999      45.739 130.916  13.975  1.00  0.00     0.001 C 
HETATM   20  C4  LIG X 999      46.630 129.739  13.532  1.00  0.00     0.006 C 
HETATM   21  C7  LIG X 999      46.751 131.805  14.663  1.00  0.00     0.011 C 
HETATM   22  C5  LIG X 999      47.641 129.621  14.686  1.00  0.00     0.006 C 
HETATM   23  C6  LIG X 999      47.201 130.745  15.644  1.00  0.00    -0.000 C 
BRANCH  18  24
HETATM   24  C1  LIG X 999      43.679 131.370  15.409  1.00  0.00     0.178 C 
HETATM   25  O1  LIG X 999      43.225 132.072  14.469  1.00  0.00    -0.648 OA
HETATM   26  O2  LIG X 999      43.069 131.427  16.657  1.00  0.00    -0.648 OA
ENDBRANCH  18  24
ENDBRANCH   1  17
TORSDOF 4
ENDMDL
MODEL 6
REMARK VINA RESULT:      -5.1      1.590      2.430
REMARK  4 active torsions:
REMARK  status: ('A' for Active; 'I' for Inactive)
REMARK    1  A    between atoms: C1_2  and  C2_4 
REMARK    2  A    between atoms: C8_10  and  C9_11 
REMARK       I    between atoms: C9_11  and  N1_13 
REMARK    3  A    between atoms: N1_13  and  S1_14 
REMARK    4  A    between atoms: S1_14  and  C10_17 
ROOT
HETATM    1  C9  LIG X 999      44.880 127.936  23.131  1.00  0.00     0.259 C 
HETATM    2  O3  LIG X 999      44.419 127.649  21.993  1.00  0.00    -0.270 OA
HETATM    3  N1  LIG X 999      44.645 129.229  23.692  1.00  0.00    -0.122 NA
ENDROOT
BRANCH   3   4
HETATM    4  S1  LIG X 999      43.757 130.454  22.853  1.00  0.00     0.286 S 
HETATM    5  O4  LIG X 999      42.304 130.071  22.828  1.00  0.00    -0.198 OA
HETATM    6  O5  LIG X 999      43.909 131.762  23.578  1.00  0.00    -0.198 OA
BRANCH   4   7
HETATM    7  C10 LIG X 999      44.380 130.629  21.216  1.00  0.00     0.082 A 
HETATM    8  C11 LIG X 999      45.706 130.274  20.934  1.00  0.00     0.026 A 
HETATM    9  C12 LIG X 999      46.211 130.401  19.637  1.00  0.00     0.014 A 
HETATM   10  C13 LIG X 999      45.395 130.889  18.606  1.00  0.00    -0.026 A 
HETATM   11  C14 LIG X 999      45.892 131.021  17.300  1.00  0.00     0.012 A 
HETATM   12  C18 LIG X 999      44.056 131.255  18.888  1.00  0.00    -0.025 A 
HETATM   13  C15 LIG X 999      45.069 131.514  16.284  1.00  0.00     0.001 A 
HETATM   14  C16 LIG X 999      43.748 131.878  16.562  1.00  0.00     0.001 A 
HETATM   15  C17 LIG X 999      43.240 131.749  17.857  1.00  0.00     0.012 A 
HETATM   16  C19 LIG X 999      43.558 131.123  20.194  1.00  0.00     0.037 A 
ENDBRANCH   4   7
ENDBRANCH   3   4
BRANCH   1  17
HETATM   17  C8  LIG X 999      45.641 126.909  23.942  1.00  0.00     0.099 C 
HETATM   18  C2  LIG X 999      44.789 125.709  24.455  1.00  0.00     0.104 C 
HETATM   19  C3  LIG X 999      45.543 124.490  23.863  1.00  0.00     0.001 C 
HETATM   20  C4  LIG X 999      46.872 124.319  24.625  1.00  0.00     0.006 C 
HETATM   21  C7  LIG X 999      46.035 125.017  22.533  1.00  0.00     0.011 C 
HETATM   22  C5  LIG X 999      47.712 125.505  24.118  1.00  0.00     0.006 C 
HETATM   23  C6  LIG X 999      46.758 126.204  23.130  1.00  0.00    -0.000 C 
BRANCH  18  24
HETATM   24  C1  LIG X 999      43.327 125.740  24.062  1.00  0.00     0.178 C 
HETATM   25  O1  LIG X 999      42.880 124.872  23.269  1.00  0.00    -0.648 OA
HETATM   26  O2  LIG X 999      42.459 126.684  24.598  1.00  0.00    -0.648 OA
ENDBRANCH  18  24
ENDBRANCH   1  17
TORSDOF 4
ENDMDL
MODEL 7
REMARK VINA RESULT:      -5.0      2.939      4.399
REMARK  4 active torsions:
REMARK  status: ('A' for Active; 'I' for Inactive)
REMARK    1  A    between atoms: C1_2  and  C2_4 
REMARK    2  A    between atoms: C8_10  and  C9_11 
REMARK       I    between atoms: C9_11  and  N1_13 
REMARK    3  A    between atoms: N1_13  and  S1_14 
REMARK    4  A    between atoms: S1_14  and  C10_17 
ROOT
HETATM    1  C9  LIG X 999      42.940 131.402  20.600  1.00  0.00     0.259 C 
HETATM    2  O3  LIG X 999      42.299 132.486  20.527  1.00  0.00    -0.270 OA
HETATM    3  N1  LIG X 999      43.788 130.999  19.522  1.00  0.00    -0.122 NA
ENDROOT
BRANCH   3   4
HETATM    4  S1  LIG X 999      43.961 131.940  18.080  1.00  0.00     0.286 S 
HETATM    5  O4  LIG X 999      42.607 132.128  17.456  1.00  0.00    -0.198 OA
HETATM    6  O5  LIG X 999      44.533 133.285  18.431  1.00  0.00    -0.198 OA
BRANCH   4   7
HETATM    7  C10 LIG X 999      45.051 131.126  16.962  1.00  0.00     0.082 A 
HETATM    8  C11 LIG X 999      45.407 129.789  17.186  1.00  0.00     0.026 A 
HETATM    9  C12 LIG X 999      46.265 129.129  16.303  1.00  0.00     0.014 A 
HETATM   10  C13 LIG X 999      46.781 129.801  15.185  1.00  0.00    -0.026 A 
HETATM   11  C14 LIG X 999      47.645 129.148  14.292  1.00  0.00     0.012 A 
HETATM   12  C18 LIG X 999      46.430 131.155  14.959  1.00  0.00    -0.025 A 
HETATM   13  C15 LIG X 999      48.157 129.832  13.186  1.00  0.00     0.001 A 
HETATM   14  C16 LIG X 999      47.813 131.168  12.964  1.00  0.00     0.001 A 
HETATM   15  C17 LIG X 999      46.952 131.829  13.843  1.00  0.00     0.012 A 
HETATM   16  C19 LIG X 999      45.566 131.808  15.851  1.00  0.00     0.037 A 
ENDBRANCH   4   7
ENDBRANCH   3   4
BRANCH   1  17
HETATM   17  C8  LIG X 999      42.865 130.538  21.840  1.00  0.00     0.099 C 
HETATM   18  C2  LIG X 999      44.218 129.905  22.287  1.00  0.00     0.104 C 
HETATM   19  C3  LIG X 999      44.363 130.423  23.741  1.00  0.00     0.001 C 
HETATM   20  C4  LIG X 999      43.333 129.692  24.625  1.00  0.00     0.006 C 
HETATM   21  C7  LIG X 999      43.752 131.805  23.664  1.00  0.00     0.011 C 
HETATM   22  C5  LIG X 999      41.997 130.317  24.183  1.00  0.00     0.006 C 
HETATM   23  C6  LIG X 999      42.432 131.326  23.102  1.00  0.00    -0.000 C 
BRANCH  18  24
HETATM   24  C1  LIG X 999      45.410 130.252  21.421  1.00  0.00     0.178 C 
HETATM   25  O1  LIG X 999      45.914 129.372  20.676  1.00  0.00    -0.648 OA
HETATM   26  O2  LIG X 999      45.933 131.540  21.400  1.00  0.00    -0.648 OA
ENDBRANCH  18  24
ENDBRANCH   1  17
TORSDOF 4
ENDMDL
