REMARK VINA RESULT:      -5.4      7.905      8.944
REMARK  2 active torsions:
REMARK  status: ('A' for Active; 'I' for Inactive)
REMARK    1  A    between atoms: N1_1  and  C1_2 
REMARK    2  A    between atoms: C2_5  and  C3_6 
ROOT
HETATM    1  C3  LIG X 999      50.543 137.284  21.622  1.00  0.00     0.030 A 
HETATM    2  C4  LIG X 999      51.737 137.787  22.169  1.00  0.00     0.017 A 
HETATM    3  C5  LIG X 999      52.347 137.164  23.256  1.00  0.00     0.002 A 
HETATM    4  C6  LIG X 999      51.781 136.024  23.820  1.00  0.00     0.012 A 
HETATM    5  C7  LIG X 999      50.607 135.479  23.285  1.00  0.00    -0.025 A 
HETATM    6  C8  LIG X 999      50.062 134.314  23.848  1.00  0.00     0.012 A 
HETATM    7  C9  LIG X 999      48.915 133.739  23.302  1.00  0.00     0.001 A 
HETATM    8  C10 LIG X 999      48.311 134.311  22.184  1.00  0.00     0.001 A 
HETATM    9  C11 LIG X 999      48.838 135.472  21.612  1.00  0.00     0.013 A 
HETATM   10  C12 LIG X 999      49.980 136.094  22.165  1.00  0.00    -0.011 A 
ENDROOT
BRANCH   1  11
HETATM   11  C2  LIG X 999      49.914 138.055  20.524  1.00  0.00     0.203 A 
HETATM   12  N3  LIG X 999      49.394 139.294  20.677  1.00  0.00    -0.145 NA
HETATM   13  N2  LIG X 999      48.902 139.624  19.494  1.00  0.00    -0.240 N 
HETATM   14  C1  LIG X 999      49.126 138.589  18.673  1.00  0.00     0.240 A 
HETATM   15  H3  LIG X 999      48.429 140.527  19.269  1.00  0.00     0.193 HD
HETATM   16  O1  LIG X 999      49.744 137.616  19.294  1.00  0.00    -0.257 OA
BRANCH  14  17
HETATM   17  N1  LIG X 999      48.740 138.551  17.301  1.00  0.00    -0.364 N 
HETATM   18  H1  LIG X 999      48.658 139.437  16.757  1.00  0.00     0.159 HD
HETATM   19  H2  LIG X 999      48.537 137.640  16.834  1.00  0.00     0.159 HD
ENDBRANCH  14  17
ENDBRANCH   1  11
TORSDOF 2
