REMARK VINA RESULT:      -5.8      1.614      2.121
REMARK  4 active torsions:
REMARK  status: ('A' for Active; 'I' for Inactive)
REMARK    1  A    between atoms: C2_2  and  C3_3 
REMARK    2  A    between atoms: C2_2  and  N1_9 
REMARK    3  A    between atoms: C3_3  and  C4_4 
REMARK       I    between atoms: N1_9  and  C8_10 
REMARK       I    between atoms: C8_10  and  N2_12 
REMARK    4  A    between atoms: N2_12  and  C9_13 
ROOT
HETATM    1  C9  LIG X 999      43.858 127.265  23.775  1.00  0.00     0.056 A 
HETATM    2  C10 LIG X 999      44.888 126.317  23.879  1.00  0.00     0.003 A 
HETATM    3  C11 LIG X 999      44.622 124.989  24.037  1.00  0.00    -0.021 A 
HETATM    4  C12 LIG X 999      43.319 124.506  24.117  1.00  0.00     0.022 A 
HETATM    5  C13 LIG X 999      42.252 125.417  24.015  1.00  0.00    -0.023 A 
HETATM    6  C14 LIG X 999      40.927 124.962  24.083  1.00  0.00     0.012 A 
HETATM    7  C15 LIG X 999      39.867 125.865  23.983  1.00  0.00     0.001 A 
HETATM    8  C16 LIG X 999      40.118 127.228  23.816  1.00  0.00     0.001 A 
HETATM    9  C17 LIG X 999      41.430 127.702  23.745  1.00  0.00     0.014 A 
HETATM   10  C18 LIG X 999      42.516 126.809  23.838  1.00  0.00     0.002 A 
HETATM   11  C19 LIG X 999      45.876 124.207  24.083  1.00  0.00     0.276 C 
HETATM   12  N3  LIG X 999      46.959 125.167  23.707  1.00  0.00    -0.067 N 
HETATM   13  C20 LIG X 999      47.414 124.902  22.321  1.00  0.00     0.272 C 
HETATM   14  C21 LIG X 999      48.114 125.040  24.625  1.00  0.00     0.272 C 
HETATM   15  C22 LIG X 999      46.354 126.533  23.792  1.00  0.00     0.278 C 
ENDROOT
BRANCH   1  16
HETATM   16  N2  LIG X 999      44.164 128.648  23.551  1.00  0.00    -0.307 N 
HETATM   17  C8  LIG X 999      44.721 129.120  22.318  1.00  0.00     0.321 C 
HETATM   18  N1  LIG X 999      44.952 130.524  22.137  1.00  0.00    -0.338 N 
HETATM   19  O1  LIG X 999      45.027 128.301  21.407  1.00  0.00    -0.247 OA
HETATM   20  H10 LIG X 999      44.651 131.177  22.895  1.00  0.00     0.164 HD
HETATM   21  H11 LIG X 999      44.082 129.313  24.352  1.00  0.00     0.170 HD
BRANCH  18  22
HETATM   22  C2  LIG X 999      45.486 131.096  20.896  1.00  0.00     0.086 C 
HETATM   23  C1  LIG X 999      46.328 132.329  21.227  1.00  0.00     0.032 C 
BRANCH  22  24
HETATM   24  C3  LIG X 999      44.335 131.466  19.947  1.00  0.00     0.071 C 
BRANCH  24  25
HETATM   25  C4  LIG X 999      44.689 131.175  18.521  1.00  0.00    -0.016 A 
HETATM   26  C5  LIG X 999      45.845 130.540  18.081  1.00  0.00     0.015 A 
HETATM   27  C6  LIG X 999      45.922 130.448  16.687  1.00  0.00     0.008 A 
HETATM   28  C7  LIG X 999      44.843 131.022  16.028  1.00  0.00     0.050 A 
HETATM   29  S1  LIG X 999      43.789 131.644  17.181  1.00  0.00    -0.106 SA
ENDBRANCH  24  25
ENDBRANCH  22  24
ENDBRANCH  18  22
ENDBRANCH   1  16
TORSDOF 4
