MODEL 1
REMARK VINA RESULT:      -8.6      0.000      0.000
REMARK  3 active torsions:
REMARK  status: ('A' for Active; 'I' for Inactive)
REMARK    1  A    between atoms: C7_9  and  C8_10 
REMARK    2  A    between atoms: C9_14  and  N4_15 
REMARK    3  A    between atoms: N7_24  and  C14_25 
ROOT
HETATM    1  N4  LIG X 999      46.474 130.113  13.811  1.00  0.00    -0.025 NA
HETATM    2  N5  LIG X 999      47.639 129.762  13.620  1.00  0.00    -0.158 NA
HETATM    3  N6  LIG X 999      48.801 129.411  13.431  1.00  0.00     0.068 N 
ENDROOT
BRANCH   1   4
HETATM    4  C9  LIG X 999      46.107 130.796  15.009  1.00  0.00     0.302 A 
HETATM    5  N3  LIG X 999      45.945 132.124  15.095  1.00  0.00    -0.236 N 
HETATM    6  N2  LIG X 999      45.607 132.394  16.345  1.00  0.00    -0.145 NA
HETATM    7  H4  LIG X 999      46.055 132.831  14.335  1.00  0.00     0.193 HD
HETATM    8  C8  LIG X 999      45.586 131.201  16.981  1.00  0.00     0.203 A 
HETATM    9  O1  LIG X 999      45.883 130.216  16.161  1.00  0.00    -0.253 OA
BRANCH   8  10
HETATM   10  C7  LIG X 999      45.215 131.034  18.401  1.00  0.00     0.032 A 
HETATM   11  C6  LIG X 999      44.013 131.568  18.960  1.00  0.00     0.020 A 
HETATM   12  C1  LIG X 999      42.841 132.187  18.257  1.00  0.00     0.060 A 
HETATM   13  C5  LIG X 999      43.864 131.441  20.329  1.00  0.00     0.019 A 
HETATM   14  N1  LIG X 999      42.767 132.211  16.965  1.00  0.00    -0.299 NA
HETATM   15  C2  LIG X 999      41.689 132.692  19.079  1.00  0.00     0.034 A 
HETATM   16  H1  LIG X 999      41.941 132.607  16.464  1.00  0.00     0.187 HD
HETATM   17  C3  LIG X 999      41.662 132.535  20.419  1.00  0.00     0.033 A 
HETATM   18  C4  LIG X 999      42.803 131.866  21.066  1.00  0.00     0.048 A 
HETATM   19  N7  LIG X 999      42.987 131.530  22.366  1.00  0.00    -0.324 N 
HETATM   20  C13 LIG X 999      44.176 130.867  22.414  1.00  0.00     0.193 A 
HETATM   21  C12 LIG X 999      44.740 130.809  21.150  1.00  0.00     0.032 A 
HETATM   22  O2  LIG X 999      44.721 130.316  23.568  1.00  0.00    -0.171 OA
HETATM   23  C11 LIG X 999      45.899 130.233  20.645  1.00  0.00     0.018 A 
HETATM   24  C10 LIG X 999      46.135 130.353  19.257  1.00  0.00     0.018 A 
BRANCH  19  25
HETATM   25  C14 LIG X 999      42.053 131.729  23.474  1.00  0.00     0.127 C 
HETATM   26  C15 LIG X 999      42.744 132.451  24.625  1.00  0.00     0.027 C 
ENDBRANCH  19  25
ENDBRANCH   8  10
ENDBRANCH   1   4
TORSDOF 3
ENDMDL
MODEL 2
REMARK VINA RESULT:      -7.4      1.593      2.845
REMARK  3 active torsions:
REMARK  status: ('A' for Active; 'I' for Inactive)
REMARK    1  A    between atoms: C7_9  and  C8_10 
REMARK    2  A    between atoms: C9_14  and  N4_15 
REMARK    3  A    between atoms: N7_24  and  C14_25 
ROOT
HETATM    1  N4  LIG X 999      46.881 131.377  13.840  1.00  0.00    -0.025 NA
HETATM    2  N5  LIG X 999      47.655 130.446  13.616  1.00  0.00    -0.158 NA
HETATM    3  N6  LIG X 999      48.427 129.516  13.391  1.00  0.00     0.068 N 
ENDROOT
BRANCH   1   4
HETATM    4  C9  LIG X 999      45.741 131.190  14.676  1.00  0.00     0.302 A 
HETATM    5  N3  LIG X 999      44.720 130.371  14.382  1.00  0.00    -0.236 N 
HETATM    6  N2  LIG X 999      43.855 130.454  15.378  1.00  0.00    -0.145 NA
HETATM    7  H4  LIG X 999      44.609 129.769  13.536  1.00  0.00     0.193 HD
HETATM    8  C8  LIG X 999      44.388 131.341  16.249  1.00  0.00     0.203 A 
HETATM    9  O1  LIG X 999      45.550 131.788  15.826  1.00  0.00    -0.253 OA
BRANCH   8  10
HETATM   10  C7  LIG X 999      43.762 131.706  17.536  1.00  0.00     0.032 A 
HETATM   11  C6  LIG X 999      44.303 131.322  18.802  1.00  0.00     0.020 A 
HETATM   12  C1  LIG X 999      45.632 130.696  19.107  1.00  0.00     0.060 A 
HETATM   13  C5  LIG X 999      43.540 131.627  19.914  1.00  0.00     0.019 A 
HETATM   14  N1  LIG X 999      46.520 130.518  18.183  1.00  0.00    -0.299 NA
HETATM   15  C2  LIG X 999      45.968 130.372  20.536  1.00  0.00     0.034 A 
HETATM   16  H1  LIG X 999      47.462 130.116  18.388  1.00  0.00     0.187 HD
HETATM   17  C3  LIG X 999      45.131 130.694  21.543  1.00  0.00     0.033 A 
HETATM   18  C4  LIG X 999      43.863 131.365  21.208  1.00  0.00     0.048 A 
HETATM   19  N7  LIG X 999      42.895 131.847  22.027  1.00  0.00    -0.324 N 
HETATM   20  C13 LIG X 999      41.977 132.434  21.210  1.00  0.00     0.193 A 
HETATM   21  C12 LIG X 999      42.361 132.299  19.885  1.00  0.00     0.032 A 
HETATM   22  O2  LIG X 999      40.834 133.087  21.656  1.00  0.00    -0.171 OA
HETATM   23  C11 LIG X 999      41.819 132.733  18.682  1.00  0.00     0.018 A 
HETATM   24  C10 LIG X 999      42.529 132.427  17.500  1.00  0.00     0.018 A 
BRANCH  19  25
HETATM   25  C14 LIG X 999      42.890 131.846  23.489  1.00  0.00     0.127 C 
HETATM   26  C15 LIG X 999      42.437 130.489  24.015  1.00  0.00     0.027 C 
ENDBRANCH  19  25
ENDBRANCH   8  10
ENDBRANCH   1   4
TORSDOF 3
ENDMDL
MODEL 3
REMARK VINA RESULT:      -6.3      1.930      7.051
REMARK  3 active torsions:
REMARK  status: ('A' for Active; 'I' for Inactive)
REMARK    1  A    between atoms: C7_9  and  C8_10 
REMARK    2  A    between atoms: C9_14  and  N4_15 
REMARK    3  A    between atoms: N7_24  and  C14_25 
ROOT
HETATM    1  N4  LIG X 999      41.821 130.183  24.625  1.00  0.00    -0.025 NA
HETATM    2  N5  LIG X 999      41.381 129.043  24.474  1.00  0.00    -0.158 NA
HETATM    3  N6  LIG X 999      40.943 127.904  24.324  1.00  0.00     0.068 N 
ENDROOT
BRANCH   1   4
HETATM    4  C9  LIG X 999      42.813 130.703  23.742  1.00  0.00     0.302 A 
HETATM    5  N3  LIG X 999      43.758 131.580  24.109  1.00  0.00    -0.236 N 
HETATM    6  N2  LIG X 999      44.492 131.831  23.039  1.00  0.00    -0.145 NA
HETATM    7  H4  LIG X 999      43.910 131.996  25.054  1.00  0.00     0.193 HD
HETATM    8  C8  LIG X 999      43.950 131.092  22.044  1.00  0.00     0.203 A 
HETATM    9  O1  LIG X 999      42.924 130.390  22.475  1.00  0.00    -0.253 OA
BRANCH   8  10
HETATM   10  C7  LIG X 999      44.488 131.042  20.670  1.00  0.00     0.032 A 
HETATM   11  C6  LIG X 999      43.736 131.448  19.524  1.00  0.00     0.020 A 
HETATM   12  C1  LIG X 999      42.415 132.158  19.467  1.00  0.00     0.060 A 
HETATM   13  C5  LIG X 999      44.325 131.225  18.293  1.00  0.00     0.019 A 
HETATM   14  N1  LIG X 999      41.835 132.586  20.542  1.00  0.00    -0.299 NA
HETATM   15  C2  LIG X 999      41.817 132.467  18.124  1.00  0.00     0.034 A 
HETATM   16  H1  LIG X 999      40.933 133.113  20.513  1.00  0.00     0.187 HD
HETATM   17  C3  LIG X 999      42.474 132.179  16.981  1.00  0.00     0.033 A 
HETATM   18  C4  LIG X 999      43.797 131.538  17.080  1.00  0.00     0.048 A 
HETATM   19  N7  LIG X 999      44.678 131.214  16.101  1.00  0.00    -0.324 N 
HETATM   20  C13 LIG X 999      45.772 130.713  16.738  1.00  0.00     0.193 A 
HETATM   21  C12 LIG X 999      45.565 130.707  18.108  1.00  0.00     0.032 A 
HETATM   22  O2  LIG X 999      46.930 130.292  16.095  1.00  0.00    -0.171 OA
HETATM   23  C11 LIG X 999      46.352 130.342  19.194  1.00  0.00     0.018 A 
HETATM   24  C10 LIG X 999      45.801 130.510  20.484  1.00  0.00     0.018 A 
BRANCH  19  25
HETATM   25  C14 LIG X 999      44.537 131.457  14.666  1.00  0.00     0.127 C 
HETATM   26  C15 LIG X 999      45.790 131.000  13.928  1.00  0.00     0.027 C 
ENDBRANCH  19  25
ENDBRANCH   8  10
ENDBRANCH   1   4
TORSDOF 3
ENDMDL
MODEL 4
REMARK VINA RESULT:      -6.0      5.243      7.669
REMARK  3 active torsions:
REMARK  status: ('A' for Active; 'I' for Inactive)
REMARK    1  A    between atoms: C7_9  and  C8_10 
REMARK    2  A    between atoms: C9_14  and  N4_15 
REMARK    3  A    between atoms: N7_24  and  C14_25 
ROOT
HETATM    1  N4  LIG X 999      45.261 131.760  21.234  1.00  0.00    -0.025 NA
HETATM    2  N5  LIG X 999      45.098 131.456  20.052  1.00  0.00    -0.158 NA
HETATM    3  N6  LIG X 999      44.934 131.153  18.872  1.00  0.00     0.068 N 
ENDROOT
BRANCH   1   4
HETATM    4  C9  LIG X 999      44.589 131.044  22.268  1.00  0.00     0.302 A 
HETATM    5  N3  LIG X 999      44.590 131.411  23.558  1.00  0.00    -0.236 N 
HETATM    6  N2  LIG X 999      43.870 130.520  24.217  1.00  0.00    -0.145 NA
HETATM    7  H4  LIG X 999      45.057 132.242  23.984  1.00  0.00     0.193 HD
HETATM    8  C8  LIG X 999      43.462 129.625  23.289  1.00  0.00     0.203 A 
HETATM    9  O1  LIG X 999      43.893 129.948  22.089  1.00  0.00    -0.253 OA
BRANCH   8  10
HETATM   10  C7  LIG X 999      42.592 128.470  23.589  1.00  0.00     0.032 A 
HETATM   11  C6  LIG X 999      42.973 127.118  23.321  1.00  0.00     0.020 A 
HETATM   12  C1  LIG X 999      44.311 126.581  22.907  1.00  0.00     0.060 A 
HETATM   13  C5  LIG X 999      42.006 126.153  23.537  1.00  0.00     0.019 A 
HETATM   14  N1  LIG X 999      45.352 127.347  22.839  1.00  0.00    -0.299 NA
HETATM   15  C2  LIG X 999      44.456 125.104  22.671  1.00  0.00     0.034 A 
HETATM   16  H1  LIG X 999      46.297 126.979  22.586  1.00  0.00     0.187 HD
HETATM   17  C3  LIG X 999      43.431 124.255  22.890  1.00  0.00     0.033 A 
HETATM   18  C4  LIG X 999      42.151 124.813  23.356  1.00  0.00     0.048 A 
HETATM   19  N7  LIG X 999      41.006 124.179  23.711  1.00  0.00    -0.324 N 
HETATM   20  C13 LIG X 999      40.156 125.155  24.135  1.00  0.00     0.193 A 
HETATM   21  C12 LIG X 999      40.763 126.396  24.026  1.00  0.00     0.032 A 
HETATM   22  O2  LIG X 999      38.876 124.923  24.622  1.00  0.00    -0.171 OA
HETATM   23  C11 LIG X 999      40.365 127.688  24.345  1.00  0.00     0.018 A 
HETATM   24  C10 LIG X 999      41.291 128.730  24.119  1.00  0.00     0.018 A 
BRANCH  19  25
HETATM   25  C14 LIG X 999      40.766 122.737  23.744  1.00  0.00     0.127 C 
HETATM   26  C15 LIG X 999      39.488 122.396  22.988  1.00  0.00     0.027 C 
ENDBRANCH  19  25
ENDBRANCH   8  10
ENDBRANCH   1   4
TORSDOF 3
ENDMDL
MODEL 5
REMARK VINA RESULT:      -5.8      6.946      8.202
REMARK  3 active torsions:
REMARK  status: ('A' for Active; 'I' for Inactive)
REMARK    1  A    between atoms: C7_9  and  C8_10 
REMARK    2  A    between atoms: C9_14  and  N4_15 
REMARK    3  A    between atoms: N7_24  and  C14_25 
ROOT
HETATM    1  N4  LIG X 999      49.124 123.097  19.814  1.00  0.00    -0.025 NA
HETATM    2  N5  LIG X 999      50.063 123.491  19.122  1.00  0.00    -0.158 NA
HETATM    3  N6  LIG X 999      51.001 123.885  18.433  1.00  0.00     0.068 N 
ENDROOT
BRANCH   1   4
HETATM    4  C9  LIG X 999      48.541 123.946  20.801  1.00  0.00     0.302 A 
HETATM    5  N3  LIG X 999      49.247 124.712  21.644  1.00  0.00    -0.236 N 
HETATM    6  N2  LIG X 999      48.379 125.354  22.406  1.00  0.00    -0.145 NA
HETATM    7  H4  LIG X 999      50.286 124.806  21.703  1.00  0.00     0.193 HD
HETATM    8  C8  LIG X 999      47.159 124.939  21.998  1.00  0.00     0.203 A 
HETATM    9  O1  LIG X 999      47.254 124.081  21.005  1.00  0.00    -0.253 OA
BRANCH   8  10
HETATM   10  C7  LIG X 999      45.889 125.439  22.561  1.00  0.00     0.032 A 
HETATM   11  C6  LIG X 999      44.805 124.579  22.922  1.00  0.00     0.020 A 
HETATM   12  C1  LIG X 999      44.780 123.081  23.007  1.00  0.00     0.060 A 
HETATM   13  C5  LIG X 999      43.634 125.200  23.317  1.00  0.00     0.019 A 
HETATM   14  N1  LIG X 999      45.853 122.379  22.837  1.00  0.00    -0.299 NA
HETATM   15  C2  LIG X 999      43.499 122.402  23.403  1.00  0.00     0.034 A 
HETATM   16  H1  LIG X 999      45.856 121.338  22.929  1.00  0.00     0.187 HD
HETATM   17  C3  LIG X 999      42.405 123.112  23.745  1.00  0.00     0.033 A 
HETATM   18  C4  LIG X 999      42.488 124.582  23.709  1.00  0.00     0.048 A 
HETATM   19  N7  LIG X 999      41.568 125.512  24.066  1.00  0.00    -0.324 N 
HETATM   20  C13 LIG X 999      42.179 126.719  23.906  1.00  0.00     0.193 A 
HETATM   21  C12 LIG X 999      43.469 126.542  23.432  1.00  0.00     0.032 A 
HETATM   22  O2  LIG X 999      41.588 127.942  24.200  1.00  0.00    -0.171 OA
HETATM   23  C11 LIG X 999      44.508 127.415  23.138  1.00  0.00     0.018 A 
HETATM   24  C10 LIG X 999      45.726 126.852  22.695  1.00  0.00     0.018 A 
BRANCH  19  25
HETATM   25  C14 LIG X 999      40.236 125.273  24.619  1.00  0.00     0.127 C 
HETATM   26  C15 LIG X 999      39.365 124.542  23.604  1.00  0.00     0.027 C 
ENDBRANCH  19  25
ENDBRANCH   8  10
ENDBRANCH   1   4
TORSDOF 3
ENDMDL
