REMARK VINA RESULT:      -7.0      1.471      5.001
REMARK  3 active torsions:
REMARK  status: ('A' for Active; 'I' for Inactive)
REMARK    1  A    between atoms: C3_3  and  O1_4 
REMARK    2  A    between atoms: O1_4  and  C4_5 
REMARK    3  A    between atoms: C5_6  and  C6_7 
ROOT
HETATM    1  C1  LIG X 999      44.964 130.336  21.579  1.00  0.00     0.014 C 
HETATM    2  C2  LIG X 999      45.468 130.628  20.524  1.00  0.00    -0.091 C 
HETATM    3  C3  LIG X 999      46.079 130.982  19.243  1.00  0.00     0.268 C 
ENDROOT
BRANCH   3   4
HETATM    4  O1  LIG X 999      45.541 130.152  18.221  1.00  0.00    -0.338 OA
BRANCH   4   5
HETATM    5  C4  LIG X 999      45.093 130.690  17.010  1.00  0.00     0.094 A 
HETATM    6  C5  LIG X 999      43.882 131.414  16.968  1.00  0.00     0.036 A 
HETATM    7  C7  LIG X 999      43.431 131.933  15.742  1.00  0.00     0.018 A 
HETATM    8  C8  LIG X 999      44.170 131.748  14.574  1.00  0.00     0.013 A 
HETATM    9  C9  LIG X 999      45.381 131.046  14.608  1.00  0.00    -0.023 A 
HETATM   10  C10 LIG X 999      46.130 130.868  13.434  1.00  0.00     0.012 A 
HETATM   11  C14 LIG X 999      45.853 130.515  15.834  1.00  0.00     0.009 A 
HETATM   12  C11 LIG X 999      47.341 130.174  13.471  1.00  0.00     0.001 A 
HETATM   13  C12 LIG X 999      47.814 129.654  14.677  1.00  0.00     0.001 A 
HETATM   14  C13 LIG X 999      47.079 129.821  15.853  1.00  0.00     0.015 A 
BRANCH   6  15
HETATM   15  C6  LIG X 999      43.097 131.634  18.201  1.00  0.00     0.272 C 
HETATM   16  O2  LIG X 999      42.012 132.274  18.176  1.00  0.00    -0.301 OA
ENDBRANCH   6  15
ENDBRANCH   4   5
ENDBRANCH   3   4
TORSDOF 3
