REMARK VINA RESULT:      -5.5      1.774      2.358
REMARK  3 active torsions:
REMARK  status: ('A' for Active; 'I' for Inactive)
REMARK    1  A    between atoms: C2_2  and  N1_3 
REMARK       I    between atoms: N2_8  and  C7_9 
REMARK    2  A    between atoms: C7_9  and  C8_11 
REMARK    3  A    between atoms: C9_12  and  C10_13 
ROOT
HETATM    1  C8  LIG X 999      45.490 129.877  19.712  1.00  0.00     0.001 C 
HETATM    2  C9  LIG X 999      45.722 130.157  18.563  1.00  0.00    -0.057 C 
ENDROOT
BRANCH   1   3
HETATM    3  C7  LIG X 999      45.213 129.557  21.087  1.00  0.00     0.313 C 
HETATM    4  N2  LIG X 999      44.446 130.450  21.910  1.00  0.00    -0.269 N 
HETATM    5  N1  LIG X 999      44.079 131.736  21.466  1.00  0.00    -0.226 NA
HETATM    6  C6  LIG X 999      43.676 129.948  23.034  1.00  0.00     0.153 C 
HETATM    7  C3  LIG X 999      42.765 131.976  22.091  1.00  0.00     0.119 C 
HETATM    8  C4  LIG X 999      42.606 131.005  23.272  1.00  0.00     0.016 C 
HETATM    9  C5  LIG X 999      42.774 131.707  24.625  1.00  0.00     0.013 C 
HETATM   10  O1  LIG X 999      45.631 128.463  21.555  1.00  0.00    -0.257 OA
BRANCH   5  11
HETATM   11  C2  LIG X 999      45.076 132.714  21.954  1.00  0.00     0.109 C 
HETATM   12  C1  LIG X 999      46.297 132.770  21.042  1.00  0.00     0.023 C 
ENDBRANCH   5  11
ENDBRANCH   1   3
BRANCH   2  13
HETATM   13  C10 LIG X 999      45.998 130.502  17.194  1.00  0.00     0.019 A 
HETATM   14  C11 LIG X 999      45.377 131.614  16.612  1.00  0.00     0.021 A 
HETATM   15  C12 LIG X 999      45.640 131.953  15.282  1.00  0.00     0.013 A 
HETATM   16  C13 LIG X 999      46.528 131.179  14.520  1.00  0.00    -0.026 A 
HETATM   17  C14 LIG X 999      46.800 131.509  13.183  1.00  0.00     0.012 A 
HETATM   18  C18 LIG X 999      47.157 130.053  15.106  1.00  0.00    -0.025 A 
HETATM   19  C15 LIG X 999      47.686 130.729  12.435  1.00  0.00     0.001 A 
HETATM   20  C16 LIG X 999      48.306 129.618  13.012  1.00  0.00     0.001 A 
HETATM   21  C17 LIG X 999      48.045 129.278  14.343  1.00  0.00     0.012 A 
HETATM   22  C19 LIG X 999      46.886 129.722  16.442  1.00  0.00     0.032 A 
ENDBRANCH   2  13
TORSDOF 3
