REMARK VINA RESULT:      -5.2      7.203     10.009
REMARK  3 active torsions:
REMARK  status: ('A' for Active; 'I' for Inactive)
REMARK    1  A    between atoms: C2_2  and  N1_3 
REMARK    2  A    between atoms: C3_6  and  O1_7 
REMARK    3  A    between atoms: O1_7  and  C4_8 
REMARK       I    between atoms: C4_8  and  N4_10 
ROOT
HETATM    1  N1  LIG X 999      42.766 128.749  23.675  1.00  0.00    -0.070 NA
HETATM    2  N2  LIG X 999      43.061 129.704  22.954  1.00  0.00    -0.162 NA
HETATM    3  N3  LIG X 999      43.348 130.661  22.237  1.00  0.00     0.068 N 
ENDROOT
BRANCH   1   4
HETATM    4  C2  LIG X 999      43.368 127.450  23.561  1.00  0.00     0.128 A 
HETATM    5  C1  LIG X 999      44.627 127.376  22.950  1.00  0.00     0.049 A 
HETATM    6  C13 LIG X 999      45.289 126.151  22.809  1.00  0.00    -0.023 A 
HETATM    7  C8  LIG X 999      44.673 124.963  23.284  1.00  0.00    -0.022 A 
HETATM    8  C12 LIG X 999      46.556 126.086  22.196  1.00  0.00     0.021 A 
HETATM    9  C7  LIG X 999      43.411 125.032  23.888  1.00  0.00     0.052 A 
HETATM   10  C9  LIG X 999      45.329 123.725  23.135  1.00  0.00     0.021 A 
HETATM   11  C3  LIG X 999      42.753 126.268  24.042  1.00  0.00     0.113 A 
HETATM   12  C10 LIG X 999      46.585 123.704  22.528  1.00  0.00    -0.024 A 
HETATM   13  C11 LIG X 999      47.177 124.843  22.076  1.00  0.00    -0.024 A 
HETATM   14  C17 LIG X 999      47.438 122.528  22.250  1.00  0.00     0.276 C 
HETATM   15  C14 LIG X 999      48.482 124.537  21.452  1.00  0.00     0.276 C 
HETATM   16  N5  LIG X 999      48.721 123.081  21.710  1.00  0.00    -0.067 N 
HETATM   17  C15 LIG X 999      49.106 122.385  20.461  1.00  0.00     0.272 C 
HETATM   18  C16 LIG X 999      49.806 122.914  22.707  1.00  0.00     0.272 C 
BRANCH  11  19
HETATM   19  O1  LIG X 999      41.473 126.326  24.616  1.00  0.00    -0.259 OA
BRANCH  19  20
HETATM   20  C4  LIG X 999      40.273 126.095  23.926  1.00  0.00     0.367 C 
HETATM   21  O2  LIG X 999      40.088 125.002  23.322  1.00  0.00    -0.238 OA
HETATM   22  N4  LIG X 999      39.234 127.089  23.948  1.00  0.00    -0.336 N 
HETATM   23  C5  LIG X 999      37.956 126.821  23.281  1.00  0.00     0.154 C 
HETATM   24  C6  LIG X 999      39.478 128.369  24.615  1.00  0.00     0.154 C 
ENDBRANCH  19  20
ENDBRANCH  11  19
ENDBRANCH   1   4
TORSDOF 3
