REMARK VINA RESULT:      -6.5      2.785      6.763
REMARK  3 active torsions:
REMARK  status: ('A' for Active; 'I' for Inactive)
REMARK    1  A    between atoms: C3_3  and  N1_4 
REMARK    2  A    between atoms: N1_4  and  C6_7 
REMARK    3  A    between atoms: C6_7  and  C7_8 
ROOT
HETATM    1  C1  LIG X 999      44.872 127.589  23.137  1.00  0.00     0.013 C 
HETATM    2  C2  LIG X 999      44.612 128.667  23.608  1.00  0.00    -0.089 C 
HETATM    3  C3  LIG X 999      44.296 129.988  24.187  1.00  0.00     0.329 C 
ENDROOT
BRANCH   3   4
HETATM    4  N1  LIG X 999      43.363 130.798  23.346  1.00  0.00    -0.061 N 
HETATM    5  C4  LIG X 999      42.319 131.377  24.230  1.00  0.00     0.273 C 
HETATM    6  C5  LIG X 999      42.676 129.915  22.367  1.00  0.00     0.273 C 
BRANCH   4   7
HETATM    7  C6  LIG X 999      44.064 131.885  22.589  1.00  0.00     0.276 C 
BRANCH   7   8
HETATM    8  C7  LIG X 999      44.505 131.497  21.189  1.00  0.00    -0.032 A 
HETATM    9  C8  LIG X 999      45.697 130.779  20.994  1.00  0.00     0.010 A 
HETATM   10  C9  LIG X 999      46.110 130.421  19.708  1.00  0.00     0.013 A 
HETATM   11  C10 LIG X 999      45.343 130.784  18.594  1.00  0.00    -0.026 A 
HETATM   12  C11 LIG X 999      45.749 130.428  17.298  1.00  0.00     0.012 A 
HETATM   13  C15 LIG X 999      44.150 131.524  18.776  1.00  0.00    -0.025 A 
HETATM   14  C12 LIG X 999      44.977 130.802  16.194  1.00  0.00     0.001 A 
HETATM   15  C13 LIG X 999      43.799 131.533  16.373  1.00  0.00     0.001 A 
HETATM   16  C14 LIG X 999      43.386 131.894  17.658  1.00  0.00     0.012 A 
HETATM   17  C16 LIG X 999      43.744 131.881  20.070  1.00  0.00     0.021 A 
ENDBRANCH   7   8
ENDBRANCH   4   7
ENDBRANCH   3   4
TORSDOF 3
