REMARK VINA RESULT:      -8.4      0.000      0.000
REMARK  5 active torsions:
REMARK  status: ('A' for Active; 'I' for Inactive)
REMARK    1  A    between atoms: C6_6  and  O1_7 
REMARK    2  A    between atoms: O1_7  and  C7_8 
REMARK    3  A    between atoms: C7_8  and  C8_9 
REMARK    4  A    between atoms: C8_9  and  C9_10 
REMARK    5  A    between atoms: C9_10  and  N1_11 
ROOT
HETATM    1  N1  LIG X 999      42.862 132.054  21.353  1.00  0.00    -0.116 NA
HETATM    2  N2  LIG X 999      42.440 132.207  20.206  1.00  0.00    -0.168 NA
HETATM    3  N3  LIG X 999      42.018 132.361  19.061  1.00  0.00     0.068 N 
ENDROOT
BRANCH   1   4
HETATM    4  C9  LIG X 999      44.063 131.270  21.600  1.00  0.00     0.191 C 
BRANCH   4   5
HETATM    5  C8  LIG X 999      45.187 131.751  20.682  1.00  0.00     0.051 C 
BRANCH   5   6
HETATM    6  C7  LIG X 999      45.783 130.594  19.883  1.00  0.00     0.177 C 
BRANCH   6   7
HETATM    7  O1  LIG X 999      45.050 130.431  18.672  1.00  0.00    -0.351 OA
BRANCH   7   8
HETATM    8  C6  LIG X 999      45.541 130.754  17.399  1.00  0.00     0.069 A 
HETATM    9  C5  LIG X 999      46.322 129.806  16.728  1.00  0.00     0.049 A 
HETATM   10  C4  LIG X 999      46.838 130.079  15.452  1.00  0.00    -0.023 A 
HETATM   11  C3  LIG X 999      47.623 129.128  14.779  1.00  0.00     0.012 A 
HETATM   12  C12 LIG X 999      46.566 131.324  14.837  1.00  0.00    -0.026 A 
HETATM   13  C2  LIG X 999      48.132 129.410  13.508  1.00  0.00     0.001 A 
HETATM   14  C1  LIG X 999      47.862 130.640  12.901  1.00  0.00     0.001 A 
HETATM   15  C13 LIG X 999      47.083 131.595  13.560  1.00  0.00     0.012 A 
HETATM   16  C11 LIG X 999      45.784 132.272  15.510  1.00  0.00     0.015 A 
HETATM   17  C10 LIG X 999      45.274 131.992  16.780  1.00  0.00     0.037 A 
ENDBRANCH   7   8
ENDBRANCH   6   7
ENDBRANCH   5   6
ENDBRANCH   4   5
ENDBRANCH   1   4
TORSDOF 5
