REMARK VINA RESULT:      -5.9      9.107     10.371
REMARK  1 active torsions:
REMARK  status: ('A' for Active; 'I' for Inactive)
REMARK    1  A    between atoms: C2_5  and  C3_6 
ROOT
HETATM    1  C3  LIG X 999      51.498 136.854  22.893  1.00  0.00     0.030 A 
HETATM    2  C4  LIG X 999      52.390 137.721  23.545  1.00  0.00     0.017 A 
HETATM    3  C5  LIG X 999      52.377 139.090  23.286  1.00  0.00     0.002 A 
HETATM    4  C6  LIG X 999      51.478 139.624  22.367  1.00  0.00     0.012 A 
HETATM    5  C7  LIG X 999      50.596 138.784  21.675  1.00  0.00    -0.025 A 
HETATM    6  C8  LIG X 999      49.714 139.330  20.728  1.00  0.00     0.012 A 
HETATM    7  C9  LIG X 999      48.860 138.502  20.001  1.00  0.00     0.001 A 
HETATM    8  C10 LIG X 999      48.888 137.122  20.200  1.00  0.00     0.001 A 
HETATM    9  C11 LIG X 999      49.757 136.562  21.140  1.00  0.00     0.013 A 
HETATM   10  C12 LIG X 999      50.607 137.381  21.915  1.00  0.00    -0.011 A 
ENDROOT
BRANCH   1  11
HETATM   11  C2  LIG X 999      51.523 135.429  23.296  1.00  0.00     0.203 A 
HETATM   12  O1  LIG X 999      50.485 134.792  23.800  1.00  0.00    -0.255 OA
HETATM   13  C1  LIG X 999      50.902 133.564  23.972  1.00  0.00     0.262 A 
HETATM   14  N1  LIG X 999      50.174 132.612  24.459  1.00  0.00    -0.260 NA
HETATM   15  N3  LIG X 999      52.177 133.419  23.579  1.00  0.00    -0.238 N 
HETATM   16  H1  LIG X 999      50.553 131.647  24.577  1.00  0.00     0.190 HD
HETATM   17  N2  LIG X 999      52.579 134.599  23.140  1.00  0.00    -0.145 NA
HETATM   18  H9  LIG X 999      52.760 132.552  23.598  1.00  0.00     0.193 HD
ENDBRANCH   1  11
TORSDOF 1
