REMARK VINA RESULT:      -8.3      3.337      6.674
REMARK  4 active torsions:
REMARK  status: ('A' for Active; 'I' for Inactive)
REMARK    1  A    between atoms: O1_2  and  C1_3 
REMARK    2  A    between atoms: C1_3  and  N1_6 
REMARK    3  A    between atoms: N1_6  and  C4_8 
REMARK    4  A    between atoms: C4_8  and  C5_9 
ROOT
HETATM    1  C5  LIG X 999      44.139 131.550  18.837  1.00  0.00    -0.035 A 
HETATM    2  C6  LIG X 999      45.304 130.822  19.135  1.00  0.00     0.010 A 
HETATM    3  C7  LIG X 999      46.114 130.326  18.111  1.00  0.00     0.013 A 
HETATM    4  C8  LIG X 999      45.767 130.539  16.770  1.00  0.00    -0.026 A 
HETATM    5  C9  LIG X 999      46.575 130.045  15.735  1.00  0.00     0.012 A 
HETATM    6  C10 LIG X 999      46.215 130.261  14.401  1.00  0.00     0.001 A 
HETATM    7  C11 LIG X 999      45.051 130.969  14.093  1.00  0.00     0.001 A 
HETATM    8  C12 LIG X 999      44.238 131.466  15.116  1.00  0.00     0.012 A 
HETATM    9  C13 LIG X 999      44.587 131.258  16.459  1.00  0.00    -0.025 A 
HETATM   10  C14 LIG X 999      43.780 131.752  17.493  1.00  0.00     0.021 A 
ENDROOT
BRANCH   1  11
HETATM   11  C4  LIG X 999      43.248 132.070  19.946  1.00  0.00     0.113 C 
HETATM   12  C15 LIG X 999      41.913 132.545  19.361  1.00  0.00     0.037 C 
BRANCH  11  13
HETATM   13  N1  LIG X 999      43.026 131.034  20.962  1.00  0.00    -0.363 N 
HETATM   14  H6  LIG X 999      42.529 130.158  20.680  1.00  0.00     0.162 HD
BRANCH  13  15
HETATM   15  C1  LIG X 999      43.484 131.152  22.324  1.00  0.00     0.131 C 
HETATM   16  C2  LIG X 999      42.777 131.875  23.199  1.00  0.00     0.024 C 
HETATM   17  C3  LIG X 999      43.201 132.032  24.625  1.00  0.00     0.040 C 
BRANCH  15  18
HETATM   18  O1  LIG X 999      44.658 130.521  22.750  1.00  0.00    -0.347 OA
HETATM   19  H1  LIG X 999      44.900 130.409  23.724  1.00  0.00     0.219 HD
ENDBRANCH  15  18
ENDBRANCH  13  15
ENDBRANCH  11  13
ENDBRANCH   1  11
TORSDOF 4
