REMARK VINA RESULT:      -6.6      3.087      7.737
REMARK  7 active torsions:
REMARK  status: ('A' for Active; 'I' for Inactive)
REMARK    1  A    between atoms: N1_2  and  C2_3 
REMARK    2  A    between atoms: C2_3  and  C4_5 
REMARK    3  A    between atoms: C4_5  and  C5_6 
REMARK    4  A    between atoms: C5_6  and  C6_7 
REMARK    5  A    between atoms: C6_7  and  C7_8 
REMARK    6  A    between atoms: C7_8  and  N2_9 
REMARK    7  A    between atoms: N2_9  and  C8_10 
ROOT
HETATM    1  C8  LIG X 999      43.541 131.854  22.189  1.00  0.00     0.101 C 
HETATM    2  C9  LIG X 999      44.729 131.204  21.837  1.00  0.00     0.056 C 
HETATM    3  C10 LIG X 999      45.022 130.935  20.492  1.00  0.00    -0.045 C 
HETATM    4  C11 LIG X 999      46.161 129.976  20.241  1.00  0.00     0.049 C 
HETATM    5  C12 LIG X 999      44.165 131.451  19.472  1.00  0.00     0.008 C 
HETATM    6  C13 LIG X 999      42.908 131.969  19.893  1.00  0.00     0.045 C 
HETATM    7  C14 LIG X 999      41.912 132.263  18.953  1.00  0.00     0.031 C 
HETATM    8  C15 LIG X 999      42.140 132.077  17.596  1.00  0.00     0.014 C 
HETATM    9  C16 LIG X 999      43.405 131.700  17.140  1.00  0.00    -0.025 C 
HETATM   10  C17 LIG X 999      43.641 131.627  15.757  1.00  0.00     0.012 C 
HETATM   11  C18 LIG X 999      44.924 131.386  15.274  1.00  0.00     0.001 C 
HETATM   12  C19 LIG X 999      45.986 131.256  16.163  1.00  0.00     0.001 C 
HETATM   13  C20 LIG X 999      45.763 131.311  17.542  1.00  0.00     0.013 C 
HETATM   14  C21 LIG X 999      44.456 131.446  18.067  1.00  0.00    -0.013 C 
HETATM   15  N3  LIG X 999      42.646 132.169  21.217  1.00  0.00    -0.342 N 
HETATM   16  H28 LIG X 999      41.731 132.588  21.501  1.00  0.00     0.167 HD
ENDROOT
BRANCH   1  17
HETATM   17  N2  LIG X 999      43.212 132.132  23.564  1.00  0.00    -0.376 N 
HETATM   18  H17 LIG X 999      43.072 133.129  23.846  1.00  0.00     0.161 HD
BRANCH  17  19
HETATM   19  C7  LIG X 999      43.121 131.124  24.625  1.00  0.00     0.121 C 
BRANCH  19  20
HETATM   20  C6  LIG X 999      41.963 130.147  24.376  1.00  0.00     0.020 C 
BRANCH  20  21
HETATM   21  C5  LIG X 999      42.464 128.733  24.050  1.00  0.00     0.004 C 
BRANCH  21  22
HETATM   22  C4  LIG X 999      41.358 127.896  23.391  1.00  0.00     0.035 C 
BRANCH  22  23
HETATM   23  C2  LIG X 999      41.506 126.398  23.710  1.00  0.00     0.216 C 
HETATM   24  C3  LIG X 999      42.881 126.132  24.350  1.00  0.00     0.042 C 
BRANCH  23  25
HETATM   25  N1  LIG X 999      40.405 125.975  24.598  1.00  0.00     0.083 N 
HETATM   26  C1  LIG X 999      39.103 126.022  23.928  1.00  0.00     0.307 C 
HETATM   27  H4  LIG X 999      40.571 125.000  24.944  1.00  0.00     0.315 HD
ENDBRANCH  23  25
ENDBRANCH  22  23
ENDBRANCH  21  22
ENDBRANCH  20  21
ENDBRANCH  19  20
ENDBRANCH  17  19
ENDBRANCH   1  17
TORSDOF 7
