REMARK VINA RESULT:      -7.6      0.000      0.000
REMARK  2 active torsions:
REMARK  status: ('A' for Active; 'I' for Inactive)
REMARK    1  A    between atoms: O1_2  and  C2_3 
REMARK    2  A    between atoms: C11_12  and  N1_13 
ROOT
HETATM    1  C2  LIG X 999      44.923 131.330  16.248  1.00  0.00     0.095 A 
HETATM    2  C3  LIG X 999      44.015 131.796  17.220  1.00  0.00     0.051 A 
HETATM    3  C4  LIG X 999      44.198 131.483  18.574  1.00  0.00    -0.023 A 
HETATM    4  C5  LIG X 999      43.293 131.951  19.546  1.00  0.00     0.021 A 
HETATM    5  C6  LIG X 999      43.511 131.612  20.883  1.00  0.00    -0.024 A 
HETATM    6  C7  LIG X 999      44.576 130.852  21.260  1.00  0.00    -0.024 A 
HETATM    7  C8  LIG X 999      45.501 130.375  20.328  1.00  0.00     0.021 A 
HETATM    8  C9  LIG X 999      45.310 130.690  18.968  1.00  0.00    -0.023 A 
HETATM    9  C10 LIG X 999      46.209 130.230  17.998  1.00  0.00     0.044 A 
HETATM   10  C11 LIG X 999      46.022 130.545  16.644  1.00  0.00     0.060 A 
HETATM   11  C12 LIG X 999      44.589 130.667  22.726  1.00  0.00     0.276 C 
HETATM   12  N2  LIG X 999      43.309 131.267  23.220  1.00  0.00    -0.067 N 
HETATM   13  C13 LIG X 999      42.386 130.197  23.668  1.00  0.00     0.272 C 
HETATM   14  C14 LIG X 999      43.565 132.188  24.351  1.00  0.00     0.272 C 
HETATM   15  C15 LIG X 999      42.711 132.006  22.061  1.00  0.00     0.276 C 
ENDROOT
BRANCH  10  16
HETATM   16  N1  LIG X 999      46.958 130.059  15.674  1.00  0.00    -0.397 N 
HETATM   17  H8  LIG X 999      46.806 130.199  14.651  1.00  0.00     0.156 HD
HETATM   18  H9  LIG X 999      47.821 129.552  15.974  1.00  0.00     0.156 HD
ENDBRANCH  10  16
BRANCH   1  19
HETATM   19  O1  LIG X 999      44.762 131.629  14.884  1.00  0.00    -0.354 OA
HETATM   20  C1  LIG X 999      43.551 131.455  14.154  1.00  0.00     0.210 C 
ENDBRANCH   1  19
TORSDOF 2
