REMARK VINA RESULT:      -5.4      1.692      2.651
REMARK  1 active torsions:
REMARK  status: ('A' for Active; 'I' for Inactive)
REMARK    1  A    between atoms: C12_14  and  N2_15 
ROOT
HETATM    1  C1  LIG X 999      45.634 130.573  16.010  1.00  0.00     0.001 A 
HETATM    2  C2  LIG X 999      46.210 130.184  17.216  1.00  0.00     0.001 A 
HETATM    3  C3  LIG X 999      45.586 130.484  18.430  1.00  0.00     0.013 A 
HETATM    4  C4  LIG X 999      44.359 131.186  18.460  1.00  0.00    -0.012 A 
HETATM    5  C5  LIG X 999      43.780 131.578  17.211  1.00  0.00    -0.025 A 
HETATM    6  C6  LIG X 999      44.426 131.266  16.004  1.00  0.00     0.012 A 
HETATM    7  C7  LIG X 999      42.559 132.279  17.174  1.00  0.00     0.013 A 
HETATM    8  C8  LIG X 999      41.893 132.605  18.354  1.00  0.00     0.021 A 
HETATM    9  C9  LIG X 999      42.456 132.224  19.564  1.00  0.00     0.020 A 
HETATM   10  S1  LIG X 999      41.812 132.520  21.080  1.00  0.00    -0.076 SA
HETATM   11  C10 LIG X 999      43.054 131.768  21.922  1.00  0.00     0.118 A 
HETATM   12  C11 LIG X 999      43.078 131.684  23.358  1.00  0.00     0.109 C 
HETATM   13  N1  LIG X 999      43.092 131.621  24.514  1.00  0.00    -0.191 NA
HETATM   14  C12 LIG X 999      44.006 131.265  21.017  1.00  0.00     0.133 A 
HETATM   15  C13 LIG X 999      43.664 131.527  19.659  1.00  0.00     0.026 A 
ENDROOT
BRANCH  14  16
HETATM   16  N2  LIG X 999      45.195 130.564  21.410  1.00  0.00    -0.070 NA
HETATM   17  N3  LIG X 999      45.193 129.422  21.872  1.00  0.00    -0.162 NA
HETATM   18  N4  LIG X 999      45.201 128.282  22.333  1.00  0.00     0.068 N 
ENDBRANCH  14  16
TORSDOF 1
