REMARK VINA RESULT:       0.9      2.464      4.552
REMARK  4 active torsions:
REMARK  status: ('A' for Active; 'I' for Inactive)
REMARK    1  A    between atoms: C5_5  and  O1_6 
REMARK    2  A    between atoms: O1_6  and  C6_7 
REMARK       I    between atoms: C6_7  and  N1_9 
REMARK    3  A    between atoms: C9_13  and  N2_14 
REMARK    4  A    between atoms: C11_19  and  N5_20 
ROOT
HETATM    1  N2  LIG X 999      42.282 132.075  22.408  1.00  0.00    -0.068 NA
HETATM    2  N3  LIG X 999      41.624 132.827  21.688  1.00  0.00    -0.162 NA
HETATM    3  N4  LIG X 999      40.967 133.581  20.973  1.00  0.00     0.068 N 
ENDROOT
BRANCH   1   4
HETATM    4  C9  LIG X 999      43.330 131.230  21.900  1.00  0.00     0.151 C 
HETATM    5  C5  LIG X 999      44.008 130.405  22.814  1.00  0.00     0.114 C 
HETATM    6  C4  LIG X 999      44.321 130.855  24.115  1.00  0.00     0.040 C 
HETATM    7  C3  LIG X 999      44.612 132.190  24.464  1.00  0.00     0.003 C 
HETATM    8  C2  LIG X 999      44.988 133.216  23.574  1.00  0.00     0.000 C 
HETATM    9  C1  LIG X 999      45.510 133.004  22.292  1.00  0.00     0.000 C 
HETATM   10  C13 LIG X 999      46.292 131.890  21.982  1.00  0.00     0.002 C 
HETATM   11  C12 LIG X 999      46.170 131.160  20.795  1.00  0.00     0.036 C 
HETATM   12  C11 LIG X 999      44.985 131.009  20.025  1.00  0.00     0.117 C 
HETATM   13  C10 LIG X 999      43.674 131.233  20.524  1.00  0.00     0.100 C 
HETATM   14 CL1  LIG X 999      42.377 131.443  19.343  1.00  0.00    -0.079 Cl
BRANCH   5  15
HETATM   15  O1  LIG X 999      44.349 129.111  22.390  1.00  0.00    -0.254 OA
BRANCH  15  16
HETATM   16  C6  LIG X 999      43.885 127.909  22.949  1.00  0.00     0.461 C 
HETATM   17  O2  LIG X 999      42.660 127.748  23.209  1.00  0.00    -0.230 OA
HETATM   18  N1  LIG X 999      44.829 126.884  23.314  1.00  0.00     0.009 N 
HETATM   19  H5  LIG X 999      44.312 126.035  23.644  1.00  0.00     0.292 HD
HETATM   20  C7  LIG X 999      45.640 126.504  22.147  1.00  0.00     0.282 C 
HETATM   21  C8  LIG X 999      45.682 127.365  24.410  1.00  0.00     0.282 C 
ENDBRANCH  15  16
ENDBRANCH   5  15
BRANCH  12  22
HETATM   22  N5  LIG X 999      45.094 130.550  18.667  1.00  0.00    -0.071 NA
HETATM   23  N6  LIG X 999      45.216 131.318  17.710  1.00  0.00    -0.162 NA
HETATM   24  N7  LIG X 999      45.337 132.083  16.755  1.00  0.00     0.068 N 
ENDBRANCH  12  22
ENDBRANCH   1   4
TORSDOF 4
