REMARK VINA RESULT:      -8.4      1.673      2.455
REMARK  3 active torsions:
REMARK  status: ('A' for Active; 'I' for Inactive)
REMARK    1  A    between atoms: C3_3  and  S1_4 
REMARK    2  A    between atoms: S1_4  and  C4_7 
REMARK    3  A    between atoms: C12_15  and  N1_16 
ROOT
HETATM    1  C1  LIG X 999      47.648 130.939  12.960  1.00  0.00     0.013 C 
HETATM    2  C2  LIG X 999      47.048 131.404  13.896  1.00  0.00    -0.102 C 
HETATM    3  C3  LIG X 999      46.316 131.969  15.033  1.00  0.00     0.233 C 
ENDROOT
BRANCH   3   4
HETATM    4  S1  LIG X 999      45.727 130.674  16.116  1.00  0.00     0.159 S 
HETATM    5  O1  LIG X 999      46.900 129.819  16.506  1.00  0.00    -0.227 OA
HETATM    6  O2  LIG X 999      44.723 129.819  15.394  1.00  0.00    -0.227 OA
BRANCH   4   7
HETATM    7  C4  LIG X 999      44.989 131.359  17.605  1.00  0.00     0.116 C 
HETATM    8  C5  LIG X 999      45.328 130.477  18.811  1.00  0.00     0.059 C 
HETATM    9  C6  LIG X 999      44.628 130.939  20.064  1.00  0.00    -0.049 A 
HETATM   10  C7  LIG X 999      45.151 130.544  21.307  1.00  0.00     0.007 A 
HETATM   11  C11 LIG X 999      43.429 131.698  20.015  1.00  0.00    -0.019 A 
HETATM   12  C8  LIG X 999      44.535 130.940  22.494  1.00  0.00     0.001 A 
HETATM   13  C9  LIG X 999      43.392 131.734  22.454  1.00  0.00     0.001 A 
HETATM   14  C10 LIG X 999      42.848 132.120  21.228  1.00  0.00     0.010 A 
HETATM   15  C12 LIG X 999      42.842 132.176  18.689  1.00  0.00     0.252 C 
HETATM   16  C13 LIG X 999      43.469 131.467  17.469  1.00  0.00     0.060 C 
BRANCH  15  17
HETATM   17  N1  LIG X 999      41.387 131.977  18.666  1.00  0.00     0.087 N 
HETATM   18  H12 LIG X 999      40.966 132.470  19.486  1.00  0.00     0.313 HD
HETATM   19  H13 LIG X 999      40.987 132.465  17.832  1.00  0.00     0.313 HD
ENDBRANCH  15  17
ENDBRANCH   4   7
ENDBRANCH   3   4
TORSDOF 3
