REMARK VINA RESULT:      -8.4      0.898      2.017
REMARK  2 active torsions:
REMARK  status: ('A' for Active; 'I' for Inactive)
REMARK    1  A    between atoms: C1_1  and  N1_2 
REMARK    2  A    between atoms: C2_5  and  C3_7 
ROOT
HETATM    1  N1  LIG X 999      46.738 131.227  13.744  1.00  0.00    -0.082 NA
HETATM    2  N2  LIG X 999      47.615 130.383  13.554  1.00  0.00    -0.163 NA
HETATM    3  N3  LIG X 999      48.491 129.542  13.364  1.00  0.00     0.068 N 
ENDROOT
BRANCH   1   4
HETATM    4  C1  LIG X 999      46.295 131.528  15.066  1.00  0.00     0.196 C 
HETATM    5  C2  LIG X 999      45.520 130.662  15.731  1.00  0.00     0.137 C 
HETATM    6  O1  LIG X 999      45.134 129.482  15.101  1.00  0.00    -0.190 OA
BRANCH   5   7
HETATM    7  C3  LIG X 999      45.037 130.927  17.111  1.00  0.00     0.003 A 
HETATM    8  C4  LIG X 999      45.841 130.558  18.203  1.00  0.00     0.015 A 
HETATM    9  C5  LIG X 999      45.424 130.799  19.513  1.00  0.00     0.013 A 
HETATM   10  C6  LIG X 999      44.196 131.426  19.759  1.00  0.00    -0.026 A 
HETATM   11  C7  LIG X 999      43.768 131.675  21.073  1.00  0.00     0.012 A 
HETATM   12  C11 LIG X 999      43.380 131.818  18.671  1.00  0.00    -0.025 A 
HETATM   13  C8  LIG X 999      42.543 132.306  21.304  1.00  0.00     0.001 A 
HETATM   14  C9  LIG X 999      41.738 132.696  20.230  1.00  0.00     0.001 A 
HETATM   15  C10 LIG X 999      42.153 132.455  18.917  1.00  0.00     0.012 A 
HETATM   16  C12 LIG X 999      43.806 131.570  17.356  1.00  0.00     0.026 A 
ENDBRANCH   5   7
ENDBRANCH   1   4
TORSDOF 2
