REMARK VINA RESULT:      -4.1      5.398      7.696
REMARK  2 active torsions:
REMARK  status: ('A' for Active; 'I' for Inactive)
REMARK    1  A    between atoms: C9_10  and  N2_11 
REMARK       I    between atoms: N2_11  and  C10_12 
REMARK    2  A    between atoms: C10_12  and  C11_14 
ROOT
HETATM    1  C11 LIG X 999      42.785 132.650  19.657  1.00  0.00     0.282 C 
HETATM    2 CL1  LIG X 999      42.068 131.787  18.273  1.00  0.00    -0.099 Cl
HETATM    3  C12 LIG X 999      41.717 133.149  20.529  1.00  0.00     0.089 C 
HETATM    4  N3  LIG X 999      40.874 133.542  21.217  1.00  0.00    -0.195 NA
ENDROOT
BRANCH   1   5
HETATM    5  C10 LIG X 999      43.687 131.734  20.424  1.00  0.00     0.276 C 
HETATM    6  N2  LIG X 999      43.238 131.163  21.661  1.00  0.00    -0.212 NA
HETATM    7  O1  LIG X 999      44.858 131.525  20.008  1.00  0.00    -0.268 OA
BRANCH   6   8
HETATM    8  C9  LIG X 999      43.860 130.091  22.383  1.00  0.00     0.061 A 
HETATM    9  C8  LIG X 999      43.716 130.049  23.774  1.00  0.00     0.032 A 
HETATM   10  C7  LIG X 999      44.287 129.015  24.521  1.00  0.00     0.014 A 
HETATM   11  C6  LIG X 999      45.000 127.994  23.881  1.00  0.00    -0.025 A 
HETATM   12  C5  LIG X 999      45.581 126.948  24.625  1.00  0.00     0.021 A 
HETATM   13  C14 LIG X 999      45.133 128.013  22.463  1.00  0.00    -0.023 A 
HETATM   14  C4  LIG X 999      46.269 125.945  23.943  1.00  0.00    -0.024 A 
HETATM   15  C3  LIG X 999      46.969 124.774  24.514  1.00  0.00     0.276 C 
HETATM   16  C16 LIG X 999      46.393 125.960  22.586  1.00  0.00    -0.024 A 
HETATM   17  N1  LIG X 999      47.416 123.959  23.341  1.00  0.00    -0.067 N 
HETATM   18  C1  LIG X 999      48.847 123.602  23.467  1.00  0.00     0.272 C 
HETATM   19  C2  LIG X 999      46.615 122.714  23.253  1.00  0.00     0.272 C 
HETATM   20  C17 LIG X 999      47.187 124.802  22.125  1.00  0.00     0.276 C 
HETATM   21  C15 LIG X 999      45.839 126.981  21.813  1.00  0.00     0.021 A 
HETATM   22  C13 LIG X 999      44.554 129.058  21.726  1.00  0.00     0.044 A 
ENDBRANCH   6   8
ENDBRANCH   1   5
TORSDOF 2
