REMARK VINA RESULT:      -4.7      7.217      8.495
REMARK  3 active torsions:
REMARK  status: ('A' for Active; 'I' for Inactive)
REMARK    1  A    between atoms: C7_9  and  C8_10 
REMARK    2  A    between atoms: C9_13  and  N4_14 
REMARK    3  A    between atoms: N7_23  and  C14_24 
ROOT
HETATM    1  N4  LIG X 999      49.094 123.496  20.509  1.00  0.00    -0.023 NA
HETATM    2  N5  LIG X 999      50.317 123.621  20.561  1.00  0.00    -0.158 NA
HETATM    3  N6  LIG X 999      51.540 123.747  20.612  1.00  0.00     0.068 N 
ENDROOT
BRANCH   1   4
HETATM    4  C9  LIG X 999      48.273 123.920  21.596  1.00  0.00     0.326 A 
HETATM    5  N3  LIG X 999      48.566 123.685  22.886  1.00  0.00    -0.099 NA
HETATM    6  N2  LIG X 999      47.578 124.225  23.584  1.00  0.00    -0.119 NA
HETATM    7  C8  LIG X 999      46.720 124.759  22.689  1.00  0.00     0.205 A 
HETATM    8  O1  LIG X 999      47.149 124.582  21.462  1.00  0.00    -0.252 OA
BRANCH   7   9
HETATM    9  C7  LIG X 999      45.495 125.495  23.059  1.00  0.00     0.032 A 
HETATM   10  C6  LIG X 999      44.285 124.846  23.453  1.00  0.00     0.020 A 
HETATM   11  C1  LIG X 999      44.052 123.396  23.764  1.00  0.00     0.060 A 
HETATM   12  C5  LIG X 999      43.184 125.662  23.646  1.00  0.00     0.019 A 
HETATM   13  N1  LIG X 999      45.029 122.549  23.797  1.00  0.00    -0.299 NA
HETATM   14  C2  LIG X 999      42.667 122.951  24.147  1.00  0.00     0.034 A 
HETATM   15  H1  LIG X 999      44.885 121.544  24.046  1.00  0.00     0.187 HD
HETATM   16  C3  LIG X 999      41.660 123.838  24.281  1.00  0.00     0.033 A 
HETATM   17  C4  LIG X 999      41.942 125.260  24.028  1.00  0.00     0.048 A 
HETATM   18  N7  LIG X 999      41.135 126.341  24.158  1.00  0.00    -0.324 N 
HETATM   19  C13 LIG X 999      41.912 127.422  23.869  1.00  0.00     0.193 A 
HETATM   20  C12 LIG X 999      43.193 127.014  23.540  1.00  0.00     0.032 A 
HETATM   21  O2  LIG X 999      41.473 128.740  23.921  1.00  0.00    -0.171 OA
HETATM   22  C11 LIG X 999      44.359 127.693  23.206  1.00  0.00     0.018 A 
HETATM   23  C10 LIG X 999      45.516 126.920  22.960  1.00  0.00     0.018 A 
BRANCH  18  24
HETATM   24  C14 LIG X 999      39.749 126.361  24.625  1.00  0.00     0.127 C 
HETATM   25  C15 LIG X 999      38.844 125.655  23.622  1.00  0.00     0.027 C 
ENDBRANCH  18  24
ENDBRANCH   7   9
ENDBRANCH   1   4
TORSDOF 3
