REMARK VINA RESULT:      -3.7      6.584      7.966
REMARK  1 active torsions:
REMARK  status: ('A' for Active; 'I' for Inactive)
REMARK    1  A    between atoms: C7_7  and  N1_8 
ROOT
HETATM    1  N1  LIG X 999      44.288 131.749  20.850  1.00  0.00    -0.110 NA
HETATM    2  N2  LIG X 999      43.735 131.743  19.749  1.00  0.00    -0.167 NA
HETATM    3  N3  LIG X 999      43.184 131.738  18.650  1.00  0.00     0.068 N 
ENDROOT
BRANCH   1   4
HETATM    4  C7  LIG X 999      43.545 131.441  22.070  1.00  0.00     0.153 C 
HETATM    5  C6  LIG X 999      44.253 132.082  23.286  1.00  0.00     0.031 C 
HETATM    6  C5  LIG X 999      43.932 131.384  24.624  1.00  0.00     0.003 C 
HETATM    7  C4  LIG X 999      42.557 130.707  24.604  1.00  0.00     0.009 C 
HETATM    8  C3  LIG X 999      42.448 129.627  23.494  1.00  0.00     0.018 C 
HETATM    9  C2  LIG X 999      42.659 128.247  24.073  1.00  0.00    -0.021 C 
HETATM   10  C8  LIG X 999      43.365 129.913  22.258  1.00  0.00     0.043 C 
HETATM   11  C1  LIG X 999      43.799 127.576  23.908  1.00  0.00    -0.004 C 
HETATM   12  C10 LIG X 999      44.880 128.109  23.070  1.00  0.00    -0.004 C 
HETATM   13  C9  LIG X 999      44.708 129.210  22.338  1.00  0.00    -0.019 C 
ENDBRANCH   1   4
TORSDOF 1
