REMARK VINA RESULT:      -7.5      1.899      3.744
REMARK  1 active torsions:
REMARK  status: ('A' for Active; 'I' for Inactive)
REMARK    1  A    between atoms: C11_13  and  N2_14 
ROOT
HETATM    1  N2  LIG X 999      46.211 130.487  16.165  1.00  0.00    -0.053 NA
HETATM    2  N3  LIG X 999      46.154 130.733  14.959  1.00  0.00    -0.160 NA
HETATM    3  N4  LIG X 999      46.099 130.980  13.755  1.00  0.00     0.068 N 
ENDROOT
BRANCH   1   4
HETATM    4  C11 LIG X 999      45.202 130.951  17.062  1.00  0.00     0.175 A 
HETATM    5  C10 LIG X 999      45.300 130.942  18.446  1.00  0.00     0.026 A 
HETATM    6  C5  LIG X 999      44.131 131.466  18.887  1.00  0.00     0.017 A 
HETATM    7  C9  LIG X 999      46.281 130.535  19.350  1.00  0.00     0.016 A 
HETATM    8  C4  LIG X 999      43.354 131.780  17.822  1.00  0.00     0.046 A 
HETATM    9  C6  LIG X 999      43.799 131.644  20.212  1.00  0.00     0.005 A 
HETATM   10  C3  LIG X 999      42.019 132.368  18.016  1.00  0.00     0.033 A 
HETATM   11  N5  LIG X 999      43.999 131.468  16.675  1.00  0.00    -0.337 N 
HETATM   12  C2  LIG X 999      41.592 132.586  19.281  1.00  0.00     0.034 A 
HETATM   13  C1  LIG X 999      42.451 132.240  20.464  1.00  0.00     0.059 A 
HETATM   14  N1  LIG X 999      42.005 132.466  21.660  1.00  0.00    -0.300 NA
HETATM   15  H1  LIG X 999      42.547 132.249  22.524  1.00  0.00     0.187 HD
HETATM   16  H7  LIG X 999      43.646 131.599  15.702  1.00  0.00     0.167 HD
HETATM   17  C7  LIG X 999      44.764 131.246  21.165  1.00  0.00     0.015 A 
HETATM   18  C8  LIG X 999      46.001 130.693  20.729  1.00  0.00     0.002 A 
ENDBRANCH   1   4
TORSDOF 1
