REMARK VINA RESULT:      -6.9      1.332      1.924
REMARK  4 active torsions:
REMARK  status: ('A' for Active; 'I' for Inactive)
REMARK    1  A    between atoms: C3_3  and  O1_4 
REMARK    2  A    between atoms: O1_4  and  C4_5 
REMARK    3  A    between atoms: C4_5  and  O2_6 
REMARK    4  A    between atoms: C5_8  and  C6_9 
ROOT
HETATM    1  C1  LIG X 999      47.664 131.008  13.056  1.00  0.00     0.014 C 
HETATM    2  C2  LIG X 999      46.970 131.474  13.925  1.00  0.00    -0.091 C 
HETATM    3  C3  LIG X 999      46.129 132.039  14.981  1.00  0.00     0.270 C 
ENDROOT
BRANCH   3   4
HETATM    4  O1  LIG X 999      46.392 131.360  16.201  1.00  0.00    -0.319 OA
BRANCH   4   5
HETATM    5  C4  LIG X 999      46.053 130.018  16.400  1.00  0.00     0.179 C 
HETATM    6  C5  LIG X 999      45.548 129.616  17.575  1.00  0.00     0.075 C 
BRANCH   5   7
HETATM    7  O2  LIG X 999      46.223 129.100  15.363  1.00  0.00    -0.341 OA
HETATM    8  H4  LIG X 999      47.023 129.132  14.741  1.00  0.00     0.220 HD
ENDBRANCH   5   7
BRANCH   6   9
HETATM    9  C6  LIG X 999      45.351 130.528  18.729  1.00  0.00    -0.021 A 
HETATM   10  C7  LIG X 999      46.346 130.605  19.719  1.00  0.00     0.012 A 
HETATM   11  C8  LIG X 999      46.177 131.415  20.842  1.00  0.00     0.002 A 
HETATM   12  C9  LIG X 999      45.007 132.152  21.007  1.00  0.00     0.012 A 
HETATM   13  C10 LIG X 999      43.990 132.089  20.045  1.00  0.00    -0.025 A 
HETATM   14  C11 LIG X 999      42.813 132.834  20.219  1.00  0.00     0.012 A 
HETATM   15  C15 LIG X 999      44.152 131.272  18.892  1.00  0.00    -0.015 A 
HETATM   16  C12 LIG X 999      41.801 132.785  19.261  1.00  0.00     0.001 A 
HETATM   17  C13 LIG X 999      41.954 131.997  18.120  1.00  0.00     0.001 A 
HETATM   18  C14 LIG X 999      43.118 131.248  17.931  1.00  0.00     0.013 A 
ENDBRANCH   6   9
ENDBRANCH   4   5
ENDBRANCH   3   4
TORSDOF 4
