REMARK VINA RESULT:      -7.7      3.653      5.470
REMARK  2 active torsions:
REMARK  status: ('A' for Active; 'I' for Inactive)
REMARK    1  A    between atoms: C1_1  and  N1_14 
REMARK    2  A    between atoms: C2_2  and  C3_4 
ROOT
HETATM    1  C3  LIG X 999      44.649 131.204  18.633  1.00  0.00     0.003 A 
HETATM    2  C4  LIG X 999      43.602 131.770  17.878  1.00  0.00     0.015 A 
HETATM    3  C5  LIG X 999      43.653 131.776  16.482  1.00  0.00     0.013 A 
HETATM    4  C6  LIG X 999      44.753 131.226  15.812  1.00  0.00    -0.026 A 
HETATM    5  C7  LIG X 999      44.812 131.228  14.409  1.00  0.00     0.012 A 
HETATM    6  C8  LIG X 999      45.917 130.679  13.753  1.00  0.00     0.001 A 
HETATM    7  C9  LIG X 999      46.969 130.128  14.489  1.00  0.00     0.001 A 
HETATM    8  C10 LIG X 999      46.923 130.120  15.885  1.00  0.00     0.012 A 
HETATM    9  C11 LIG X 999      45.818 130.668  16.558  1.00  0.00    -0.025 A 
HETATM   10  C12 LIG X 999      45.760 130.666  17.960  1.00  0.00     0.026 A 
ENDROOT
BRANCH   1  11
HETATM   11  C2  LIG X 999      44.626 131.197  20.119  1.00  0.00     0.132 C 
HETATM   12  C1  LIG X 999      43.527 131.526  20.814  1.00  0.00     0.121 C 
HETATM   13  O1  LIG X 999      45.777 130.812  20.800  1.00  0.00    -0.190 OA
BRANCH  12  14
HETATM   14  N1  LIG X 999      43.516 131.521  22.245  1.00  0.00    -0.406 N 
HETATM   15  H9  LIG X 999      43.358 132.390  22.801  1.00  0.00     0.155 HD
HETATM   16  H10 LIG X 999      43.666 130.623  22.756  1.00  0.00     0.155 HD
ENDBRANCH  12  14
ENDBRANCH   1  11
TORSDOF 2
