REMARK VINA RESULT:      -5.4      1.693      2.877
REMARK  1 active torsions:
REMARK  status: ('A' for Active; 'I' for Inactive)
REMARK    1  A    between atoms: C7_7  and  N1_8 
ROOT
HETATM    1  N1  LIG X 999      42.714 132.017  17.447  1.00  0.00    -0.110 NA
HETATM    2  N2  LIG X 999      42.146 132.423  18.460  1.00  0.00    -0.167 NA
HETATM    3  N3  LIG X 999      41.577 132.829  19.473  1.00  0.00     0.068 N 
ENDROOT
BRANCH   1   4
HETATM    4  C7  LIG X 999      43.731 130.970  17.519  1.00  0.00     0.153 C 
HETATM    5  C6  LIG X 999      44.824 131.384  18.515  1.00  0.00     0.031 C 
HETATM    6  C5  LIG X 999      45.893 130.293  18.628  1.00  0.00     0.003 C 
HETATM    7  C4  LIG X 999      46.528 130.004  17.264  1.00  0.00     0.009 C 
HETATM    8  C3  LIG X 999      45.466 129.605  16.218  1.00  0.00     0.018 C 
HETATM    9  C2  LIG X 999      46.128 129.430  14.870  1.00  0.00    -0.021 C 
HETATM   10  C8  LIG X 999      44.329 130.662  16.121  1.00  0.00     0.043 C 
HETATM   11  C1  LIG X 999      46.262 130.469  14.035  1.00  0.00    -0.004 C 
HETATM   12  C10 LIG X 999      45.675 131.780  14.371  1.00  0.00    -0.004 C 
HETATM   13  C9  LIG X 999      44.815 131.899  15.389  1.00  0.00    -0.019 C 
ENDBRANCH   1   4
TORSDOF 1
