REMARK VINA RESULT:      -6.0      2.600      4.467
REMARK  4 active torsions:
REMARK  status: ('A' for Active; 'I' for Inactive)
REMARK    1  A    between atoms: C3_3  and  O1_4 
REMARK    2  A    between atoms: O1_4  and  C4_5 
REMARK    3  A    between atoms: C4_5  and  O2_6 
REMARK    4  A    between atoms: C5_8  and  C6_9 
ROOT
HETATM    1  C1  LIG X 999      48.375 133.994  22.065  1.00  0.00     0.014 C 
HETATM    2  C2  LIG X 999      47.363 133.525  21.608  1.00  0.00    -0.091 C 
HETATM    3  C3  LIG X 999      46.135 132.952  21.056  1.00  0.00     0.266 C 
ENDROOT
BRANCH   3   4
HETATM    4  O1  LIG X 999      46.475 131.870  20.220  1.00  0.00    -0.319 OA
BRANCH   4   5
HETATM    5  C4  LIG X 999      45.512 130.852  20.374  1.00  0.00     0.314 A 
HETATM    6  O3  LIG X 999      44.261 131.293  19.903  1.00  0.00    -0.312 OA
HETATM    7  C5  LIG X 999      44.858 130.230  19.192  1.00  0.00     0.254 A 
BRANCH   5   8
HETATM    8  O2  LIG X 999      45.373 130.267  21.638  1.00  0.00    -0.341 OA
HETATM    9  H4  LIG X 999      45.406 131.020  22.281  1.00  0.00     0.215 HD
ENDBRANCH   5   8
BRANCH   7  10
HETATM   10  C6  LIG X 999      45.374 130.657  17.846  1.00  0.00    -0.021 A 
HETATM   11  C7  LIG X 999      45.099 131.937  17.338  1.00  0.00     0.011 A 
HETATM   12  C8  LIG X 999      45.579 132.318  16.082  1.00  0.00     0.013 A 
HETATM   13  C9  LIG X 999      46.330 131.420  15.312  1.00  0.00    -0.026 A 
HETATM   14  C10 LIG X 999      46.822 131.793  14.051  1.00  0.00     0.012 A 
HETATM   15  C14 LIG X 999      46.592 130.119  15.808  1.00  0.00    -0.025 A 
HETATM   16  C11 LIG X 999      47.567 130.886  13.291  1.00  0.00     0.001 A 
HETATM   17  C12 LIG X 999      47.824 129.603  13.781  1.00  0.00     0.001 A 
HETATM   18  C13 LIG X 999      47.339 129.217  15.034  1.00  0.00     0.012 A 
HETATM   19  C15 LIG X 999      46.101 129.745  17.068  1.00  0.00     0.022 A 
ENDBRANCH   7  10
ENDBRANCH   4   5
ENDBRANCH   3   4
TORSDOF 4
