REMARK VINA RESULT:      -3.8      8.997      9.571
REMARK  3 active torsions:
REMARK  status: ('A' for Active; 'I' for Inactive)
REMARK    1  A    between atoms: C2_2  and  N1_3 
REMARK    2  A    between atoms: C3_6  and  O1_7 
REMARK    3  A    between atoms: O1_7  and  C4_8 
REMARK       I    between atoms: C4_8  and  N4_10 
ROOT
HETATM    1  N1  LIG X 999      47.094 122.470  21.148  1.00  0.00    -0.070 NA
HETATM    2  N2  LIG X 999      47.765 123.075  20.311  1.00  0.00    -0.162 NA
HETATM    3  N3  LIG X 999      48.441 123.672  19.475  1.00  0.00     0.068 N 
ENDROOT
BRANCH   1   4
HETATM    4  C2  LIG X 999      46.132 123.105  22.006  1.00  0.00     0.128 A 
HETATM    5  C1  LIG X 999      44.786 123.044  21.620  1.00  0.00     0.049 A 
HETATM    6  C13 LIG X 999      43.785 123.626  22.405  1.00  0.00    -0.023 A 
HETATM    7  C8  LIG X 999      44.137 124.298  23.606  1.00  0.00    -0.022 A 
HETATM    8  C12 LIG X 999      42.434 123.557  22.011  1.00  0.00     0.021 A 
HETATM    9  C7  LIG X 999      45.482 124.368  23.990  1.00  0.00     0.052 A 
HETATM   10  C9  LIG X 999      43.134 124.897  24.394  1.00  0.00     0.021 A 
HETATM   11  C3  LIG X 999      46.487 123.768  23.206  1.00  0.00     0.113 A 
HETATM   12  C10 LIG X 999      41.807 124.801  23.973  1.00  0.00    -0.024 A 
HETATM   13  C11 LIG X 999      41.469 124.154  22.823  1.00  0.00    -0.024 A 
HETATM   14  C17 LIG X 999      40.606 125.366  24.624  1.00  0.00     0.276 C 
HETATM   15  C14 LIG X 999      40.010 124.226  22.597  1.00  0.00     0.276 C 
HETATM   16  N5  LIG X 999      39.442 124.858  23.830  1.00  0.00    -0.067 N 
HETATM   17  C15 LIG X 999      38.528 125.968  23.475  1.00  0.00     0.272 C 
HETATM   18  C16 LIG X 999      38.691 123.851  24.617  1.00  0.00     0.272 C 
BRANCH  11  19
HETATM   19  O1  LIG X 999      47.836 123.873  23.579  1.00  0.00    -0.259 OA
BRANCH  19  20
HETATM   20  C4  LIG X 999      48.506 125.079  23.838  1.00  0.00     0.367 C 
HETATM   21  O2  LIG X 999      47.867 126.081  24.261  1.00  0.00    -0.238 OA
HETATM   22  N4  LIG X 999      49.931 125.156  23.665  1.00  0.00    -0.336 N 
HETATM   23  C5  LIG X 999      50.639 126.396  23.998  1.00  0.00     0.154 C 
HETATM   24  C6  LIG X 999      50.654 124.000  23.132  1.00  0.00     0.154 C 
ENDBRANCH  19  20
ENDBRANCH  11  19
ENDBRANCH   1   4
TORSDOF 3
