REMARK VINA RESULT:      -7.1      2.194      2.852
REMARK  5 active torsions:
REMARK  status: ('A' for Active; 'I' for Inactive)
REMARK    1  A    between atoms: C6_6  and  C7_7 
REMARK    2  A    between atoms: C7_7  and  N1_8 
REMARK    3  A    between atoms: N4_11  and  C8_12 
REMARK    4  A    between atoms: C8_12  and  C9_13 
REMARK    5  A    between atoms: C9_13  and  N5_14 
ROOT
HETATM    1  N1  LIG X 999      45.804 130.011  20.972  1.00  0.00    -0.052 NA
HETATM    2  N2  LIG X 999      45.375 129.065  21.634  1.00  0.00    -0.160 NA
HETATM    3  N3  LIG X 999      44.949 128.118  22.293  1.00  0.00     0.068 N 
ENDROOT
BRANCH   1   4
HETATM    4  C7  LIG X 999      44.932 130.957  20.330  1.00  0.00     0.191 C 
HETATM    5  N4  LIG X 999      44.184 131.745  21.049  1.00  0.00    -0.267 NA
BRANCH   4   6
HETATM    6  C6  LIG X 999      44.857 131.064  18.853  1.00  0.00     0.015 A 
HETATM    7  C5  LIG X 999      45.876 130.533  18.043  1.00  0.00     0.027 A 
HETATM    8  C4  LIG X 999      45.795 130.627  16.645  1.00  0.00    -0.025 A 
HETATM    9  C3  LIG X 999      46.813 130.105  15.832  1.00  0.00     0.012 A 
HETATM   10  C12 LIG X 999      44.675 131.254  16.047  1.00  0.00    -0.026 A 
HETATM   11  C2  LIG X 999      46.722 130.205  14.441  1.00  0.00     0.001 A 
HETATM   12  C1  LIG X 999      45.617 130.825  13.852  1.00  0.00     0.001 A 
HETATM   13  C13 LIG X 999      44.596 131.347  14.649  1.00  0.00     0.012 A 
HETATM   14  C11 LIG X 999      43.654 131.768  16.858  1.00  0.00     0.013 A 
HETATM   15  C10 LIG X 999      43.743 131.669  18.249  1.00  0.00     0.016 A 
ENDBRANCH   4   6
BRANCH   5  16
HETATM   16  C8  LIG X 999      44.155 131.785  22.511  1.00  0.00     0.181 C 
BRANCH  16  17
HETATM   17  C9  LIG X 999      42.748 131.499  23.044  1.00  0.00     0.288 C 
BRANCH  17  18
HETATM   18  N5  LIG X 999      42.333 130.136  22.726  1.00  0.00     0.079 N 
HETATM   19  H9  LIG X 999      41.373 130.184  22.314  1.00  0.00     0.312 HD
HETATM   20  H10 LIG X 999      42.238 129.605  23.621  1.00  0.00     0.312 HD
ENDBRANCH  17  18
ENDBRANCH  16  17
ENDBRANCH   5  16
ENDBRANCH   1   4
TORSDOF 5
