REMARK VINA RESULT:      -5.1      6.954      8.781
REMARK  1 active torsions:
REMARK  status: ('A' for Active; 'I' for Inactive)
REMARK    1  A    between atoms: N1_2  and  C1_3 
ROOT
HETATM    1  C1  LIG X 999      43.946 127.368  23.365  1.00  0.00     0.120 C 
HETATM    2  C2  LIG X 999      42.726 127.825  23.863  1.00  0.00     0.057 C 
HETATM    3  C3  LIG X 999      41.601 126.987  23.867  1.00  0.00    -0.045 C 
HETATM    4  C4  LIG X 999      40.275 127.658  24.128  1.00  0.00     0.049 C 
HETATM    5  C5  LIG X 999      41.751 125.614  23.491  1.00  0.00     0.008 C 
HETATM    6  C6  LIG X 999      40.749 124.599  23.651  1.00  0.00    -0.013 C 
HETATM    7  C7  LIG X 999      39.658 124.714  24.545  1.00  0.00     0.013 C 
HETATM    8  C8  LIG X 999      38.679 123.721  24.622  1.00  0.00     0.001 C 
HETATM    9  C9  LIG X 999      38.787 122.567  23.851  1.00  0.00     0.001 C 
HETATM   10  C10 LIG X 999      39.903 122.375  23.042  1.00  0.00     0.012 C 
HETATM   11  C11 LIG X 999      40.903 123.360  22.966  1.00  0.00    -0.025 C 
HETATM   12  C12 LIG X 999      42.074 123.087  22.258  1.00  0.00     0.014 C 
HETATM   13  C13 LIG X 999      43.121 123.997  22.260  1.00  0.00     0.031 C 
HETATM   14  C14 LIG X 999      42.982 125.247  22.873  1.00  0.00     0.045 C 
HETATM   15  N2  LIG X 999      44.036 126.115  22.851  1.00  0.00    -0.341 N 
HETATM   16  H12 LIG X 999      44.945 125.814  22.427  1.00  0.00     0.167 HD
ENDROOT
BRANCH   1  17
HETATM   17  N1  LIG X 999      44.985 128.145  23.349  1.00  0.00    -0.284 NA
HETATM   18  H1  LIG X 999      44.920 129.170  23.160  1.00  0.00     0.188 HD
ENDBRANCH   1  17
TORSDOF 1
