REMARK VINA RESULT:      -6.9      1.072      1.308
REMARK  5 active torsions:
REMARK  status: ('A' for Active; 'I' for Inactive)
REMARK    1  A    between atoms: C6_6  and  C7_7 
REMARK       I    between atoms: C7_7  and  N1_9 
REMARK    2  A    between atoms: N1_9  and  C8_11 
REMARK    3  A    between atoms: C8_11  and  C9_12 
REMARK    4  A    between atoms: C9_12  and  N2_13 
REMARK    5  A    between atoms: C13_19  and  N5_20 
ROOT
HETATM    1  N2  LIG X 999      47.393 131.337  13.394  1.00  0.00    -0.114 NA
HETATM    2  N3  LIG X 999      48.010 130.272  13.404  1.00  0.00    -0.168 NA
HETATM    3  N4  LIG X 999      48.626 129.207  13.414  1.00  0.00     0.068 N 
ENDROOT
BRANCH   1   4
HETATM    4  C9  LIG X 999      46.513 131.694  14.498  1.00  0.00     0.208 C 
BRANCH   4   5
HETATM    5  C8  LIG X 999      45.909 130.433  15.116  1.00  0.00     0.147 C 
BRANCH   5   6
HETATM    6  N1  LIG X 999      45.858 130.538  16.574  1.00  0.00    -0.355 N 
HETATM    7  C7  LIG X 999      44.764 131.165  17.265  1.00  0.00     0.251 C 
HETATM    8  O1  LIG X 999      43.849 131.728  16.602  1.00  0.00    -0.268 OA
HETATM    9  H4  LIG X 999      46.664 130.151  17.114  1.00  0.00     0.162 HD
BRANCH   7  10
HETATM   10  C6  LIG X 999      44.697 131.178  18.746  1.00  0.00     0.032 A 
HETATM   11  C1  LIG X 999      45.779 130.699  19.499  1.00  0.00     0.017 A 
HETATM   12  C2  LIG X 999      45.735 130.711  20.894  1.00  0.00     0.011 A 
HETATM   13  C3  LIG X 999      44.614 131.216  21.570  1.00  0.00    -0.024 A 
HETATM   14  C4  LIG X 999      43.512 131.696  20.822  1.00  0.00    -0.049 A 
HETATM   15  C13 LIG X 999      44.579 131.146  23.081  1.00  0.00     0.179 C 
HETATM   16  C5  LIG X 999      43.573 131.689  19.418  1.00  0.00     0.024 A 
HETATM   17  C10 LIG X 999      42.316 132.331  21.492  1.00  0.00     0.039 C 
HETATM   18  C11 LIG X 999      42.187 131.946  22.968  1.00  0.00     0.007 C 
HETATM   19  C12 LIG X 999      43.532 132.103  23.678  1.00  0.00     0.035 C 
BRANCH  15  20
HETATM   20  N5  LIG X 999      44.306 129.767  23.481  1.00  0.00    -0.105 NA
HETATM   21  N6  LIG X 999      43.172 129.293  23.404  1.00  0.00    -0.167 NA
HETATM   22  N7  LIG X 999      42.039 128.819  23.327  1.00  0.00     0.068 N 
ENDBRANCH  15  20
ENDBRANCH   7  10
ENDBRANCH   5   6
ENDBRANCH   4   5
ENDBRANCH   1   4
TORSDOF 5
