REMARK VINA RESULT:      -7.9      1.737      6.403
REMARK  3 active torsions:
REMARK  status: ('A' for Active; 'I' for Inactive)
REMARK    1  A    between atoms: C3_3  and  N1_4 
REMARK    2  A    between atoms: N1_4  and  C6_7 
REMARK    3  A    between atoms: C6_7  and  C7_8 
ROOT
HETATM    1  C1  LIG X 999      41.563 133.225  20.560  1.00  0.00     0.013 C 
HETATM    2  C2  LIG X 999      42.338 132.566  19.913  1.00  0.00    -0.089 C 
HETATM    3  C3  LIG X 999      43.286 131.761  19.118  1.00  0.00     0.329 C 
ENDROOT
BRANCH   3   4
HETATM    4  N1  LIG X 999      44.497 131.338  19.885  1.00  0.00    -0.061 N 
HETATM    5  C4  LIG X 999      44.057 130.819  21.205  1.00  0.00     0.273 C 
HETATM    6  C5  LIG X 999      45.366 132.518  20.138  1.00  0.00     0.273 C 
BRANCH   4   7
HETATM    7  C6  LIG X 999      45.305 130.304  19.163  1.00  0.00     0.276 C 
BRANCH   7   8
HETATM    8  C7  LIG X 999      45.670 130.670  17.735  1.00  0.00    -0.032 A 
HETATM    9  C8  LIG X 999      45.202 131.868  17.169  1.00  0.00     0.010 A 
HETATM   10  C9  LIG X 999      45.531 132.211  15.855  1.00  0.00     0.013 A 
HETATM   11  C10 LIG X 999      46.325 131.355  15.080  1.00  0.00    -0.026 A 
HETATM   12  C11 LIG X 999      46.662 131.691  13.760  1.00  0.00     0.012 A 
HETATM   13  C15 LIG X 999      46.787 130.137  15.634  1.00  0.00    -0.025 A 
HETATM   14  C12 LIG X 999      47.451 130.825  12.997  1.00  0.00     0.001 A 
HETATM   15  C13 LIG X 999      47.907 129.621  13.542  1.00  0.00     0.001 A 
HETATM   16  C14 LIG X 999      47.576 129.276  14.855  1.00  0.00     0.012 A 
HETATM   17  C16 LIG X 999      46.450 129.800  16.953  1.00  0.00     0.021 A 
ENDBRANCH   7   8
ENDBRANCH   4   7
ENDBRANCH   3   4
TORSDOF 3
