REMARK VINA RESULT:      -7.4      1.134      3.147
REMARK  5 active torsions:
REMARK  status: ('A' for Active; 'I' for Inactive)
REMARK    1  A    between atoms: C6_6  and  C7_7 
REMARK    2  A    between atoms: C7_7  and  N1_8 
REMARK    3  A    between atoms: N4_11  and  C8_12 
REMARK    4  A    between atoms: C8_12  and  C9_13 
REMARK    5  A    between atoms: C9_13  and  N5_14 
ROOT
HETATM    1  N1  LIG X 999      42.931 132.062  17.861  1.00  0.00    -0.052 NA
HETATM    2  N2  LIG X 999      42.113 132.425  18.706  1.00  0.00    -0.160 NA
HETATM    3  N3  LIG X 999      41.295 132.788  19.550  1.00  0.00     0.068 N 
ENDROOT
BRANCH   1   4
HETATM    4  C7  LIG X 999      44.224 131.571  18.230  1.00  0.00     0.191 C 
HETATM    5  N4  LIG X 999      44.630 131.689  19.465  1.00  0.00    -0.267 NA
BRANCH   4   6
HETATM    6  C6  LIG X 999      45.067 130.981  17.171  1.00  0.00     0.015 A 
HETATM    7  C5  LIG X 999      45.599 131.783  16.150  1.00  0.00     0.027 A 
HETATM    8  C4  LIG X 999      46.412 131.217  15.156  1.00  0.00    -0.025 A 
HETATM    9  C3  LIG X 999      46.936 132.009  14.123  1.00  0.00     0.012 A 
HETATM   10  C12 LIG X 999      46.710 129.833  15.199  1.00  0.00    -0.026 A 
HETATM   11  C2  LIG X 999      47.744 131.433  13.138  1.00  0.00     0.001 A 
HETATM   12  C1  LIG X 999      48.036 130.066  13.178  1.00  0.00     0.001 A 
HETATM   13  C13 LIG X 999      47.523 129.267  14.203  1.00  0.00     0.012 A 
HETATM   14  C11 LIG X 999      46.196 129.043  16.237  1.00  0.00     0.013 A 
HETATM   15  C10 LIG X 999      45.386 129.617  17.221  1.00  0.00     0.016 A 
ENDBRANCH   4   6
BRANCH   5  16
HETATM   16  C8  LIG X 999      45.943 131.320  20.004  1.00  0.00     0.178 C 
BRANCH  16  17
HETATM   17  C9  LIG X 999      45.880 130.015  20.812  1.00  0.00     0.251 C 
BRANCH  17  18
HETATM   18  N5  LIG X 999      44.948 130.121  21.936  1.00  0.00    -0.078 N 
HETATM   19  H9  LIG X 999      44.768 131.131  22.135  1.00  0.00     0.274 HD
HETATM   20  H10 LIG X 999      44.041 129.659  21.699  1.00  0.00     0.274 HD
HETATM   21  H11 LIG X 999      45.360 129.677  22.789  1.00  0.00     0.274 HD
ENDBRANCH  17  18
ENDBRANCH  16  17
ENDBRANCH   5  16
ENDBRANCH   1   4
TORSDOF 5
