REMARK VINA RESULT:      -4.6      2.237      3.530
REMARK  6 active torsions:
REMARK  status: ('A' for Active; 'I' for Inactive)
REMARK    1  A    between atoms: S1_2  and  C1_3 
REMARK    2  A    between atoms: C1_3  and  N2_14 
REMARK    3  A    between atoms: N1_4  and  C2_5 
REMARK    4  A    between atoms: C3_6  and  C4_7 
REMARK    5  A    between atoms: C4_7  and  O2_9 
REMARK    6  A    between atoms: N2_14  and  C8_16 
ROOT
HETATM    1  C1  LIG X 999      42.815 131.749  20.321  1.00  0.00     0.164 C 
HETATM    2  N1  LIG X 999      42.435 131.562  21.552  1.00  0.00    -0.224 NA
ENDROOT
BRANCH   1   3
HETATM    3  S1  LIG X 999      41.587 131.691  19.025  1.00  0.00    -0.105 SA
HETATM    4  H1  LIG X 999      40.571 131.348  19.936  1.00  0.00     0.110 HD
ENDBRANCH   1   3
BRANCH   1   5
HETATM    5  N2  LIG X 999      44.180 132.023  19.970  1.00  0.00    -0.336 N 
HETATM    6  H7  LIG X 999      44.744 132.595  20.639  1.00  0.00     0.168 HD
BRANCH   5   7
HETATM    7  C8  LIG X 999      44.851 131.436  18.840  1.00  0.00     0.034 A 
HETATM    8  C9  LIG X 999      45.789 130.399  19.002  1.00  0.00     0.030 A 
HETATM    9  C10 LIG X 999      46.411 129.825  17.891  1.00  0.00     0.014 A 
HETATM   10  C11 LIG X 999      46.117 130.287  16.601  1.00  0.00    -0.026 A 
HETATM   11  C12 LIG X 999      46.733 129.714  15.477  1.00  0.00     0.012 A 
HETATM   12  C16 LIG X 999      45.190 131.343  16.429  1.00  0.00    -0.024 A 
HETATM   13  C13 LIG X 999      46.434 130.184  14.196  1.00  0.00     0.001 A 
HETATM   14  C14 LIG X 999      45.518 131.227  14.027  1.00  0.00     0.001 A 
HETATM   15  C15 LIG X 999      44.897 131.806  15.137  1.00  0.00     0.012 A 
HETATM   16  C17 LIG X 999      44.571 131.913  17.551  1.00  0.00     0.041 A 
ENDBRANCH   5   7
ENDBRANCH   1   5
BRANCH   2  17
HETATM   17  C2  LIG X 999      43.292 131.451  22.699  1.00  0.00     0.083 A 
HETATM   18  C3  LIG X 999      43.481 130.253  23.385  1.00  0.00     0.108 A 
HETATM   19  S2  LIG X 999      44.585 130.531  24.624  1.00  0.00    -0.093 SA
HETATM   20  C6  LIG X 999      44.851 132.157  24.291  1.00  0.00     0.053 A 
HETATM   21  C7  LIG X 999      44.074 132.509  23.196  1.00  0.00     0.040 A 
BRANCH  18  22
HETATM   22  C4  LIG X 999      42.812 128.969  23.125  1.00  0.00     0.302 C 
HETATM   23  O1  LIG X 999      41.579 128.851  23.358  1.00  0.00    -0.259 OA
BRANCH  22  24
HETATM   24  O2  LIG X 999      43.542 127.890  22.616  1.00  0.00    -0.322 OA
HETATM   25  C5  LIG X 999      44.962 127.888  22.547  1.00  0.00     0.213 C 
ENDBRANCH  22  24
ENDBRANCH  18  22
ENDBRANCH   2  17
TORSDOF 6
