MODEL 1
REMARK VINA RESULT:      -7.0      0.000      0.000
REMARK  2 active torsions:
REMARK  status: ('A' for Active; 'I' for Inactive)
REMARK    1  A    between atoms: C9_10  and  N2_11 
REMARK       I    between atoms: N2_11  and  C10_12 
REMARK    2  A    between atoms: C10_12  and  C11_14 
ROOT
HETATM    1  C11 LIG X 999      46.886 130.649  13.327  1.00  0.00     0.282 C 
HETATM    2 CL1  LIG X 999      48.013 131.992  13.015  1.00  0.00    -0.099 Cl
HETATM    3  C12 LIG X 999      47.630 129.498  13.850  1.00  0.00     0.089 C 
HETATM    4  N3  LIG X 999      48.217 128.590  14.264  1.00  0.00    -0.195 NA
ENDROOT
BRANCH   1   5
HETATM    5  C10 LIG X 999      45.842 131.077  14.310  1.00  0.00     0.276 C 
HETATM    6  N2  LIG X 999      46.185 131.224  15.696  1.00  0.00    -0.212 NA
HETATM    7  O1  LIG X 999      44.684 131.362  13.901  1.00  0.00    -0.268 OA
BRANCH   6   8
HETATM    8  C9  LIG X 999      45.272 131.377  16.791  1.00  0.00     0.061 A 
HETATM    9  C8  LIG X 999      43.930 131.755  16.594  1.00  0.00     0.032 A 
HETATM   10  C7  LIG X 999      43.059 131.874  17.681  1.00  0.00     0.014 A 
HETATM   11  C6  LIG X 999      43.510 131.605  18.979  1.00  0.00    -0.025 A 
HETATM   12  C5  LIG X 999      42.638 131.719  20.080  1.00  0.00     0.021 A 
HETATM   13  C14 LIG X 999      44.859 131.198  19.184  1.00  0.00    -0.023 A 
HETATM   14  C4  LIG X 999      43.132 131.437  21.355  1.00  0.00    -0.024 A 
HETATM   15  C3  LIG X 999      42.399 131.469  22.639  1.00  0.00     0.276 C 
HETATM   16  C16 LIG X 999      44.422 131.048  21.551  1.00  0.00    -0.024 A 
HETATM   17  N1  LIG X 999      43.427 131.210  23.697  1.00  0.00    -0.067 N 
HETATM   18  C1  LIG X 999      42.967 130.152  24.625  1.00  0.00     0.272 C 
HETATM   19  C2  LIG X 999      43.683 132.449  24.468  1.00  0.00     0.272 C 
HETATM   20  C17 LIG X 999      44.673 130.784  22.983  1.00  0.00     0.276 C 
HETATM   21  C15 LIG X 999      45.315 130.914  20.485  1.00  0.00     0.021 A 
HETATM   22  C13 LIG X 999      45.721 131.082  18.084  1.00  0.00     0.044 A 
ENDBRANCH   6   8
ENDBRANCH   1   5
TORSDOF 2
ENDMDL
MODEL 2
REMARK VINA RESULT:      -6.1      3.517      8.067
REMARK  2 active torsions:
REMARK  status: ('A' for Active; 'I' for Inactive)
REMARK    1  A    between atoms: C9_10  and  N2_11 
REMARK       I    between atoms: N2_11  and  C10_12 
REMARK    2  A    between atoms: C10_12  and  C11_14 
ROOT
HETATM    1  C11 LIG X 999      43.183 130.896  24.226  1.00  0.00     0.282 C 
HETATM    2 CL1  LIG X 999      42.407 132.448  24.625  1.00  0.00    -0.099 Cl
HETATM    3  C12 LIG X 999      42.232 129.802  24.450  1.00  0.00     0.089 C 
HETATM    4  N3  LIG X 999      41.482 128.939  24.625  1.00  0.00    -0.195 NA
ENDROOT
BRANCH   1   5
HETATM    5  C10 LIG X 999      43.634 130.903  22.799  1.00  0.00     0.276 C 
HETATM    6  N2  LIG X 999      42.993 131.771  21.853  1.00  0.00    -0.212 NA
HETATM    7  O1  LIG X 999      44.614 130.188  22.454  1.00  0.00    -0.268 OA
BRANCH   6   8
HETATM    8  C9  LIG X 999      43.125 131.725  20.426  1.00  0.00     0.061 A 
HETATM    9  C8  LIG X 999      42.066 132.081  19.569  1.00  0.00     0.032 A 
HETATM   10  C7  LIG X 999      42.233 132.046  18.182  1.00  0.00     0.014 A 
HETATM   11  C6  LIG X 999      43.463 131.669  17.628  1.00  0.00    -0.025 A 
HETATM   12  C5  LIG X 999      43.641 131.634  16.231  1.00  0.00     0.021 A 
HETATM   13  C14 LIG X 999      44.546 131.331  18.489  1.00  0.00    -0.023 A 
HETATM   14  C4  LIG X 999      44.886 131.255  15.726  1.00  0.00    -0.024 A 
HETATM   15  C3  LIG X 999      45.302 131.170  14.310  1.00  0.00     0.276 C 
HETATM   16  C16 LIG X 999      45.922 130.932  16.549  1.00  0.00    -0.024 A 
HETATM   17  N1  LIG X 999      46.685 130.593  14.329  1.00  0.00    -0.067 N 
HETATM   18  C1  LIG X 999      47.601 131.404  13.495  1.00  0.00     0.272 C 
HETATM   19  C2  LIG X 999      46.663 129.205  13.812  1.00  0.00     0.272 C 
HETATM   20  C17 LIG X 999      47.127 130.600  15.760  1.00  0.00     0.276 C 
HETATM   21  C15 LIG X 999      45.789 130.962  17.939  1.00  0.00     0.021 A 
HETATM   22  C13 LIG X 999      44.364 131.371  19.878  1.00  0.00     0.044 A 
ENDBRANCH   6   8
ENDBRANCH   1   5
TORSDOF 2
ENDMDL
MODEL 3
REMARK VINA RESULT:      -5.6      4.195      7.976
REMARK  2 active torsions:
REMARK  status: ('A' for Active; 'I' for Inactive)
REMARK    1  A    between atoms: C9_10  and  N2_11 
REMARK       I    between atoms: N2_11  and  C10_12 
REMARK    2  A    between atoms: C10_12  and  C11_14 
ROOT
HETATM    1  C11 LIG X 999      44.705 127.283  24.450  1.00  0.00     0.282 C 
HETATM    2 CL1  LIG X 999      42.968 126.926  24.613  1.00  0.00    -0.099 Cl
HETATM    3  C12 LIG X 999      45.471 126.036  24.548  1.00  0.00     0.089 C 
HETATM    4  N3  LIG X 999      46.075 125.052  24.625  1.00  0.00    -0.195 NA
ENDROOT
BRANCH   1   5
HETATM    5  C10 LIG X 999      44.968 127.946  23.135  1.00  0.00     0.276 C 
HETATM    6  N2  LIG X 999      44.795 129.365  23.006  1.00  0.00    -0.212 NA
HETATM    7  O1  LIG X 999      45.395 127.260  22.167  1.00  0.00    -0.268 OA
BRANCH   6   8
HETATM    8  C9  LIG X 999      44.759 130.114  21.782  1.00  0.00     0.061 A 
HETATM    9  C8  LIG X 999      44.193 131.402  21.714  1.00  0.00     0.032 A 
HETATM   10  C7  LIG X 999      44.193 132.114  20.512  1.00  0.00     0.014 A 
HETATM   11  C6  LIG X 999      44.769 131.558  19.362  1.00  0.00    -0.025 A 
HETATM   12  C5  LIG X 999      44.776 132.270  18.146  1.00  0.00     0.021 A 
HETATM   13  C14 LIG X 999      45.364 130.267  19.430  1.00  0.00    -0.023 A 
HETATM   14  C4  LIG X 999      45.365 131.677  17.029  1.00  0.00    -0.024 A 
HETATM   15  C3  LIG X 999      45.504 132.243  15.670  1.00  0.00     0.276 C 
HETATM   16  C16 LIG X 999      45.934 130.442  17.092  1.00  0.00    -0.024 A 
HETATM   17  N1  LIG X 999      46.090 131.146  14.834  1.00  0.00    -0.067 N 
HETATM   18  C1  LIG X 999      47.251 131.642  14.061  1.00  0.00     0.272 C 
HETATM   19  C2  LIG X 999      45.070 130.628  13.892  1.00  0.00     0.272 C 
HETATM   20  C17 LIG X 999      46.508 130.066  15.783  1.00  0.00     0.276 C 
HETATM   21  C15 LIG X 999      45.956 129.708  18.280  1.00  0.00     0.021 A 
HETATM   22  C13 LIG X 999      45.359 129.564  20.643  1.00  0.00     0.044 A 
ENDBRANCH   6   8
ENDBRANCH   1   5
TORSDOF 2
ENDMDL
MODEL 4
REMARK VINA RESULT:      -5.3      7.932     10.601
REMARK  2 active torsions:
REMARK  status: ('A' for Active; 'I' for Inactive)
REMARK    1  A    between atoms: C9_10  and  N2_11 
REMARK       I    between atoms: N2_11  and  C10_12 
REMARK    2  A    between atoms: C10_12  and  C11_14 
ROOT
HETATM    1  C11 LIG X 999      39.025 125.886  24.487  1.00  0.00     0.282 C 
HETATM    2 CL1  LIG X 999      37.788 126.693  23.492  1.00  0.00    -0.099 Cl
HETATM    3  C12 LIG X 999      38.862 124.432  24.385  1.00  0.00     0.089 C 
HETATM    4  N3  LIG X 999      38.733 123.285  24.304  1.00  0.00    -0.195 NA
ENDROOT
BRANCH   1   5
HETATM    5  C10 LIG X 999      40.391 126.284  24.024  1.00  0.00     0.276 C 
HETATM    6  N2  LIG X 999      41.254 125.306  23.423  1.00  0.00    -0.212 NA
HETATM    7  O1  LIG X 999      40.750 127.489  24.112  1.00  0.00    -0.268 OA
BRANCH   6   8
HETATM    8  C9  LIG X 999      42.657 125.451  23.160  1.00  0.00     0.061 A 
HETATM    9  C8  LIG X 999      43.331 126.670  23.363  1.00  0.00     0.032 A 
HETATM   10  C7  LIG X 999      44.702 126.772  23.117  1.00  0.00     0.014 A 
HETATM   11  C6  LIG X 999      45.426 125.656  22.678  1.00  0.00    -0.025 A 
HETATM   12  C5  LIG X 999      46.810 125.749  22.431  1.00  0.00     0.021 A 
HETATM   13  C14 LIG X 999      44.756 124.413  22.494  1.00  0.00    -0.023 A 
HETATM   14  C4  LIG X 999      47.489 124.609  21.998  1.00  0.00    -0.024 A 
HETATM   15  C3  LIG X 999      48.931 124.470  21.702  1.00  0.00     0.276 C 
HETATM   16  C16 LIG X 999      46.848 123.420  21.822  1.00  0.00    -0.024 A 
HETATM   17  N1  LIG X 999      49.100 123.084  21.158  1.00  0.00    -0.067 N 
HETATM   18  C1  LIG X 999      50.209 122.385  21.844  1.00  0.00     0.272 C 
HETATM   19  C2  LIG X 999      49.391 123.143  19.706  1.00  0.00     0.272 C 
HETATM   20  C17 LIG X 999      47.801 122.376  21.392  1.00  0.00     0.276 C 
HETATM   21  C15 LIG X 999      45.480 123.284  22.065  1.00  0.00     0.021 A 
HETATM   22  C13 LIG X 999      43.380 124.325  22.745  1.00  0.00     0.044 A 
ENDBRANCH   6   8
ENDBRANCH   1   5
TORSDOF 2
ENDMDL
MODEL 5
REMARK VINA RESULT:      -5.2      8.231      9.176
REMARK  2 active torsions:
REMARK  status: ('A' for Active; 'I' for Inactive)
REMARK    1  A    between atoms: C9_10  and  N2_11 
REMARK       I    between atoms: N2_11  and  C10_12 
REMARK    2  A    between atoms: C10_12  and  C11_14 
ROOT
HETATM    1  C11 LIG X 999      51.015 124.265  20.333  1.00  0.00     0.282 C 
HETATM    2 CL1  LIG X 999      52.145 123.781  21.621  1.00  0.00    -0.099 Cl
HETATM    3  C12 LIG X 999      51.409 123.627  19.072  1.00  0.00     0.089 C 
HETATM    4  N3  LIG X 999      51.719 123.123  18.077  1.00  0.00    -0.195 NA
ENDROOT
BRANCH   1   5
HETATM    5  C10 LIG X 999      49.621 123.864  20.700  1.00  0.00     0.276 C 
HETATM    6  N2  LIG X 999      48.973 124.482  21.821  1.00  0.00    -0.212 NA
HETATM    7  O1  LIG X 999      49.006 123.028  19.984  1.00  0.00    -0.268 OA
BRANCH   6   8
HETATM    8  C9  LIG X 999      47.762 124.048  22.455  1.00  0.00     0.061 A 
HETATM    9  C8  LIG X 999      47.749 123.008  23.404  1.00  0.00     0.032 A 
HETATM   10  C7  LIG X 999      46.554 122.624  24.019  1.00  0.00     0.014 A 
HETATM   11  C6  LIG X 999      45.357 123.280  23.708  1.00  0.00    -0.025 A 
HETATM   12  C5  LIG X 999      44.149 122.901  24.325  1.00  0.00     0.021 A 
HETATM   13  C14 LIG X 999      45.366 124.349  22.768  1.00  0.00    -0.023 A 
HETATM   14  C4  LIG X 999      42.981 123.586  23.985  1.00  0.00    -0.024 A 
HETATM   15  C3  LIG X 999      41.618 123.376  24.519  1.00  0.00     0.276 C 
HETATM   16  C16 LIG X 999      42.990 124.609  23.086  1.00  0.00    -0.024 A 
HETATM   17  N1  LIG X 999      40.729 124.284  23.726  1.00  0.00    -0.067 N 
HETATM   18  C1  LIG X 999      39.862 125.081  24.623  1.00  0.00     0.272 C 
HETATM   19  C2  LIG X 999      39.877 123.488  22.812  1.00  0.00     0.272 C 
HETATM   20  C17 LIG X 999      41.634 125.178  22.934  1.00  0.00     0.276 C 
HETATM   21  C15 LIG X 999      44.168 125.021  22.459  1.00  0.00     0.021 A 
HETATM   22  C13 LIG X 999      46.572 124.725  22.158  1.00  0.00     0.044 A 
ENDBRANCH   6   8
ENDBRANCH   1   5
TORSDOF 2
ENDMDL
MODEL 6
REMARK VINA RESULT:      -4.8      8.069     10.660
REMARK  2 active torsions:
REMARK  status: ('A' for Active; 'I' for Inactive)
REMARK    1  A    between atoms: C9_10  and  N2_11 
REMARK       I    between atoms: N2_11  and  C10_12 
REMARK    2  A    between atoms: C10_12  and  C11_14 
ROOT
HETATM    1  C11 LIG X 999      41.098 127.097  24.299  1.00  0.00     0.282 C 
HETATM    2 CL1  LIG X 999      41.802 128.670  23.851  1.00  0.00    -0.099 Cl
HETATM    3  C12 LIG X 999      39.695 127.050  23.874  1.00  0.00     0.089 C 
HETATM    4  N3  LIG X 999      38.589 127.012  23.538  1.00  0.00    -0.195 NA
ENDROOT
BRANCH   1   5
HETATM    5  C10 LIG X 999      41.870 125.990  23.651  1.00  0.00     0.276 C 
HETATM    6  N2  LIG X 999      43.187 125.669  24.123  1.00  0.00    -0.212 NA
HETATM    7  O1  LIG X 999      41.332 125.311  22.735  1.00  0.00    -0.268 OA
BRANCH   6   8
HETATM    8  C9  LIG X 999      44.147 124.826  23.469  1.00  0.00     0.061 A 
HETATM    9  C8  LIG X 999      43.826 123.523  23.044  1.00  0.00     0.032 A 
HETATM   10  C7  LIG X 999      44.778 122.736  22.390  1.00  0.00     0.014 A 
HETATM   11  C6  LIG X 999      46.060 123.242  22.138  1.00  0.00    -0.025 A 
HETATM   12  C5  LIG X 999      47.025 122.456  21.477  1.00  0.00     0.021 A 
HETATM   13  C14 LIG X 999      46.384 124.567  22.544  1.00  0.00    -0.023 A 
HETATM   14  C4  LIG X 999      48.288 123.005  21.246  1.00  0.00    -0.024 A 
HETATM   15  C3  LIG X 999      49.436 122.377  20.557  1.00  0.00     0.276 C 
HETATM   16  C16 LIG X 999      48.598 124.272  21.634  1.00  0.00    -0.024 A 
HETATM   17  N1  LIG X 999      50.570 123.346  20.700  1.00  0.00    -0.067 N 
HETATM   18  C1  LIG X 999      51.218 123.587  19.391  1.00  0.00     0.272 C 
HETATM   19  C2  LIG X 999      51.578 122.810  21.645  1.00  0.00     0.272 C 
HETATM   20  C17 LIG X 999      49.981 124.612  21.241  1.00  0.00     0.276 C 
HETATM   21  C15 LIG X 999      47.667 125.086  22.283  1.00  0.00     0.021 A 
HETATM   22  C13 LIG X 999      45.419 125.346  23.198  1.00  0.00     0.044 A 
ENDBRANCH   6   8
ENDBRANCH   1   5
TORSDOF 2
ENDMDL
MODEL 7
REMARK VINA RESULT:      -4.8      7.910      9.088
REMARK  2 active torsions:
REMARK  status: ('A' for Active; 'I' for Inactive)
REMARK    1  A    between atoms: C9_10  and  N2_11 
REMARK       I    between atoms: N2_11  and  C10_12 
REMARK    2  A    between atoms: C10_12  and  C11_14 
ROOT
HETATM    1  C11 LIG X 999      52.281 123.495  19.525  1.00  0.00     0.282 C 
HETATM    2 CL1  LIG X 999      52.349 124.010  17.822  1.00  0.00    -0.099 Cl
HETATM    3  C12 LIG X 999      53.005 124.461  20.358  1.00  0.00     0.089 C 
HETATM    4  N3  LIG X 999      53.575 125.224  21.015  1.00  0.00    -0.195 NA
ENDROOT
BRANCH   1   5
HETATM    5  C10 LIG X 999      50.856 123.395  19.971  1.00  0.00     0.276 C 
HETATM    6  N2  LIG X 999      50.478 123.890  21.264  1.00  0.00    -0.212 NA
HETATM    7  O1  LIG X 999      49.990 122.930  19.182  1.00  0.00    -0.268 OA
BRANCH   6   8
HETATM    8  C9  LIG X 999      49.235 123.653  21.940  1.00  0.00     0.061 A 
HETATM    9  C8  LIG X 999      49.063 122.570  22.823  1.00  0.00     0.032 A 
HETATM   10  C7  LIG X 999      47.846 122.378  23.483  1.00  0.00     0.014 A 
HETATM   11  C6  LIG X 999      46.786 123.272  23.283  1.00  0.00    -0.025 A 
HETATM   12  C5  LIG X 999      45.557 123.088  23.946  1.00  0.00     0.021 A 
HETATM   13  C14 LIG X 999      46.961 124.383  22.410  1.00  0.00    -0.023 A 
HETATM   14  C4  LIG X 999      44.531 124.007  23.717  1.00  0.00    -0.024 A 
HETATM   15  C3  LIG X 999      43.179 124.023  24.316  1.00  0.00     0.276 C 
HETATM   16  C16 LIG X 999      44.697 125.069  22.882  1.00  0.00    -0.024 A 
HETATM   17  N1  LIG X 999      42.449 125.139  23.632  1.00  0.00    -0.067 N 
HETATM   18  C1  LIG X 999      41.795 126.021  24.625  1.00  0.00     0.272 C 
HETATM   19  C2  LIG X 999      41.417 124.586  22.724  1.00  0.00     0.272 C 
HETATM   20  C17 LIG X 999      43.473 125.896  22.844  1.00  0.00     0.276 C 
HETATM   21  C15 LIG X 999      45.903 125.291  22.213  1.00  0.00     0.021 A 
HETATM   22  C13 LIG X 999      48.187 124.563  21.755  1.00  0.00     0.044 A 
ENDBRANCH   6   8
ENDBRANCH   1   5
TORSDOF 2
ENDMDL
MODEL 8
REMARK VINA RESULT:      -4.7      8.430     10.777
REMARK  2 active torsions:
REMARK  status: ('A' for Active; 'I' for Inactive)
REMARK    1  A    between atoms: C9_10  and  N2_11 
REMARK       I    between atoms: N2_11  and  C10_12 
REMARK    2  A    between atoms: C10_12  and  C11_14 
ROOT
HETATM    1  C11 LIG X 999      40.536 126.229  24.624  1.00  0.00     0.282 C 
HETATM    2 CL1  LIG X 999      40.481 127.535  23.415  1.00  0.00    -0.099 Cl
HETATM    3  C12 LIG X 999      39.276 125.479  24.590  1.00  0.00     0.089 C 
HETATM    4  N3  LIG X 999      38.283 124.886  24.563  1.00  0.00    -0.195 NA
ENDROOT
BRANCH   1   5
HETATM    5  C10 LIG X 999      41.687 125.317  24.339  1.00  0.00     0.276 C 
HETATM    6  N2  LIG X 999      42.910 125.856  23.815  1.00  0.00    -0.212 NA
HETATM    7  O1  LIG X 999      41.592 124.091  24.616  1.00  0.00    -0.268 OA
BRANCH   6   8
HETATM    8  C9  LIG X 999      44.003 125.112  23.258  1.00  0.00     0.061 A 
HETATM    9  C8  LIG X 999      43.814 123.857  22.648  1.00  0.00     0.032 A 
HETATM   10  C7  LIG X 999      44.896 123.167  22.095  1.00  0.00     0.014 A 
HETATM   11  C6  LIG X 999      46.181 123.725  22.130  1.00  0.00    -0.025 A 
HETATM   12  C5  LIG X 999      47.277 123.037  21.572  1.00  0.00     0.021 A 
HETATM   13  C14 LIG X 999      46.375 125.004  22.723  1.00  0.00    -0.023 A 
HETATM   14  C4  LIG X 999      48.538 123.635  21.628  1.00  0.00    -0.024 A 
HETATM   15  C3  LIG X 999      49.813 123.111  21.093  1.00  0.00     0.276 C 
HETATM   16  C16 LIG X 999      48.724 124.858  22.196  1.00  0.00    -0.024 A 
HETATM   17  N1  LIG X 999      50.865 124.082  21.535  1.00  0.00    -0.067 N 
HETATM   18  C1  LIG X 999      51.721 124.481  20.395  1.00  0.00     0.272 C 
HETATM   19  C2  LIG X 999      51.713 123.467  22.583  1.00  0.00     0.272 C 
HETATM   20  C17 LIG X 999      50.140 125.268  22.093  1.00  0.00     0.276 C 
HETATM   21  C15 LIG X 999      47.662 125.575  22.751  1.00  0.00     0.021 A 
HETATM   22  C13 LIG X 999      45.280 125.685  23.273  1.00  0.00     0.044 A 
ENDBRANCH   6   8
ENDBRANCH   1   5
TORSDOF 2
ENDMDL
MODEL 9
REMARK VINA RESULT:      -4.6      8.554     10.814
REMARK  2 active torsions:
REMARK  status: ('A' for Active; 'I' for Inactive)
REMARK    1  A    between atoms: C9_10  and  N2_11 
REMARK       I    between atoms: N2_11  and  C10_12 
REMARK    2  A    between atoms: C10_12  and  C11_14 
ROOT
HETATM    1  C11 LIG X 999      41.110 124.080  22.845  1.00  0.00     0.282 C 
HETATM    2 CL1  LIG X 999      40.678 122.375  22.562  1.00  0.00    -0.099 Cl
HETATM    3  C12 LIG X 999      40.199 124.656  23.839  1.00  0.00     0.089 C 
HETATM    4  N3  LIG X 999      39.481 125.111  24.625  1.00  0.00    -0.195 NA
ENDROOT
BRANCH   1   5
HETATM    5  C10 LIG X 999      42.524 124.175  23.325  1.00  0.00     0.276 C 
HETATM    6  N2  LIG X 999      43.322 125.314  22.969  1.00  0.00    -0.212 NA
HETATM    7  O1  LIG X 999      42.983 123.281  24.087  1.00  0.00    -0.268 OA
BRANCH   6   8
HETATM    8  C9  LIG X 999      44.742 125.445  23.127  1.00  0.00     0.061 A 
HETATM    9  C8  LIG X 999      45.309 126.342  24.052  1.00  0.00     0.032 A 
HETATM   10  C7  LIG X 999      46.696 126.430  24.196  1.00  0.00     0.014 A 
HETATM   11  C6  LIG X 999      47.539 125.615  23.430  1.00  0.00    -0.025 A 
HETATM   12  C5  LIG X 999      48.938 125.695  23.571  1.00  0.00     0.021 A 
HETATM   13  C14 LIG X 999      46.972 124.689  22.510  1.00  0.00    -0.023 A 
HETATM   14  C4  LIG X 999      49.737 124.861  22.788  1.00  0.00    -0.024 A 
HETATM   15  C3  LIG X 999      51.212 124.759  22.785  1.00  0.00     0.276 C 
HETATM   16  C16 LIG X 999      49.195 123.975  21.907  1.00  0.00    -0.024 A 
HETATM   17  N1  LIG X 999      51.550 123.812  21.674  1.00  0.00    -0.067 N 
HETATM   18  C1  LIG X 999      52.491 122.770  22.143  1.00  0.00     0.272 C 
HETATM   19  C2  LIG X 999      52.169 124.551  20.549  1.00  0.00     0.272 C 
HETATM   20  C17 LIG X 999      50.257 123.197  21.234  1.00  0.00     0.276 C 
HETATM   21  C15 LIG X 999      47.813 123.858  21.744  1.00  0.00     0.021 A 
HETATM   22  C13 LIG X 999      45.579 124.610  22.375  1.00  0.00     0.044 A 
ENDBRANCH   6   8
ENDBRANCH   1   5
TORSDOF 2
ENDMDL
