REMARK VINA RESULT:      -7.9      0.000      0.000
REMARK  1 active torsions:
REMARK  status: ('A' for Active; 'I' for Inactive)
REMARK    1  A    between atoms: C3_3  and  N1_4 
ROOT
HETATM    1  N1  LIG X 999      47.196 129.729  15.450  1.00  0.00    -0.072 NA
HETATM    2  N2  LIG X 999      47.808 129.579  14.391  1.00  0.00    -0.162 NA
HETATM    3  N3  LIG X 999      48.423 129.431  13.337  1.00  0.00     0.068 N 
ENDROOT
BRANCH   1   4
HETATM    4  C3  LIG X 999      45.964 130.461  15.524  1.00  0.00     0.104 A 
HETATM    5  C2  LIG X 999      45.368 130.842  14.315  1.00  0.00     0.035 A 
HETATM    6  C1  LIG X 999      44.133 131.489  14.295  1.00  0.00     0.003 A 
HETATM    7  C10 LIG X 999      43.472 131.780  15.487  1.00  0.00     0.012 A 
HETATM    8  C9  LIG X 999      44.059 131.452  16.717  1.00  0.00    -0.023 A 
HETATM    9  C4  LIG X 999      45.332 130.802  16.751  1.00  0.00     0.006 A 
HETATM   10  C8  LIG X 999      43.402 131.789  17.917  1.00  0.00     0.021 A 
HETATM   11  C5  LIG X 999      45.941 130.566  18.008  1.00  0.00     0.024 A 
HETATM   12  C6  LIG X 999      45.252 130.911  19.171  1.00  0.00    -0.023 A 
HETATM   13  C7  LIG X 999      44.025 131.492  19.127  1.00  0.00    -0.024 A 
HETATM   14  C14 LIG X 999      45.712 130.774  20.569  1.00  0.00     0.276 C 
HETATM   15  C11 LIG X 999      43.544 131.796  20.492  1.00  0.00     0.276 C 
HETATM   16  N4  LIG X 999      44.546 131.179  21.418  1.00  0.00    -0.067 N 
HETATM   17  C12 LIG X 999      43.962 129.988  22.078  1.00  0.00     0.272 C 
HETATM   18  C13 LIG X 999      44.966 132.148  22.456  1.00  0.00     0.272 C 
ENDBRANCH   1   4
TORSDOF 1
