REMARK VINA RESULT:      -5.2      0.000      0.000
REMARK  3 active torsions:
REMARK  status: ('A' for Active; 'I' for Inactive)
REMARK    1  A    between atoms: C3_3  and  S1_4 
REMARK    2  A    between atoms: S1_4  and  C4_7 
REMARK    3  A    between atoms: C6_9  and  N1_10 
ROOT
HETATM    1  C1  LIG X 999      42.714 131.788  20.051  1.00  0.00     0.013 C 
HETATM    2  C2  LIG X 999      43.492 131.410  20.891  1.00  0.00    -0.102 C 
HETATM    3  C3  LIG X 999      44.433 130.946  21.913  1.00  0.00     0.238 C 
ENDROOT
BRANCH   3   4
HETATM    4  S1  LIG X 999      43.595 130.774  23.479  1.00  0.00     0.186 S 
HETATM    5  O1  LIG X 999      42.518 131.821  23.558  1.00  0.00    -0.222 OA
HETATM    6  O2  LIG X 999      44.557 131.012  24.609  1.00  0.00    -0.222 OA
BRANCH   4   7
HETATM    7  C4  LIG X 999      42.879 129.153  23.620  1.00  0.00     0.073 A 
HETATM    8  C5  LIG X 999      41.546 129.060  24.050  1.00  0.00     0.058 A 
HETATM    9  C6  LIG X 999      40.908 127.825  24.179  1.00  0.00     0.095 A 
HETATM   10  C7  LIG X 999      41.607 126.650  23.870  1.00  0.00     0.046 A 
HETATM   11  C8  LIG X 999      42.935 126.710  23.430  1.00  0.00    -0.022 A 
HETATM   12  C9  LIG X 999      43.619 125.523  23.116  1.00  0.00     0.012 A 
HETATM   13  C13 LIG X 999      43.589 127.966  23.296  1.00  0.00    -0.004 A 
HETATM   14  C10 LIG X 999      44.939 125.568  22.670  1.00  0.00     0.001 A 
HETATM   15  C11 LIG X 999      45.589 126.793  22.531  1.00  0.00     0.001 A 
HETATM   16  C12 LIG X 999      44.925 127.982  22.839  1.00  0.00     0.014 A 
BRANCH   9  17
HETATM   17  N1  LIG X 999      39.545 127.796  24.625  1.00  0.00    -0.073 NA
HETATM   18  N2  LIG X 999      38.625 127.393  23.912  1.00  0.00    -0.162 NA
HETATM   19  N3  LIG X 999      37.705 126.990  23.202  1.00  0.00     0.068 N 
ENDBRANCH   9  17
ENDBRANCH   4   7
ENDBRANCH   3   4
TORSDOF 3
