REMARK VINA RESULT:      -8.5      0.000      0.000
REMARK  6 active torsions:
REMARK  status: ('A' for Active; 'I' for Inactive)
REMARK    1  A    between atoms: C2_2  and  C3_3 
REMARK    2  A    between atoms: C3_3  and  O1_4 
REMARK    3  A    between atoms: O1_4  and  C4_5 
REMARK    4  A    between atoms: C4_5  and  C6_7 
REMARK    5  A    between atoms: C6_7  and  C7_8 
REMARK       I    between atoms: N1_10  and  C9_11 
REMARK    6  A    between atoms: C9_11  and  C10_13 
ROOT
HETATM    1  C7  LIG X 999      43.270 130.521  23.035  1.00  0.00     0.076 A 
HETATM    2  C8  LIG X 999      43.446 130.513  21.667  1.00  0.00     0.150 A 
HETATM    3  N1  LIG X 999      42.888 131.650  21.210  1.00  0.00    -0.213 N 
HETATM    4  C9  LIG X 999      42.792 132.091  19.846  1.00  0.00     0.277 C 
HETATM    5  O2  LIG X 999      41.866 132.883  19.520  1.00  0.00    -0.265 OA
HETATM    6  N2  LIG X 999      42.389 132.300  22.249  1.00  0.00    -0.210 N 
HETATM    7  N3  LIG X 999      42.613 131.648  23.380  1.00  0.00    -0.162 NA
HETATM    8  H20 LIG X 999      41.891 133.217  22.196  1.00  0.00     0.211 HD
ENDROOT
BRANCH   4   9
HETATM    9  C10 LIG X 999      43.754 131.641  18.813  1.00  0.00     0.035 A 
HETATM   10  C11 LIG X 999      44.974 131.060  19.196  1.00  0.00     0.018 A 
HETATM   11  C12 LIG X 999      45.887 130.623  18.233  1.00  0.00     0.013 A 
HETATM   12  C13 LIG X 999      45.590 130.751  16.869  1.00  0.00    -0.026 A 
HETATM   13  C14 LIG X 999      46.500 130.317  15.893  1.00  0.00     0.012 A 
HETATM   14  C18 LIG X 999      44.354 131.317  16.472  1.00  0.00    -0.025 A 
HETATM   15  C15 LIG X 999      46.189 130.444  14.536  1.00  0.00     0.001 A 
HETATM   16  C16 LIG X 999      44.969 131.003  14.145  1.00  0.00     0.001 A 
HETATM   17  C17 LIG X 999      44.053 131.438  15.107  1.00  0.00     0.012 A 
HETATM   18  C19 LIG X 999      43.443 131.751  17.447  1.00  0.00     0.029 A 
ENDBRANCH   4   9
BRANCH   1  19
HETATM   19  C6  LIG X 999      43.784 129.502  24.009  1.00  0.00     0.094 C 
BRANCH  19  20
HETATM   20  C4  LIG X 999      43.642 128.062  23.487  1.00  0.00     0.123 C 
HETATM   21  C5  LIG X 999      45.011 127.390  23.308  1.00  0.00     0.040 C 
BRANCH  20  22
HETATM   22  O1  LIG X 999      42.857 127.310  24.400  1.00  0.00    -0.382 OA
BRANCH  22  23
HETATM   23  C3  LIG X 999      41.539 127.149  23.920  1.00  0.00     0.194 C 
BRANCH  23  24
HETATM   24  C2  LIG X 999      41.263 125.691  23.714  1.00  0.00    -0.011 C 
HETATM   25  C1  LIG X 999      41.859 125.001  22.737  1.00  0.00     0.009 C 
ENDBRANCH  23  24
ENDBRANCH  22  23
ENDBRANCH  20  22
ENDBRANCH  19  20
ENDBRANCH   1  19
TORSDOF 6
