REMARK VINA RESULT:      -4.7      2.596      4.575
REMARK  5 active torsions:
REMARK  status: ('A' for Active; 'I' for Inactive)
REMARK    1  A    between atoms: C3_3  and  O1_4 
REMARK    2  A    between atoms: O1_4  and  C4_5 
REMARK    3  A    between atoms: C5_6  and  C6_7 
REMARK    4  A    between atoms: C12_14  and  N1_15 
REMARK    5  A    between atoms: C15_21  and  N3_22 
ROOT
HETATM    1  C1  LIG X 999      48.347 123.356  20.500  1.00  0.00     0.014 C 
HETATM    2  C2  LIG X 999      48.040 124.218  21.284  1.00  0.00    -0.091 C 
HETATM    3  C3  LIG X 999      47.668 125.266  22.235  1.00  0.00     0.268 C 
ENDROOT
BRANCH   3   4
HETATM    4  O1  LIG X 999      46.669 124.762  23.116  1.00  0.00    -0.339 OA
BRANCH   4   5
HETATM    5  C4  LIG X 999      45.372 125.286  23.247  1.00  0.00     0.085 A 
HETATM    6  C5  LIG X 999      44.254 124.392  23.188  1.00  0.00     0.050 A 
HETATM    7  C7  LIG X 999      42.973 124.955  23.322  1.00  0.00     0.044 A 
HETATM    8  C8  LIG X 999      42.824 126.289  23.499  1.00  0.00     0.021 A 
HETATM    9  C15 LIG X 999      41.583 124.450  23.326  1.00  0.00     0.198 A 
HETATM   10  C9  LIG X 999      41.509 126.594  23.603  1.00  0.00     0.071 A 
HETATM   11  C13 LIG X 999      43.854 127.206  23.565  1.00  0.00     0.006 A 
HETATM   12  C10 LIG X 999      41.103 127.913  23.789  1.00  0.00     0.035 A 
HETATM   13  N2  LIG X 999      40.715 125.415  23.491  1.00  0.00    -0.225 NA
HETATM   14  C11 LIG X 999      42.107 128.905  23.867  1.00  0.00     0.032 A 
HETATM   15  C12 LIG X 999      43.488 128.570  23.756  1.00  0.00     0.037 A 
HETATM   16  C14 LIG X 999      45.161 126.689  23.435  1.00  0.00     0.052 A 
BRANCH   6  17
HETATM   17  C6  LIG X 999      44.418 122.933  22.995  1.00  0.00     0.273 C 
HETATM   18  O2  LIG X 999      44.641 122.439  21.858  1.00  0.00    -0.301 OA
ENDBRANCH   6  17
BRANCH  15  19
HETATM   19  N1  LIG X 999      44.464 129.616  23.841  1.00  0.00    -0.398 N 
HETATM   20  H7  LIG X 999      45.331 129.574  23.262  1.00  0.00     0.156 HD
HETATM   21  H8  LIG X 999      44.352 130.440  24.468  1.00  0.00     0.156 HD
ENDBRANCH  15  19
BRANCH   9  22
HETATM   22  N3  LIG X 999      41.204 123.081  23.171  1.00  0.00    -0.051 NA
HETATM   23  N4  LIG X 999      40.027 122.731  23.264  1.00  0.00    -0.160 NA
HETATM   24  N5  LIG X 999      38.851 122.380  23.356  1.00  0.00     0.068 N 
ENDBRANCH   9  22
ENDBRANCH   4   5
ENDBRANCH   3   4
TORSDOF 5
