REMARK VINA RESULT:      -3.9      5.031      7.731
REMARK  4 active torsions:
REMARK  status: ('A' for Active; 'I' for Inactive)
REMARK    1  A    between atoms: C2_2  and  C3_3 
REMARK    2  A    between atoms: C2_2  and  N1_9 
REMARK    3  A    between atoms: C3_3  and  C4_4 
REMARK       I    between atoms: N1_9  and  C8_10 
REMARK       I    between atoms: C8_10  and  N2_12 
REMARK    4  A    between atoms: N2_12  and  C9_13 
ROOT
HETATM    1  C9  LIG X 999      45.590 131.725  21.821  1.00  0.00     0.056 A 
HETATM    2  C10 LIG X 999      46.403 132.788  22.241  1.00  0.00     0.003 A 
HETATM    3  C11 LIG X 999      46.146 133.473  23.391  1.00  0.00    -0.021 A 
HETATM    4  C12 LIG X 999      45.057 133.164  24.201  1.00  0.00     0.022 A 
HETATM    5  C13 LIG X 999      44.213 132.103  23.824  1.00  0.00    -0.023 A 
HETATM    6  C14 LIG X 999      43.112 131.759  24.622  1.00  0.00     0.012 A 
HETATM    7  C15 LIG X 999      42.274 130.707  24.249  1.00  0.00     0.001 A 
HETATM    8  C16 LIG X 999      42.523 129.990  23.079  1.00  0.00     0.001 A 
HETATM    9  C17 LIG X 999      43.615 130.315  22.270  1.00  0.00     0.014 A 
HETATM   10  C18 LIG X 999      44.478 131.369  22.628  1.00  0.00     0.002 A 
HETATM   11  C19 LIG X 999      47.168 134.516  23.619  1.00  0.00     0.276 C 
HETATM   12  N3  LIG X 999      48.233 134.261  22.600  1.00  0.00    -0.067 N 
HETATM   13  C20 LIG X 999      49.416 133.643  23.244  1.00  0.00     0.272 C 
HETATM   14  C21 LIG X 999      48.645 135.524  21.946  1.00  0.00     0.272 C 
HETATM   15  C22 LIG X 999      47.639 133.312  21.607  1.00  0.00     0.278 C 
ENDROOT
BRANCH   1  16
HETATM   16  N2  LIG X 999      45.917 130.982  20.639  1.00  0.00    -0.307 N 
HETATM   17  C8  LIG X 999      45.390 131.320  19.350  1.00  0.00     0.321 C 
HETATM   18  N1  LIG X 999      45.800 130.571  18.198  1.00  0.00    -0.338 N 
HETATM   19  O1  LIG X 999      44.553 132.258  19.235  1.00  0.00    -0.247 OA
HETATM   20  H10 LIG X 999      46.525 129.827  18.323  1.00  0.00     0.164 HD
HETATM   21  H11 LIG X 999      46.467 130.100  20.741  1.00  0.00     0.170 HD
BRANCH  18  22
HETATM   22  C2  LIG X 999      45.338 130.871  16.839  1.00  0.00     0.086 C 
HETATM   23  C1  LIG X 999      43.864 131.279  16.883  1.00  0.00     0.032 C 
BRANCH  22  24
HETATM   24  C3  LIG X 999      45.533 129.646  15.932  1.00  0.00     0.071 C 
BRANCH  24  25
HETATM   25  C4  LIG X 999      46.487 129.941  14.815  1.00  0.00    -0.016 A 
HETATM   26  C5  LIG X 999      47.550 129.139  14.417  1.00  0.00     0.015 A 
HETATM   27  C6  LIG X 999      48.295 129.696  13.372  1.00  0.00     0.008 A 
HETATM   28  C7  LIG X 999      47.835 130.939  12.958  1.00  0.00     0.050 A 
HETATM   29  S1  LIG X 999      46.497 131.346  13.892  1.00  0.00    -0.106 SA
ENDBRANCH  24  25
ENDBRANCH  22  24
ENDBRANCH  18  22
ENDBRANCH   1  16
TORSDOF 4
