REMARK VINA RESULT:      -7.1      4.910      6.678
REMARK  3 active torsions:
REMARK  status: ('A' for Active; 'I' for Inactive)
REMARK    1  A    between atoms: C6_6  and  C7_7 
REMARK    2  A    between atoms: C7_7  and  C8_9 
REMARK    3  A    between atoms: C8_9  and  N1_10 
ROOT
HETATM    1  N1  LIG X 999      43.433 130.125  22.442  1.00  0.00    -0.108 NA
HETATM    2  N2  LIG X 999      42.745 129.981  23.453  1.00  0.00    -0.167 NA
HETATM    3  N3  LIG X 999      42.058 129.838  24.463  1.00  0.00     0.068 N 
ENDROOT
BRANCH   1   4
HETATM    4  C8  LIG X 999      43.919 131.441  22.041  1.00  0.00     0.272 C 
BRANCH   4   5
HETATM    5  C7  LIG X 999      43.400 131.813  20.676  1.00  0.00     0.181 C 
HETATM    6  O1  LIG X 999      42.323 132.465  20.587  1.00  0.00    -0.290 OA
BRANCH   5   7
HETATM    7  C6  LIG X 999      44.140 131.454  19.436  1.00  0.00     0.012 A 
HETATM    8  C5  LIG X 999      43.616 131.740  18.158  1.00  0.00     0.027 A 
HETATM    9  C4  LIG X 999      44.327 131.394  16.998  1.00  0.00    -0.025 A 
HETATM   10  C3  LIG X 999      43.804 131.679  15.727  1.00  0.00     0.012 A 
HETATM   11  C11 LIG X 999      45.582 130.752  17.109  1.00  0.00    -0.026 A 
HETATM   12  C2  LIG X 999      44.520 131.331  14.578  1.00  0.00     0.001 A 
HETATM   13  C1  LIG X 999      45.761 130.696  14.689  1.00  0.00     0.001 A 
HETATM   14  C12 LIG X 999      46.292 130.406  15.949  1.00  0.00     0.012 A 
HETATM   15  C10 LIG X 999      46.103 130.464  18.377  1.00  0.00     0.013 A 
HETATM   16  C9  LIG X 999      45.390 130.812  19.527  1.00  0.00     0.016 A 
ENDBRANCH   5   7
ENDBRANCH   4   5
ENDBRANCH   1   4
TORSDOF 3
