REMARK VINA RESULT:      -8.2      4.380      6.110
REMARK  6 active torsions:
REMARK  status: ('A' for Active; 'I' for Inactive)
REMARK    1  A    between atoms: C4_5  and  C5_6 
REMARK       I    between atoms: C5_6  and  N2_8 
REMARK    2  A    between atoms: N2_8  and  C6_9 
REMARK    3  A    between atoms: C6_9  and  O2_10 
REMARK    4  A    between atoms: O2_10  and  C7_11 
REMARK    5  A    between atoms: C7_11  and  O4_13 
REMARK    6  A    between atoms: O4_13  and  C8_14 
ROOT
HETATM    1  C7  LIG X 999      45.071 131.449  19.682  1.00  0.00     0.413 C 
HETATM    2  O3  LIG X 999      44.043 132.128  19.950  1.00  0.00    -0.229 OA
ENDROOT
BRANCH   1   3
HETATM    3  O2  LIG X 999      46.239 131.603  20.433  1.00  0.00    -0.276 OA
BRANCH   3   4
HETATM    4  C6  LIG X 999      46.349 132.470  21.560  1.00  0.00     0.334 C 
BRANCH   4   5
HETATM    5  N2  LIG X 999      47.393 133.462  21.330  1.00  0.00    -0.224 NA
HETATM    6  C5  LIG X 999      47.895 134.353  22.332  1.00  0.00     0.292 C 
HETATM    7  O1  LIG X 999      47.526 134.241  23.531  1.00  0.00    -0.264 OA
BRANCH   6   8
HETATM    8  C4  LIG X 999      48.862 135.395  21.960  1.00  0.00     0.119 A 
HETATM    9  C3  LIG X 999      48.738 136.291  20.910  1.00  0.00     0.055 A 
HETATM   10  C2  LIG X 999      49.894 137.047  20.957  1.00  0.00     0.112 A 
HETATM   11  N1  LIG X 999      50.644 136.621  21.992  1.00  0.00    -0.307 N 
HETATM   12  C1  LIG X 999      51.974 137.101  22.340  1.00  0.00     0.177 C 
HETATM   13  N3  LIG X 999      50.030 135.615  22.592  1.00  0.00    -0.294 N 
HETATM   14  H15 LIG X 999      50.411 135.084  23.408  1.00  0.00     0.187 HD
ENDBRANCH   6   8
ENDBRANCH   4   5
ENDBRANCH   3   4
ENDBRANCH   1   3
BRANCH   1  15
HETATM   15  O4  LIG X 999      45.081 130.561  18.600  1.00  0.00    -0.256 OA
BRANCH  15  16
HETATM   16  C8  LIG X 999      45.588 130.842  17.323  1.00  0.00     0.082 A 
HETATM   17  C9  LIG X 999      45.328 132.057  16.662  1.00  0.00     0.038 A 
HETATM   18  C10 LIG X 999      45.845 132.294  15.385  1.00  0.00     0.015 A 
HETATM   19  C11 LIG X 999      46.621 131.317  14.745  1.00  0.00    -0.026 A 
HETATM   20  C12 LIG X 999      47.147 131.546  13.464  1.00  0.00     0.012 A 
HETATM   21  C16 LIG X 999      46.871 130.086  15.396  1.00  0.00    -0.023 A 
HETATM   22  C13 LIG X 999      47.914 130.561  12.835  1.00  0.00     0.001 A 
HETATM   23  C14 LIG X 999      48.162 129.345  13.477  1.00  0.00     0.001 A 
HETATM   24  C15 LIG X 999      47.643 129.105  14.753  1.00  0.00     0.012 A 
HETATM   25  C17 LIG X 999      46.347 129.857  16.677  1.00  0.00     0.049 A 
ENDBRANCH  15  16
ENDBRANCH   1  15
TORSDOF 6
