REMARK VINA RESULT:      -8.9      3.700      7.276
REMARK  2 active torsions:
REMARK  status: ('A' for Active; 'I' for Inactive)
REMARK    1  A    between atoms: C6_6  and  C7_7 
REMARK    2  A    between atoms: C8_11  and  N3_12 
ROOT
HETATM    1  N3  LIG X 999      42.831 131.785  21.369  1.00  0.00    -0.025 NA
HETATM    2  N4  LIG X 999      43.000 131.797  22.588  1.00  0.00    -0.158 NA
HETATM    3  N5  LIG X 999      43.167 131.809  23.807  1.00  0.00     0.068 N 
ENDROOT
BRANCH   1   4
HETATM    4  C8  LIG X 999      43.879 131.392  20.481  1.00  0.00     0.302 A 
HETATM    5  N2  LIG X 999      45.002 130.752  20.851  1.00  0.00    -0.236 N 
HETATM    6  N1  LIG X 999      45.718 130.563  19.756  1.00  0.00    -0.145 NA
HETATM    7  H5  LIG X 999      45.280 130.448  21.809  1.00  0.00     0.193 HD
HETATM    8  C7  LIG X 999      44.997 131.102  18.749  1.00  0.00     0.202 A 
HETATM    9  O1  LIG X 999      43.866 131.613  19.190  1.00  0.00    -0.253 OA
BRANCH   8  10
HETATM   10  C6  LIG X 999      45.421 131.119  17.335  1.00  0.00     0.020 A 
HETATM   11  C5  LIG X 999      46.395 130.218  16.871  1.00  0.00     0.028 A 
HETATM   12  C4  LIG X 999      46.795 130.237  15.525  1.00  0.00    -0.025 A 
HETATM   13  C3  LIG X 999      47.768 129.340  15.056  1.00  0.00     0.012 A 
HETATM   14  C11 LIG X 999      46.214 131.169  14.632  1.00  0.00    -0.026 A 
HETATM   15  C2  LIG X 999      48.159 129.368  13.714  1.00  0.00     0.001 A 
HETATM   16  C1  LIG X 999      47.584 130.288  12.833  1.00  0.00     0.001 A 
HETATM   17  C12 LIG X 999      46.615 131.186  13.287  1.00  0.00     0.012 A 
HETATM   18  C10 LIG X 999      45.243 132.065  15.100  1.00  0.00     0.013 A 
HETATM   19  C9  LIG X 999      44.851 132.039  16.441  1.00  0.00     0.017 A 
ENDBRANCH   8  10
ENDBRANCH   1   4
TORSDOF 2
