REMARK VINA RESULT:      -4.7      7.598      8.209
REMARK  1 active torsions:
REMARK  status: ('A' for Active; 'I' for Inactive)
REMARK    1  A    between atoms: C12_14  and  N2_15 
ROOT
HETATM    1  C1  LIG X 999      48.383 124.106  21.857  1.00  0.00     0.001 A 
HETATM    2  C2  LIG X 999      48.154 125.393  22.337  1.00  0.00     0.001 A 
HETATM    3  C3  LIG X 999      46.861 125.806  22.669  1.00  0.00     0.013 A 
HETATM    4  C4  LIG X 999      45.762 124.929  22.528  1.00  0.00    -0.012 A 
HETATM    5  C5  LIG X 999      46.015 123.610  22.034  1.00  0.00    -0.025 A 
HETATM    6  C6  LIG X 999      47.323 123.218  21.706  1.00  0.00     0.012 A 
HETATM    7  C7  LIG X 999      44.961 122.690  21.871  1.00  0.00     0.013 A 
HETATM    8  C8  LIG X 999      43.652 123.048  22.186  1.00  0.00     0.021 A 
HETATM    9  C9  LIG X 999      43.408 124.328  22.665  1.00  0.00     0.020 A 
HETATM   10  S1  LIG X 999      41.914 124.944  23.098  1.00  0.00    -0.076 SA
HETATM   11  C10 LIG X 999      42.493 126.457  23.536  1.00  0.00     0.118 A 
HETATM   12  C11 LIG X 999      41.637 127.504  24.024  1.00  0.00     0.109 C 
HETATM   13  N1  LIG X 999      40.942 128.343  24.416  1.00  0.00    -0.191 NA
HETATM   14  C12 LIG X 999      43.886 126.504  23.348  1.00  0.00     0.133 A 
HETATM   15  C13 LIG X 999      44.415 125.281  22.847  1.00  0.00     0.026 A 
ENDROOT
BRANCH  14  16
HETATM   16  N2  LIG X 999      44.694 127.658  23.628  1.00  0.00    -0.070 NA
HETATM   17  N3  LIG X 999      44.682 128.681  22.942  1.00  0.00    -0.162 NA
HETATM   18  N4  LIG X 999      44.678 129.707  22.264  1.00  0.00     0.068 N 
ENDBRANCH  14  16
TORSDOF 1
