REMARK VINA RESULT:      -6.9      2.299      7.590
REMARK  7 active torsions:
REMARK  status: ('A' for Active; 'I' for Inactive)
REMARK    1  A    between atoms: C14_14  and  N1_15 
REMARK    2  A    between atoms: N1_15  and  C15_17 
REMARK    3  A    between atoms: C15_17  and  C16_18 
REMARK    4  A    between atoms: C16_18  and  C17_19 
REMARK    5  A    between atoms: C17_19  and  C18_20 
REMARK    6  A    between atoms: C18_20  and  C19_21 
REMARK    7  A    between atoms: C19_21  and  N2_22 
ROOT
HETATM    1  C1  LIG X 999      42.246 123.787  24.046  1.00  0.00     0.001 C 
HETATM    2  C2  LIG X 999      41.295 124.803  24.050  1.00  0.00     0.001 C 
HETATM    3  C3  LIG X 999      41.664 126.116  23.747  1.00  0.00     0.013 C 
HETATM    4  C4  LIG X 999      43.012 126.454  23.481  1.00  0.00    -0.013 C 
HETATM    5  C5  LIG X 999      43.942 125.382  23.364  1.00  0.00    -0.025 C 
HETATM    6  C6  LIG X 999      43.561 124.069  23.684  1.00  0.00     0.012 C 
HETATM    7  C7  LIG X 999      45.228 125.618  22.872  1.00  0.00     0.014 C 
HETATM    8  C8  LIG X 999      45.590 126.886  22.442  1.00  0.00     0.031 C 
HETATM    9  C9  LIG X 999      44.720 127.973  22.596  1.00  0.00     0.045 C 
HETATM   10  C10 LIG X 999      43.454 127.795  23.221  1.00  0.00     0.008 C 
HETATM   11  C11 LIG X 999      42.740 128.980  23.577  1.00  0.00    -0.045 C 
HETATM   12  C12 LIG X 999      41.634 129.027  24.604  1.00  0.00     0.049 C 
HETATM   13  C13 LIG X 999      43.161 130.216  23.065  1.00  0.00     0.056 C 
HETATM   14  C14 LIG X 999      44.350 130.321  22.326  1.00  0.00     0.101 C 
HETATM   15  N3  LIG X 999      45.113 129.204  22.158  1.00  0.00    -0.342 N 
HETATM   16  H28 LIG X 999      46.033 129.289  21.665  1.00  0.00     0.167 HD
ENDROOT
BRANCH  14  17
HETATM   17  N1  LIG X 999      44.770 131.463  21.830  1.00  0.00    -0.376 N 
HETATM   18  H11 LIG X 999      44.485 132.351  22.306  1.00  0.00     0.161 HD
BRANCH  17  19
HETATM   19  C15 LIG X 999      45.615 131.634  20.642  1.00  0.00     0.121 C 
BRANCH  19  20
HETATM   20  C16 LIG X 999      44.760 131.711  19.371  1.00  0.00     0.020 C 
BRANCH  20  21
HETATM   21  C17 LIG X 999      45.367 130.858  18.247  1.00  0.00     0.004 C 
BRANCH  21  22
HETATM   22  C18 LIG X 999      45.430 131.601  16.900  1.00  0.00     0.035 C 
BRANCH  22  23
HETATM   23  C19 LIG X 999      46.121 130.800  15.777  1.00  0.00     0.216 C 
HETATM   24  C21 LIG X 999      45.371 129.476  15.545  1.00  0.00     0.042 C 
BRANCH  23  25
HETATM   25  N2  LIG X 999      46.171 131.614  14.547  1.00  0.00     0.083 N 
HETATM   26  H21 LIG X 999      45.235 131.629  14.080  1.00  0.00     0.315 HD
HETATM   27  C20 LIG X 999      47.166 131.115  13.595  1.00  0.00     0.307 C 
ENDBRANCH  23  25
ENDBRANCH  22  23
ENDBRANCH  21  22
ENDBRANCH  20  21
ENDBRANCH  19  20
ENDBRANCH  17  19
ENDBRANCH  14  17
TORSDOF 7
