REMARK VINA RESULT:      -7.1      2.658      5.501
REMARK  1 active torsions:
REMARK  status: ('A' for Active; 'I' for Inactive)
REMARK    1  A    between atoms: C11_13  and  N2_14 
ROOT
HETATM    1  N2  LIG X 999      45.000 131.013  22.029  1.00  0.00    -0.053 NA
HETATM    2  N3  LIG X 999      44.258 130.279  22.683  1.00  0.00    -0.160 NA
HETATM    3  N4  LIG X 999      43.519 129.545  23.336  1.00  0.00     0.068 N 
ENDROOT
BRANCH   1   4
HETATM    4  C11 LIG X 999      44.963 131.020  20.601  1.00  0.00     0.175 A 
HETATM    5  C10 LIG X 999      43.912 131.500  19.833  1.00  0.00     0.026 A 
HETATM    6  C5  LIG X 999      44.299 131.313  18.548  1.00  0.00     0.017 A 
HETATM    7  C9  LIG X 999      42.676 132.075  20.125  1.00  0.00     0.016 A 
HETATM    8  C4  LIG X 999      45.529 130.743  18.532  1.00  0.00     0.046 A 
HETATM    9  C6  LIG X 999      43.549 131.651  17.443  1.00  0.00     0.005 A 
HETATM   10  C3  LIG X 999      46.191 130.426  17.257  1.00  0.00     0.033 A 
HETATM   11  N5  LIG X 999      45.962 130.551  19.798  1.00  0.00    -0.337 N 
HETATM   12  C2  LIG X 999      45.542 130.718  16.107  1.00  0.00     0.034 A 
HETATM   13  C1  LIG X 999      44.179 131.349  16.120  1.00  0.00     0.059 A 
HETATM   14  N1  LIG X 999      43.590 131.614  14.996  1.00  0.00    -0.300 NA
HETATM   15  H1  LIG X 999      42.646 132.051  14.933  1.00  0.00     0.187 HD
HETATM   16  H7  LIG X 999      46.872 130.132  20.093  1.00  0.00     0.167 HD
HETATM   17  C7  LIG X 999      42.287 132.238  17.691  1.00  0.00     0.015 A 
HETATM   18  C8  LIG X 999      41.856 132.446  19.031  1.00  0.00     0.002 A 
ENDBRANCH   1   4
TORSDOF 1
