MODEL 1
REMARK VINA RESULT:      -6.1      0.000      0.000
REMARK  3 active torsions:
REMARK  status: ('A' for Active; 'I' for Inactive)
REMARK    1  A    between atoms: C3_3  and  S1_4 
REMARK    2  A    between atoms: S1_4  and  C4_7 
REMARK    3  A    between atoms: C6_9  and  N1_10 
ROOT
HETATM    1  C1  LIG X 999      43.159 132.043  19.863  1.00  0.00     0.013 C 
HETATM    2  C2  LIG X 999      42.980 131.822  21.035  1.00  0.00    -0.102 C 
HETATM    3  C3  LIG X 999      42.754 131.565  22.459  1.00  0.00     0.238 C 
ENDROOT
BRANCH   3   4
HETATM    4  S1  LIG X 999      43.908 130.360  23.096  1.00  0.00     0.186 S 
HETATM    5  O1  LIG X 999      44.574 130.873  24.342  1.00  0.00    -0.222 OA
HETATM    6  O2  LIG X 999      44.982 130.167  22.062  1.00  0.00    -0.222 OA
BRANCH   4   7
HETATM    7  C4  LIG X 999      43.099 128.801  23.386  1.00  0.00     0.073 A 
HETATM    8  C5  LIG X 999      41.771 128.847  23.841  1.00  0.00     0.058 A 
HETATM    9  C6  LIG X 999      41.041 127.683  24.091  1.00  0.00     0.095 A 
HETATM   10  C7  LIG X 999      41.645 126.433  23.896  1.00  0.00     0.046 A 
HETATM   11  C8  LIG X 999      42.973 126.346  23.461  1.00  0.00    -0.021 A 
HETATM   12  C9  LIG X 999      43.564 125.079  23.289  1.00  0.00     0.022 A 
HETATM   13  C13 LIG X 999      43.725 127.536  23.202  1.00  0.00    -0.004 A 
HETATM   14  C10 LIG X 999      44.892 125.007  22.880  1.00  0.00    -0.024 A 
HETATM   15  C11 LIG X 999      45.618 126.126  22.636  1.00  0.00    -0.024 A 
HETATM   16  C17 LIG X 999      45.703 123.795  22.635  1.00  0.00     0.276 C 
HETATM   17  C12 LIG X 999      45.071 127.401  22.781  1.00  0.00     0.023 A 
HETATM   18  C14 LIG X 999      46.989 125.774  22.208  1.00  0.00     0.276 C 
HETATM   19  N4  LIG X 999      47.091 124.289  22.369  1.00  0.00    -0.067 N 
HETATM   20  C15 LIG X 999      47.643 123.667  21.144  1.00  0.00     0.272 C 
HETATM   21  C16 LIG X 999      47.974 123.963  23.515  1.00  0.00     0.272 C 
BRANCH   9  22
HETATM   22  N1  LIG X 999      39.687 127.804  24.548  1.00  0.00    -0.073 NA
HETATM   23  N2  LIG X 999      38.764 127.155  24.053  1.00  0.00    -0.162 NA
HETATM   24  N3  LIG X 999      37.841 126.509  23.561  1.00  0.00     0.068 N 
ENDBRANCH   9  22
ENDBRANCH   4   7
ENDBRANCH   3   4
TORSDOF 3
ENDMDL
MODEL 2
REMARK VINA RESULT:      -5.3      3.497      5.932
REMARK  3 active torsions:
REMARK  status: ('A' for Active; 'I' for Inactive)
REMARK    1  A    between atoms: C3_3  and  S1_4 
REMARK    2  A    between atoms: S1_4  and  C4_7 
REMARK    3  A    between atoms: C6_9  and  N1_10 
ROOT
HETATM    1  C1  LIG X 999      48.941 124.593  21.782  1.00  0.00     0.013 C 
HETATM    2  C2  LIG X 999      47.789 124.861  22.018  1.00  0.00    -0.102 C 
HETATM    3  C3  LIG X 999      46.393 125.201  22.303  1.00  0.00     0.238 C 
ENDROOT
BRANCH   3   4
HETATM    4  S1  LIG X 999      45.510 123.810  22.992  1.00  0.00     0.186 S 
HETATM    5  O1  LIG X 999      46.262 123.234  24.160  1.00  0.00    -0.222 OA
HETATM    6  O2  LIG X 999      45.442 122.744  21.934  1.00  0.00    -0.222 OA
BRANCH   4   7
HETATM    7  C4  LIG X 999      43.854 124.275  23.451  1.00  0.00     0.073 A 
HETATM    8  C5  LIG X 999      42.942 123.234  23.688  1.00  0.00     0.058 A 
HETATM    9  C6  LIG X 999      41.621 123.487  24.062  1.00  0.00     0.095 A 
HETATM   10  C7  LIG X 999      41.183 124.812  24.196  1.00  0.00     0.046 A 
HETATM   11  C8  LIG X 999      42.057 125.877  23.950  1.00  0.00    -0.021 A 
HETATM   12  C9  LIG X 999      41.588 127.200  24.074  1.00  0.00     0.022 A 
HETATM   13  C13 LIG X 999      43.412 125.622  23.568  1.00  0.00    -0.004 A 
HETATM   14  C10 LIG X 999      42.461 128.250  23.803  1.00  0.00    -0.024 A 
HETATM   15  C11 LIG X 999      43.747 128.023  23.434  1.00  0.00    -0.024 A 
HETATM   16  C17 LIG X 999      42.186 129.700  23.872  1.00  0.00     0.276 C 
HETATM   17  C12 LIG X 999      44.257 126.731  23.311  1.00  0.00     0.023 A 
HETATM   18  C14 LIG X 999      44.458 129.301  23.216  1.00  0.00     0.276 C 
HETATM   19  N4  LIG X 999      43.414 130.368  23.334  1.00  0.00    -0.067 N 
HETATM   20  C15 LIG X 999      43.867 131.445  24.244  1.00  0.00     0.272 C 
HETATM   21  C16 LIG X 999      43.132 130.950  22.001  1.00  0.00     0.272 C 
BRANCH   9  22
HETATM   22  N1  LIG X 999      40.746 122.375  24.295  1.00  0.00    -0.073 NA
HETATM   23  N2  LIG X 999      39.519 122.478  24.241  1.00  0.00    -0.162 NA
HETATM   24  N3  LIG X 999      38.295 122.578  24.186  1.00  0.00     0.068 N 
ENDBRANCH   9  22
ENDBRANCH   4   7
ENDBRANCH   3   4
TORSDOF 3
ENDMDL
MODEL 3
REMARK VINA RESULT:      -3.3      2.670      3.246
REMARK  3 active torsions:
REMARK  status: ('A' for Active; 'I' for Inactive)
REMARK    1  A    between atoms: C3_3  and  S1_4 
REMARK    2  A    between atoms: S1_4  and  C4_7 
REMARK    3  A    between atoms: C6_9  and  N1_10 
ROOT
HETATM    1  C1  LIG X 999      45.275 131.619  16.837  1.00  0.00     0.013 C 
HETATM    2  C2  LIG X 999      44.831 131.625  17.958  1.00  0.00    -0.102 C 
HETATM    3  C3  LIG X 999      44.282 131.640  19.316  1.00  0.00     0.238 C 
ENDROOT
BRANCH   3   4
HETATM    4  S1  LIG X 999      45.401 130.880  20.481  1.00  0.00     0.186 S 
HETATM    5  O1  LIG X 999      46.494 131.837  20.866  1.00  0.00    -0.222 OA
HETATM    6  O2  LIG X 999      46.051 129.712  19.793  1.00  0.00    -0.222 OA
BRANCH   4   7
HETATM    7  C4  LIG X 999      44.521 130.289  21.912  1.00  0.00     0.073 A 
HETATM    8  C5  LIG X 999      43.635 131.187  22.530  1.00  0.00     0.058 A 
HETATM    9  C6  LIG X 999      42.888 130.823  23.652  1.00  0.00     0.095 A 
HETATM   10  C7  LIG X 999      43.027 129.536  24.188  1.00  0.00     0.046 A 
HETATM   11  C8  LIG X 999      43.914 128.619  23.612  1.00  0.00    -0.021 A 
HETATM   12  C9  LIG X 999      44.051 127.337  24.179  1.00  0.00     0.022 A 
HETATM   13  C13 LIG X 999      44.682 128.987  22.461  1.00  0.00    -0.004 A 
HETATM   14  C10 LIG X 999      44.954 126.444  23.611  1.00  0.00    -0.024 A 
HETATM   15  C11 LIG X 999      45.692 126.780  22.523  1.00  0.00    -0.024 A 
HETATM   16  C17 LIG X 999      45.253 125.060  24.036  1.00  0.00     0.276 C 
HETATM   17  C12 LIG X 999      45.580 128.033  21.920  1.00  0.00     0.023 A 
HETATM   18  C14 LIG X 999      46.560 125.655  22.115  1.00  0.00     0.276 C 
HETATM   19  N4  LIG X 999      46.401 124.617  23.182  1.00  0.00    -0.067 N 
HETATM   20  C15 LIG X 999      46.128 123.290  22.585  1.00  0.00     0.272 C 
HETATM   21  C16 LIG X 999      47.636 124.534  23.997  1.00  0.00     0.272 C 
BRANCH   9  22
HETATM   22  N1  LIG X 999      41.997 131.789  24.228  1.00  0.00    -0.073 NA
HETATM   23  N2  LIG X 999      41.255 132.493  23.541  1.00  0.00    -0.162 NA
HETATM   24  N3  LIG X 999      40.512 133.196  22.858  1.00  0.00     0.068 N 
ENDBRANCH   9  22
ENDBRANCH   4   7
ENDBRANCH   3   4
TORSDOF 3
ENDMDL
