REMARK VINA RESULT:      -5.9      2.284      6.882
REMARK  2 active torsions:
REMARK  status: ('A' for Active; 'I' for Inactive)
REMARK    1  A    between atoms: C2_2  and  N1_3 
REMARK    2  A    between atoms: C3_6  and  O1_7 
ROOT
HETATM    1  N1  LIG X 999      43.817 131.557  23.232  1.00  0.00    -0.070 NA
HETATM    2  N2  LIG X 999      44.042 130.518  23.854  1.00  0.00    -0.162 NA
HETATM    3  N3  LIG X 999      44.268 129.481  24.476  1.00  0.00     0.068 N 
ENDROOT
BRANCH   1   4
HETATM    4  C2  LIG X 999      43.752 131.598  21.798  1.00  0.00     0.127 A 
HETATM    5  C1  LIG X 999      44.796 131.089  21.004  1.00  0.00     0.049 A 
HETATM    6  C11 LIG X 999      44.715 131.137  19.607  1.00  0.00    -0.023 A 
HETATM    7  C6  LIG X 999      43.568 131.706  18.989  1.00  0.00    -0.022 A 
HETATM    8  C10 LIG X 999      45.759 130.626  18.810  1.00  0.00     0.021 A 
HETATM    9  C5  LIG X 999      42.531 132.212  19.784  1.00  0.00     0.051 A 
HETATM   10  C7  LIG X 999      43.481 131.754  17.583  1.00  0.00     0.021 A 
HETATM   11  C3  LIG X 999      42.617 132.161  21.190  1.00  0.00     0.100 A 
HETATM   12  C8  LIG X 999      44.539 131.244  16.829  1.00  0.00    -0.024 A 
HETATM   13  C9  LIG X 999      45.638 130.699  17.422  1.00  0.00    -0.024 A 
HETATM   14  C15 LIG X 999      44.652 131.170  15.357  1.00  0.00     0.276 C 
HETATM   15  C12 LIG X 999      46.589 130.210  16.401  1.00  0.00     0.276 C 
HETATM   16  N4  LIG X 999      46.033 130.658  15.084  1.00  0.00    -0.067 N 
HETATM   17  C13 LIG X 999      46.873 131.741  14.521  1.00  0.00     0.272 C 
HETATM   18  C14 LIG X 999      45.992 129.532  14.124  1.00  0.00     0.272 C 
BRANCH  11  19
HETATM   19  O1  LIG X 999      41.595 132.659  22.014  1.00  0.00    -0.353 OA
HETATM   20  C4  LIG X 999      40.627 133.622  21.609  1.00  0.00     0.210 C 
ENDBRANCH  11  19
ENDBRANCH   1   4
TORSDOF 2
