REMARK VINA RESULT:      -7.6      3.244      4.427
REMARK  6 active torsions:
REMARK  status: ('A' for Active; 'I' for Inactive)
REMARK    1  A    between atoms: C4_5  and  C5_6 
REMARK       I    between atoms: C5_6  and  N2_8 
REMARK    2  A    between atoms: N2_8  and  C6_9 
REMARK    3  A    between atoms: C6_9  and  O2_10 
REMARK    4  A    between atoms: O2_10  and  C7_11 
REMARK    5  A    between atoms: C7_11  and  O4_13 
REMARK    6  A    between atoms: O4_13  and  C8_14 
ROOT
HETATM    1  C7  LIG X 999      43.780 131.038  22.076  1.00  0.00     0.413 C 
HETATM    2  O3  LIG X 999      43.118 131.959  22.627  1.00  0.00    -0.229 OA
ENDROOT
BRANCH   1   3
HETATM    3  O2  LIG X 999      43.592 129.705  22.453  1.00  0.00    -0.276 OA
BRANCH   3   4
HETATM    4  C6  LIG X 999      44.296 129.077  23.523  1.00  0.00     0.334 C 
BRANCH   4   5
HETATM    5  N2  LIG X 999      45.033 127.920  23.027  1.00  0.00    -0.224 NA
HETATM    6  C5  LIG X 999      44.508 126.589  22.979  1.00  0.00     0.292 C 
HETATM    7  O1  LIG X 999      43.301 126.366  23.266  1.00  0.00    -0.264 OA
BRANCH   6   8
HETATM    8  C4  LIG X 999      45.380 125.478  22.574  1.00  0.00     0.119 A 
HETATM    9  C3  LIG X 999      45.065 124.129  22.625  1.00  0.00     0.055 A 
HETATM   10  C2  LIG X 999      46.198 123.487  22.163  1.00  0.00     0.112 A 
HETATM   11  N1  LIG X 999      47.119 124.418  21.845  1.00  0.00    -0.307 N 
HETATM   12  C1  LIG X 999      48.480 124.157  21.396  1.00  0.00     0.177 C 
HETATM   13  N3  LIG X 999      46.634 125.621  22.105  1.00  0.00    -0.294 N 
HETATM   14  H15 LIG X 999      47.155 126.517  21.974  1.00  0.00     0.187 HD
ENDBRANCH   6   8
ENDBRANCH   4   5
ENDBRANCH   3   4
ENDBRANCH   1   3
BRANCH   1  15
HETATM   15  O4  LIG X 999      44.747 131.332  21.108  1.00  0.00    -0.256 OA
BRANCH  15  16
HETATM   16  C8  LIG X 999      44.525 131.366  19.722  1.00  0.00     0.082 A 
HETATM   17  C9  LIG X 999      43.342 131.884  19.164  1.00  0.00     0.038 A 
HETATM   18  C10 LIG X 999      43.156 131.892  17.778  1.00  0.00     0.015 A 
HETATM   19  C11 LIG X 999      44.146 131.373  16.931  1.00  0.00    -0.026 A 
HETATM   20  C12 LIG X 999      43.971 131.378  15.538  1.00  0.00     0.012 A 
HETATM   21  C16 LIG X 999      45.330 130.834  17.487  1.00  0.00    -0.023 A 
HETATM   22  C13 LIG X 999      44.962 130.852  14.705  1.00  0.00     0.001 A 
HETATM   23  C14 LIG X 999      46.132 130.320  15.253  1.00  0.00     0.001 A 
HETATM   24  C15 LIG X 999      46.318 130.308  16.639  1.00  0.00     0.012 A 
HETATM   25  C17 LIG X 999      45.506 130.830  18.879  1.00  0.00     0.049 A 
ENDBRANCH  15  16
ENDBRANCH   1  15
TORSDOF 6
