REMARK VINA RESULT:      -5.4      3.146      4.781
REMARK  2 active torsions:
REMARK  status: ('A' for Active; 'I' for Inactive)
REMARK    1  A    between atoms: N1_1  and  C1_2 
REMARK    2  A    between atoms: C2_5  and  C3_6 
ROOT
HETATM    1  C3  LIG X 999      43.790 131.045  21.924  1.00  0.00     0.028 A 
HETATM    2  C4  LIG X 999      43.079 132.003  22.669  1.00  0.00     0.017 A 
HETATM    3  C5  LIG X 999      42.752 131.773  24.005  1.00  0.00     0.002 A 
HETATM    4  C6  LIG X 999      43.128 130.585  24.625  1.00  0.00     0.012 A 
HETATM    5  C7  LIG X 999      43.855 129.618  23.918  1.00  0.00    -0.025 A 
HETATM    6  C8  LIG X 999      44.246 128.433  24.562  1.00  0.00     0.012 A 
HETATM    7  C9  LIG X 999      44.997 127.477  23.878  1.00  0.00     0.001 A 
HETATM    8  C10 LIG X 999      45.376 127.699  22.555  1.00  0.00     0.001 A 
HETATM    9  C11 LIG X 999      44.994 128.871  21.899  1.00  0.00     0.013 A 
HETATM   10  C12 LIG X 999      44.207 129.842  22.558  1.00  0.00    -0.011 A 
ENDROOT
BRANCH   1  11
HETATM   11  C2  LIG X 999      44.033 131.327  20.489  1.00  0.00     0.178 A 
HETATM   12  N3  LIG X 999      45.251 131.486  19.933  1.00  0.00    -0.252 N 
HETATM   13  N2  LIG X 999      45.078 131.750  18.649  1.00  0.00    -0.128 NA
HETATM   14  H3  LIG X 999      46.180 131.408  20.403  1.00  0.00     0.191 HD
HETATM   15  C1  LIG X 999      43.743 131.748  18.472  1.00  0.00     0.263 A 
HETATM   16  O1  LIG X 999      43.095 131.494  19.584  1.00  0.00    -0.258 OA
BRANCH  15  17
HETATM   17  N1  LIG X 999      43.110 131.993  17.219  1.00  0.00    -0.362 N 
HETATM   18  H1  LIG X 999      43.399 131.461  16.369  1.00  0.00     0.159 HD
HETATM   19  H2  LIG X 999      42.352 132.706  17.147  1.00  0.00     0.159 HD
ENDBRANCH  15  17
ENDBRANCH   1  11
TORSDOF 2
