REMARK VINA RESULT:      -5.1      2.740      6.079
REMARK  3 active torsions:
REMARK  status: ('A' for Active; 'I' for Inactive)
REMARK    1  A    between atoms: C3_3  and  N1_4 
REMARK    2  A    between atoms: C3_3  and  C4_7 
REMARK    3  A    between atoms: C3_3  and  C14_17 
ROOT
HETATM    1  C1  LIG X 999      45.333 128.331  21.928  1.00  0.00     0.015 C 
HETATM    2  C2  LIG X 999      45.047 129.481  21.700  1.00  0.00    -0.075 C 
HETATM    3  C3  LIG X 999      44.698 130.899  21.419  1.00  0.00     0.183 C 
ENDROOT
BRANCH   3   4
HETATM    4  N1  LIG X 999      45.817 131.717  21.908  1.00  0.00    -0.085 NA
HETATM    5  N2  LIG X 999      46.155 132.766  21.354  1.00  0.00    -0.165 NA
HETATM    6  N3  LIG X 999      46.491 133.812  20.802  1.00  0.00     0.068 N 
ENDBRANCH   3   4
BRANCH   3   7
HETATM    7  C4  LIG X 999      44.529 131.100  19.898  1.00  0.00    -0.012 A 
HETATM    8  C5  LIG X 999      43.370 131.719  19.381  1.00  0.00     0.012 A 
HETATM    9  C6  LIG X 999      43.189 131.882  18.006  1.00  0.00     0.013 A 
HETATM   10  C7  LIG X 999      44.156 131.418  17.107  1.00  0.00    -0.026 A 
HETATM   11  C8  LIG X 999      43.980 131.577  15.723  1.00  0.00     0.012 A 
HETATM   12  C12 LIG X 999      45.316 130.778  17.598  1.00  0.00    -0.025 A 
HETATM   13  C9  LIG X 999      44.949 131.101  14.835  1.00  0.00     0.001 A 
HETATM   14  C10 LIG X 999      46.095 130.466  15.319  1.00  0.00     0.001 A 
HETATM   15  C11 LIG X 999      46.280 130.302  16.695  1.00  0.00     0.012 A 
HETATM   16  C13 LIG X 999      45.491 130.619  18.981  1.00  0.00     0.023 A 
ENDBRANCH   3   7
BRANCH   3  17
HETATM   17  C14 LIG X 999      43.385 131.303  22.212  1.00  0.00    -0.005 C 
HETATM   18  C15 LIG X 999      42.531 132.306  21.397  1.00  0.00     0.018 C 
HETATM   19  C16 LIG X 999      42.498 130.073  22.528  1.00  0.00     0.018 C 
HETATM   20  C17 LIG X 999      43.748 131.986  23.557  1.00  0.00     0.018 C 
ENDBRANCH   3  17
TORSDOF 3
