REMARK VINA RESULT:      -6.8      2.620      7.100
REMARK  2 active torsions:
REMARK  status: ('A' for Active; 'I' for Inactive)
REMARK    1  A    between atoms: C2_2  and  N1_3 
REMARK    2  A    between atoms: C3_6  and  O1_7 
ROOT
HETATM    1  N1  LIG X 999      44.478 130.154  24.022  1.00  0.00    -0.070 NA
HETATM    2  N2  LIG X 999      44.647 128.971  24.323  1.00  0.00    -0.162 NA
HETATM    3  N3  LIG X 999      44.817 127.791  24.625  1.00  0.00     0.068 N 
ENDROOT
BRANCH   1   4
HETATM    4  C2  LIG X 999      44.233 130.578  22.672  1.00  0.00     0.127 A 
HETATM    5  C1  LIG X 999      45.076 130.181  21.617  1.00  0.00     0.049 A 
HETATM    6  C11 LIG X 999      44.821 130.604  20.307  1.00  0.00    -0.023 A 
HETATM    7  C6  LIG X 999      43.703 131.442  20.043  1.00  0.00    -0.022 A 
HETATM    8  C10 LIG X 999      45.663 130.206  19.249  1.00  0.00     0.021 A 
HETATM    9  C5  LIG X 999      42.868 131.834  21.097  1.00  0.00     0.051 A 
HETATM   10  C7  LIG X 999      43.442 131.867  18.725  1.00  0.00     0.021 A 
HETATM   11  C3  LIG X 999      43.127 131.406  22.414  1.00  0.00     0.100 A 
HETATM   12  C8  LIG X 999      44.303 131.457  17.707  1.00  0.00    -0.024 A 
HETATM   13  C9  LIG X 999      45.375 130.655  17.959  1.00  0.00    -0.024 A 
HETATM   14  C15 LIG X 999      44.211 131.761  16.263  1.00  0.00     0.276 C 
HETATM   15  C12 LIG X 999      46.099 130.348  16.708  1.00  0.00     0.276 C 
HETATM   16  N4  LIG X 999      45.451 131.186  15.649  1.00  0.00    -0.067 N 
HETATM   17  C13 LIG X 999      46.365 132.277  15.236  1.00  0.00     0.272 C 
HETATM   18  C14 LIG X 999      45.115 130.365  14.465  1.00  0.00     0.272 C 
BRANCH  11  19
HETATM   19  O1  LIG X 999      42.309 131.782  23.492  1.00  0.00    -0.353 OA
HETATM   20  C4  LIG X 999      42.753 132.523  24.624  1.00  0.00     0.210 C 
ENDBRANCH  11  19
ENDBRANCH   1   4
TORSDOF 2
