REMARK VINA RESULT:      -4.6      3.912      5.579
REMARK  3 active torsions:
REMARK  status: ('A' for Active; 'I' for Inactive)
REMARK    1  A    between atoms: C3_3  and  S1_4 
REMARK    2  A    between atoms: S1_4  and  C4_7 
REMARK    3  A    between atoms: C6_9  and  N1_10 
ROOT
HETATM    1  C1  LIG X 999      47.356 124.033  21.625  1.00  0.00     0.013 C 
HETATM    2  C2  LIG X 999      46.663 124.751  22.300  1.00  0.00    -0.102 C 
HETATM    3  C3  LIG X 999      45.819 125.620  23.124  1.00  0.00     0.238 C 
ENDROOT
BRANCH   3   4
HETATM    4  S1  LIG X 999      44.185 124.918  23.274  1.00  0.00     0.186 S 
HETATM    5  O1  LIG X 999      44.171 124.002  24.467  1.00  0.00    -0.222 OA
HETATM    6  O2  LIG X 999      43.861 124.099  22.056  1.00  0.00    -0.222 OA
BRANCH   4   7
HETATM    7  C4  LIG X 999      42.978 126.205  23.481  1.00  0.00     0.073 A 
HETATM    8  C5  LIG X 999      43.432 127.534  23.509  1.00  0.00     0.058 A 
HETATM    9  C6  LIG X 999      42.546 128.602  23.660  1.00  0.00     0.095 A 
HETATM   10  C7  LIG X 999      41.173 128.350  23.782  1.00  0.00     0.046 A 
HETATM   11  C8  LIG X 999      40.687 127.037  23.749  1.00  0.00    -0.022 A 
HETATM   12  C9  LIG X 999      39.307 126.803  23.865  1.00  0.00     0.012 A 
HETATM   13  C13 LIG X 999      41.585 125.945  23.595  1.00  0.00    -0.004 A 
HETATM   14  C10 LIG X 999      38.808 125.502  23.826  1.00  0.00     0.001 A 
HETATM   15  C11 LIG X 999      39.677 124.423  23.670  1.00  0.00     0.001 A 
HETATM   16  C12 LIG X 999      41.052 124.638  23.555  1.00  0.00     0.014 A 
BRANCH   9  17
HETATM   17  N1  LIG X 999      43.073 129.937  23.683  1.00  0.00    -0.073 NA
HETATM   18  N2  LIG X 999      43.128 130.643  22.676  1.00  0.00    -0.162 NA
HETATM   19  N3  LIG X 999      43.183 131.350  21.671  1.00  0.00     0.068 N 
ENDBRANCH   9  17
ENDBRANCH   4   7
ENDBRANCH   3   4
TORSDOF 3
