REMARK VINA RESULT:      -4.8      0.000      0.000
REMARK  6 active torsions:
REMARK  status: ('A' for Active; 'I' for Inactive)
REMARK    1  A    between atoms: C8_8  and  O1_9 
REMARK    2  A    between atoms: O1_9  and  C9_10 
REMARK    3  A    between atoms: C9_10  and  C10_11 
REMARK    4  A    between atoms: C10_11  and  C11_12 
REMARK    5  A    between atoms: C11_12  and  N1_13 
REMARK    6  A    between atoms: C13_18  and  N4_19 
ROOT
HETATM    1  N1  LIG X 999      43.461 131.676  20.777  1.00  0.00    -0.116 NA
HETATM    2  N2  LIG X 999      44.140 131.659  19.750  1.00  0.00    -0.168 NA
HETATM    3  N3  LIG X 999      44.818 131.646  18.723  1.00  0.00     0.068 N 
ENDROOT
BRANCH   1   4
HETATM    4  C11 LIG X 999      44.038 131.320  22.070  1.00  0.00     0.191 C 
BRANCH   4   5
HETATM    5  C10 LIG X 999      44.701 129.934  22.039  1.00  0.00     0.051 C 
BRANCH   5   6
HETATM    6  C9  LIG X 999      44.399 129.103  23.289  1.00  0.00     0.170 C 
BRANCH   6   7
HETATM    7  O1  LIG X 999      44.538 127.731  22.990  1.00  0.00    -0.384 OA
BRANCH   7   8
HETATM    8  C8  LIG X 999      44.557 126.948  24.173  1.00  0.00     0.146 C 
HETATM    9  C7  LIG X 999      43.138 126.461  24.493  1.00  0.00     0.072 C 
HETATM   10  C5  LIG X 999      42.628 125.475  23.470  1.00  0.00    -0.047 A 
HETATM   11  C4  LIG X 999      43.515 124.693  22.687  1.00  0.00    -0.023 A 
HETATM   12  C6  LIG X 999      41.242 125.283  23.347  1.00  0.00     0.008 A 
HETATM   13  C3  LIG X 999      42.980 123.793  21.746  1.00  0.00     0.010 A 
HETATM   14  C13 LIG X 999      45.021 124.892  22.746  1.00  0.00     0.199 C 
HETATM   15  C2  LIG X 999      41.599 123.626  21.625  1.00  0.00     0.001 A 
HETATM   16  C1  LIG X 999      40.732 124.365  22.429  1.00  0.00     0.001 A 
HETATM   17  C12 LIG X 999      45.468 125.731  23.962  1.00  0.00     0.143 C 
HETATM   18 CL1  LIG X 999      47.159 126.272  23.745  1.00  0.00    -0.120 Cl
BRANCH  14  19
HETATM   19  N4  LIG X 999      45.690 123.593  22.798  1.00  0.00    -0.104 NA
HETATM   20  N5  LIG X 999      46.595 123.312  22.012  1.00  0.00    -0.167 NA
HETATM   21  N6  LIG X 999      47.499 123.030  21.227  1.00  0.00     0.068 N 
ENDBRANCH  14  19
ENDBRANCH   7   8
ENDBRANCH   6   7
ENDBRANCH   5   6
ENDBRANCH   4   5
ENDBRANCH   1   4
TORSDOF 6
