REMARK VINA RESULT:      -7.4      1.593      2.845
REMARK  3 active torsions:
REMARK  status: ('A' for Active; 'I' for Inactive)
REMARK    1  A    between atoms: C7_9  and  C8_10 
REMARK    2  A    between atoms: C9_14  and  N4_15 
REMARK    3  A    between atoms: N7_24  and  C14_25 
ROOT
HETATM    1  N4  LIG X 999      46.881 131.377  13.840  1.00  0.00    -0.025 NA
HETATM    2  N5  LIG X 999      47.655 130.446  13.616  1.00  0.00    -0.158 NA
HETATM    3  N6  LIG X 999      48.427 129.516  13.391  1.00  0.00     0.068 N 
ENDROOT
BRANCH   1   4
HETATM    4  C9  LIG X 999      45.741 131.190  14.676  1.00  0.00     0.302 A 
HETATM    5  N3  LIG X 999      44.720 130.371  14.382  1.00  0.00    -0.236 N 
HETATM    6  N2  LIG X 999      43.855 130.454  15.378  1.00  0.00    -0.145 NA
HETATM    7  H4  LIG X 999      44.609 129.769  13.536  1.00  0.00     0.193 HD
HETATM    8  C8  LIG X 999      44.388 131.341  16.249  1.00  0.00     0.203 A 
HETATM    9  O1  LIG X 999      45.550 131.788  15.826  1.00  0.00    -0.253 OA
BRANCH   8  10
HETATM   10  C7  LIG X 999      43.762 131.706  17.536  1.00  0.00     0.032 A 
HETATM   11  C6  LIG X 999      44.303 131.322  18.802  1.00  0.00     0.020 A 
HETATM   12  C1  LIG X 999      45.632 130.696  19.107  1.00  0.00     0.060 A 
HETATM   13  C5  LIG X 999      43.540 131.627  19.914  1.00  0.00     0.019 A 
HETATM   14  N1  LIG X 999      46.520 130.518  18.183  1.00  0.00    -0.299 NA
HETATM   15  C2  LIG X 999      45.968 130.372  20.536  1.00  0.00     0.034 A 
HETATM   16  H1  LIG X 999      47.462 130.116  18.388  1.00  0.00     0.187 HD
HETATM   17  C3  LIG X 999      45.131 130.694  21.543  1.00  0.00     0.033 A 
HETATM   18  C4  LIG X 999      43.863 131.365  21.208  1.00  0.00     0.048 A 
HETATM   19  N7  LIG X 999      42.895 131.847  22.027  1.00  0.00    -0.324 N 
HETATM   20  C13 LIG X 999      41.977 132.434  21.210  1.00  0.00     0.193 A 
HETATM   21  C12 LIG X 999      42.361 132.299  19.885  1.00  0.00     0.032 A 
HETATM   22  O2  LIG X 999      40.834 133.087  21.656  1.00  0.00    -0.171 OA
HETATM   23  C11 LIG X 999      41.819 132.733  18.682  1.00  0.00     0.018 A 
HETATM   24  C10 LIG X 999      42.529 132.427  17.500  1.00  0.00     0.018 A 
BRANCH  19  25
HETATM   25  C14 LIG X 999      42.890 131.846  23.489  1.00  0.00     0.127 C 
HETATM   26  C15 LIG X 999      42.437 130.489  24.015  1.00  0.00     0.027 C 
ENDBRANCH  19  25
ENDBRANCH   8  10
ENDBRANCH   1   4
TORSDOF 3
