REMARK VINA RESULT:      -6.0      2.143      3.354
REMARK  4 active torsions:
REMARK  status: ('A' for Active; 'I' for Inactive)
REMARK    1  A    between atoms: O1_2  and  C1_3 
REMARK    2  A    between atoms: C1_3  and  O2_4 
REMARK    3  A    between atoms: O2_4  and  C2_5 
REMARK    4  A    between atoms: C5_8  and  N1_9 
ROOT
HETATM    1  N1  LIG X 999      41.427 132.233  19.071  1.00  0.00    -0.205 NA
HETATM    2  C6  LIG X 999      41.385 133.004  20.083  1.00  0.00     0.337 C 
HETATM    3  O3  LIG X 999      41.344 133.754  21.067  1.00  0.00    -0.260 OA
ENDROOT
BRANCH   1   4
HETATM    4  C5  LIG X 999      42.636 131.869  18.377  1.00  0.00     0.072 A 
HETATM    5  C4  LIG X 999      42.696 131.870  16.971  1.00  0.00     0.035 A 
HETATM    6  C3  LIG X 999      43.870 131.517  16.308  1.00  0.00     0.040 A 
HETATM    7  C2  LIG X 999      45.022 131.165  17.027  1.00  0.00     0.091 A 
HETATM    8  C12 LIG X 999      44.977 131.137  18.435  1.00  0.00     0.010 A 
HETATM    9  C7  LIG X 999      43.781 131.495  19.116  1.00  0.00     0.006 A 
HETATM   10  C11 LIG X 999      46.112 130.764  19.180  1.00  0.00     0.015 A 
HETATM   11  C8  LIG X 999      43.761 131.468  20.526  1.00  0.00     0.014 A 
HETATM   12  C9  LIG X 999      44.897 131.095  21.244  1.00  0.00     0.001 A 
HETATM   13  C10 LIG X 999      46.068 130.744  20.574  1.00  0.00     0.001 A 
BRANCH   7  14
HETATM   14  O2  LIG X 999      46.201 130.793  16.361  1.00  0.00    -0.273 OA
BRANCH  14  15
HETATM   15  C1  LIG X 999      46.643 131.329  15.141  1.00  0.00     0.265 C 
HETATM   16  N2  LIG X 999      47.200 130.550  14.251  1.00  0.00    -0.350 N 
HETATM   17  C13 LIG X 999      47.340 129.112  14.519  1.00  0.00     0.153 C 
HETATM   18  C14 LIG X 999      47.683 131.110  12.981  1.00  0.00     0.153 C 
BRANCH  15  19
HETATM   19  O1  LIG X 999      46.529 132.701  14.895  1.00  0.00    -0.327 OA
HETATM   20  H1  LIG X 999      45.629 133.151  14.780  1.00  0.00     0.221 HD
ENDBRANCH  15  19
ENDBRANCH  14  15
ENDBRANCH   7  14
ENDBRANCH   1   4
TORSDOF 4
