REMARK VINA RESULT:      -6.3      2.227      3.797
REMARK  1 active torsions:
REMARK  status: ('A' for Active; 'I' for Inactive)
REMARK    1  A    between atoms: C5_8  and  O1_9 
ROOT
HETATM    1  H1  LIG X 999      41.021 132.845  21.792  1.00  0.00     0.187 HD
HETATM    2  N1  LIG X 999      41.974 132.448  21.633  1.00  0.00    -0.300 NA
HETATM    3  C1  LIG X 999      42.433 132.233  20.442  1.00  0.00     0.059 A 
HETATM    4  C2  LIG X 999      41.607 132.549  19.223  1.00  0.00     0.034 A 
HETATM    5  C3  LIG X 999      42.087 132.324  17.977  1.00  0.00     0.035 A 
HETATM    6  C4  LIG X 999      43.442 131.762  17.838  1.00  0.00     0.071 A 
HETATM    7  N2  LIG X 999      44.128 131.455  16.711  1.00  0.00    -0.224 NA
HETATM    8  C5  LIG X 999      45.322 130.972  17.167  1.00  0.00     0.174 A 
HETATM    9  C6  LIG X 999      45.372 130.980  18.551  1.00  0.00     0.030 A 
HETATM   10  C7  LIG X 999      46.325 130.606  19.500  1.00  0.00     0.017 A 
HETATM   11  C8  LIG X 999      45.986 130.775  20.866  1.00  0.00     0.002 A 
HETATM   12  C9  LIG X 999      44.720 131.306  21.243  1.00  0.00     0.015 A 
HETATM   13  C10 LIG X 999      43.792 131.667  20.242  1.00  0.00     0.005 A 
HETATM   14  C11 LIG X 999      44.180 131.480  18.936  1.00  0.00     0.020 A 
ENDROOT
BRANCH   8  15
HETATM   15  O1  LIG X 999      46.344 130.532  16.334  1.00  0.00    -0.344 OA
HETATM   16  H4  LIG X 999      46.943 129.766  16.613  1.00  0.00     0.219 HD
ENDBRANCH   8  15
TORSDOF 1
