REMARK VINA RESULT:      -7.7      2.629      4.935
REMARK  1 active torsions:
REMARK  status: ('A' for Active; 'I' for Inactive)
REMARK    1  A    between atoms: N1_1  and  C1_2 
ROOT
HETATM    1  C1  LIG X 999      43.020 131.913  20.781  1.00  0.00     0.103 A 
HETATM    2  C2  LIG X 999      44.237 131.249  20.605  1.00  0.00     0.049 A 
HETATM    3  C3  LIG X 999      44.731 131.038  19.314  1.00  0.00     0.001 A 
HETATM    4  C4  LIG X 999      45.946 130.375  19.102  1.00  0.00     0.015 A 
HETATM    5  C5  LIG X 999      46.420 130.175  17.805  1.00  0.00     0.013 A 
HETATM    6  C6  LIG X 999      45.684 130.634  16.702  1.00  0.00    -0.023 A 
HETATM    7  C7  LIG X 999      46.163 130.431  15.398  1.00  0.00     0.012 A 
HETATM    8  C8  LIG X 999      45.429 130.888  14.300  1.00  0.00     0.001 A 
HETATM    9  C9  LIG X 999      44.215 131.550  14.494  1.00  0.00     0.001 A 
HETATM   10  C10 LIG X 999      43.725 131.759  15.786  1.00  0.00     0.015 A 
HETATM   11  C11 LIG X 999      44.451 131.306  16.903  1.00  0.00     0.009 A 
HETATM   12  C12 LIG X 999      43.976 131.506  18.215  1.00  0.00     0.101 A 
HETATM   13  O1  LIG X 999      42.820 132.135  18.427  1.00  0.00    -0.272 OA
HETATM   14  C13 LIG X 999      42.325 132.351  19.642  1.00  0.00     0.314 A 
HETATM   15  O2  LIG X 999      41.225 132.953  19.758  1.00  0.00    -0.257 OA
ENDROOT
BRANCH   1  16
HETATM   16  N1  LIG X 999      42.506 132.135  22.099  1.00  0.00    -0.394 N 
HETATM   17  H1  LIG X 999      41.755 131.528  22.497  1.00  0.00     0.156 HD
HETATM   18  H2  LIG X 999      42.875 132.912  22.692  1.00  0.00     0.156 HD
ENDBRANCH   1  16
TORSDOF 1
