MODEL 1
REMARK VINA RESULT:      -9.0      0.000      0.000
REMARK  5 active torsions:
REMARK  status: ('A' for Active; 'I' for Inactive)
REMARK    1  A    between atoms: O1_2  and  C1_3 
REMARK    2  A    between atoms: C1_3  and  C5_11 
REMARK       I    between atoms: N1_4  and  C2_5 
REMARK    3  A    between atoms: C2_5  and  O3_7 
REMARK    4  A    between atoms: O3_7  and  C3_8 
REMARK    5  A    between atoms: C6_12  and  O4_13 
ROOT
HETATM    1  C5  LIG X 999      43.825 131.786  18.599  1.00  0.00     0.051 A 
HETATM    2  C6  LIG X 999      42.537 132.311  18.841  1.00  0.00     0.081 A 
HETATM    3  C7  LIG X 999      42.023 132.341  20.145  1.00  0.00     0.049 A 
HETATM    4  C8  LIG X 999      42.777 131.850  21.218  1.00  0.00    -0.023 A 
HETATM    5  C9  LIG X 999      42.264 131.878  22.525  1.00  0.00     0.012 A 
HETATM    6  C10 LIG X 999      43.026 131.388  23.590  1.00  0.00     0.001 A 
HETATM    7  C11 LIG X 999      44.302 130.867  23.358  1.00  0.00     0.001 A 
HETATM    8  C12 LIG X 999      44.823 130.834  22.061  1.00  0.00     0.012 A 
HETATM    9  C13 LIG X 999      44.067 131.322  20.984  1.00  0.00    -0.025 A 
HETATM   10  C14 LIG X 999      44.581 131.295  19.679  1.00  0.00     0.031 A 
ENDROOT
BRANCH   1  11
HETATM   11  C1  LIG X 999      44.401 131.755  17.232  1.00  0.00     0.181 C 
HETATM   12  N1  LIG X 999      43.611 131.612  16.208  1.00  0.00    -0.162 NA
HETATM   13  C2  LIG X 999      44.012 131.565  14.833  1.00  0.00     0.390 C 
HETATM   14  O2  LIG X 999      43.127 131.428  13.947  1.00  0.00    -0.236 OA
BRANCH  11  15
HETATM   15  O1  LIG X 999      45.779 131.886  17.048  1.00  0.00    -0.344 OA
HETATM   16  H1  LIG X 999      46.357 132.432  17.676  1.00  0.00     0.219 HD
ENDBRANCH  11  15
BRANCH  13  17
HETATM   17  O3  LIG X 999      45.363 131.658  14.473  1.00  0.00    -0.282 OA
BRANCH  17  18
HETATM   18  C3  LIG X 999      46.073 130.623  13.796  1.00  0.00     0.225 C 
HETATM   19 CL1  LIG X 999      46.272 129.247  14.909  1.00  0.00    -0.095 Cl
HETATM   20  C4  LIG X 999      47.446 131.119  13.351  1.00  0.00     0.057 C 
ENDBRANCH  17  18
ENDBRANCH  13  17
ENDBRANCH   1  11
BRANCH   2  21
HETATM   21  O4  LIG X 999      41.759 132.786  17.785  1.00  0.00    -0.360 OA
HETATM   22  H6  LIG X 999      41.756 133.765  17.523  1.00  0.00     0.217 HD
ENDBRANCH   2  21
TORSDOF 5
ENDMDL
MODEL 2
REMARK VINA RESULT:      -8.2      2.976      7.170
REMARK  5 active torsions:
REMARK  status: ('A' for Active; 'I' for Inactive)
REMARK    1  A    between atoms: O1_2  and  C1_3 
REMARK    2  A    between atoms: C1_3  and  C5_11 
REMARK       I    between atoms: N1_4  and  C2_5 
REMARK    3  A    between atoms: C2_5  and  O3_7 
REMARK    4  A    between atoms: O3_7  and  C3_8 
REMARK    5  A    between atoms: C6_12  and  O4_13 
ROOT
HETATM    1  C5  LIG X 999      45.375 130.938  17.185  1.00  0.00     0.051 A 
HETATM    2  C6  LIG X 999      44.559 131.642  16.273  1.00  0.00     0.081 A 
HETATM    3  C7  LIG X 999      44.889 131.670  14.910  1.00  0.00     0.049 A 
HETATM    4  C8  LIG X 999      46.029 131.007  14.441  1.00  0.00    -0.023 A 
HETATM    5  C9  LIG X 999      46.363 131.035  13.077  1.00  0.00     0.012 A 
HETATM    6  C10 LIG X 999      47.502 130.366  12.619  1.00  0.00     0.001 A 
HETATM    7  C11 LIG X 999      48.314 129.668  13.516  1.00  0.00     0.001 A 
HETATM    8  C12 LIG X 999      47.992 129.633  14.877  1.00  0.00     0.012 A 
HETATM    9  C13 LIG X 999      46.851 130.301  15.349  1.00  0.00    -0.025 A 
HETATM   10  C14 LIG X 999      46.518 130.271  16.711  1.00  0.00     0.031 A 
ENDROOT
BRANCH   1  11
HETATM   11  C1  LIG X 999      45.042 130.879  18.630  1.00  0.00     0.181 C 
HETATM   12  N1  LIG X 999      44.021 131.549  19.079  1.00  0.00    -0.162 NA
HETATM   13  C2  LIG X 999      43.573 131.592  20.440  1.00  0.00     0.390 C 
HETATM   14  O2  LIG X 999      42.560 132.283  20.725  1.00  0.00    -0.236 OA
BRANCH  11  15
HETATM   15  O1  LIG X 999      45.815 130.103  19.496  1.00  0.00    -0.344 OA
HETATM   16  H1  LIG X 999      45.400 129.510  20.205  1.00  0.00     0.219 HD
ENDBRANCH  11  15
BRANCH  13  17
HETATM   17  O3  LIG X 999      44.252 130.888  21.444  1.00  0.00    -0.282 OA
BRANCH  17  18
HETATM   18  C3  LIG X 999      43.615 130.355  22.603  1.00  0.00     0.225 C 
HETATM   19 CL1  LIG X 999      43.665 131.580  23.895  1.00  0.00    -0.095 Cl
HETATM   20  C4  LIG X 999      44.332 129.092  23.073  1.00  0.00     0.057 C 
ENDBRANCH  17  18
ENDBRANCH  13  17
ENDBRANCH   1  11
BRANCH   2  21
HETATM   21  O4  LIG X 999      43.429 132.329  16.720  1.00  0.00    -0.360 OA
HETATM   22  H6  LIG X 999      43.490 133.269  17.091  1.00  0.00     0.217 HD
ENDBRANCH   2  21
TORSDOF 5
ENDMDL
MODEL 3
REMARK VINA RESULT:      -7.8      3.129      6.942
REMARK  5 active torsions:
REMARK  status: ('A' for Active; 'I' for Inactive)
REMARK    1  A    between atoms: O1_2  and  C1_3 
REMARK    2  A    between atoms: C1_3  and  C5_11 
REMARK       I    between atoms: N1_4  and  C2_5 
REMARK    3  A    between atoms: C2_5  and  O3_7 
REMARK    4  A    between atoms: O3_7  and  C3_8 
REMARK    5  A    between atoms: C6_12  and  O4_13 
ROOT
HETATM    1  C5  LIG X 999      44.648 131.183  18.697  1.00  0.00     0.051 A 
HETATM    2  C6  LIG X 999      43.588 131.746  17.953  1.00  0.00     0.081 A 
HETATM    3  C7  LIG X 999      43.641 131.759  16.552  1.00  0.00     0.049 A 
HETATM    4  C8  LIG X 999      44.743 131.219  15.877  1.00  0.00    -0.023 A 
HETATM    5  C9  LIG X 999      44.799 131.233  14.474  1.00  0.00     0.012 A 
HETATM    6  C10 LIG X 999      45.903 130.688  13.810  1.00  0.00     0.001 A 
HETATM    7  C11 LIG X 999      46.955 130.129  14.539  1.00  0.00     0.001 A 
HETATM    8  C12 LIG X 999      46.910 130.110  15.937  1.00  0.00     0.012 A 
HETATM    9  C13 LIG X 999      45.808 130.655  16.615  1.00  0.00    -0.025 A 
HETATM   10  C14 LIG X 999      45.752 130.639  18.016  1.00  0.00     0.031 A 
ENDROOT
BRANCH   1  11
HETATM   11  C1  LIG X 999      44.612 131.141  20.180  1.00  0.00     0.181 C 
HETATM   12  N1  LIG X 999      43.552 131.563  20.806  1.00  0.00    -0.162 NA
HETATM   13  C2  LIG X 999      43.366 131.586  22.227  1.00  0.00     0.390 C 
HETATM   14  O2  LIG X 999      42.277 132.019  22.689  1.00  0.00    -0.236 OA
BRANCH  11  15
HETATM   15  O1  LIG X 999      45.705 130.646  20.894  1.00  0.00    -0.344 OA
HETATM   16  H1  LIG X 999      46.141 131.170  21.643  1.00  0.00     0.219 HD
ENDBRANCH  11  15
BRANCH  13  17
HETATM   17  O3  LIG X 999      44.375 131.147  23.093  1.00  0.00    -0.282 OA
BRANCH  17  18
HETATM   18  C3  LIG X 999      44.242 130.017  23.953  1.00  0.00     0.225 C 
HETATM   19 CL1  LIG X 999      44.448 128.536  22.984  1.00  0.00    -0.095 Cl
HETATM   20  C4  LIG X 999      42.864 130.006  24.610  1.00  0.00     0.057 C 
ENDBRANCH  17  18
ENDBRANCH  13  17
ENDBRANCH   1  11
BRANCH   2  21
HETATM   21  O4  LIG X 999      42.490 132.310  18.604  1.00  0.00    -0.360 OA
HETATM   22  H6  LIG X 999      42.143 133.231  18.364  1.00  0.00     0.217 HD
ENDBRANCH   2  21
TORSDOF 5
ENDMDL
MODEL 4
REMARK VINA RESULT:      -7.2      1.090      2.138
REMARK  5 active torsions:
REMARK  status: ('A' for Active; 'I' for Inactive)
REMARK    1  A    between atoms: O1_2  and  C1_3 
REMARK    2  A    between atoms: C1_3  and  C5_11 
REMARK       I    between atoms: N1_4  and  C2_5 
REMARK    3  A    between atoms: C2_5  and  O3_7 
REMARK    4  A    between atoms: O3_7  and  C3_8 
REMARK    5  A    between atoms: C6_12  and  O4_13 
ROOT
HETATM    1  C5  LIG X 999      44.684 131.427  18.765  1.00  0.00     0.051 A 
HETATM    2  C6  LIG X 999      45.530 130.716  19.644  1.00  0.00     0.081 A 
HETATM    3  C7  LIG X 999      45.206 130.617  21.005  1.00  0.00     0.049 A 
HETATM    4  C8  LIG X 999      44.047 131.222  21.507  1.00  0.00    -0.023 A 
HETATM    5  C9  LIG X 999      43.721 131.125  22.869  1.00  0.00     0.012 A 
HETATM    6  C10 LIG X 999      42.561 131.731  23.359  1.00  0.00     0.001 A 
HETATM    7  C11 LIG X 999      41.719 132.436  22.495  1.00  0.00     0.001 A 
HETATM    8  C12 LIG X 999      42.033 132.540  21.136  1.00  0.00     0.012 A 
HETATM    9  C13 LIG X 999      43.197 131.936  20.632  1.00  0.00    -0.025 A 
HETATM   10  C14 LIG X 999      43.520 132.033  19.271  1.00  0.00     0.031 A 
ENDROOT
BRANCH   1  11
HETATM   11  C1  LIG X 999      44.993 131.536  17.318  1.00  0.00     0.181 C 
HETATM   12  N1  LIG X 999      44.021 131.530  16.454  1.00  0.00    -0.162 NA
HETATM   13  C2  LIG X 999      44.158 131.628  15.030  1.00  0.00     0.390 C 
HETATM   14  O2  LIG X 999      43.119 131.614  14.318  1.00  0.00    -0.236 OA
BRANCH  11  15
HETATM   15  O1  LIG X 999      46.319 131.651  16.891  1.00  0.00    -0.344 OA
HETATM   16  H1  LIG X 999      46.731 131.001  16.234  1.00  0.00     0.219 HD
ENDBRANCH  11  15
BRANCH  13  17
HETATM   17  O3  LIG X 999      45.422 131.726  14.433  1.00  0.00    -0.282 OA
BRANCH  17  18
HETATM   18  C3  LIG X 999      46.038 130.662  13.710  1.00  0.00     0.225 C 
HETATM   19 CL1  LIG X 999      46.184 129.251  14.787  1.00  0.00    -0.095 Cl
HETATM   20  C4  LIG X 999      47.425 131.078  13.228  1.00  0.00     0.057 C 
ENDBRANCH  17  18
ENDBRANCH  13  17
ENDBRANCH   1  11
BRANCH   2  21
HETATM   21  O4  LIG X 999      46.701 130.123  19.172  1.00  0.00    -0.360 OA
HETATM   22  H6  LIG X 999      47.586 130.615  19.174  1.00  0.00     0.217 HD
ENDBRANCH   2  21
TORSDOF 5
ENDMDL
