REMARK VINA RESULT:      -6.5      2.633      5.240
REMARK  1 active torsions:
REMARK  status: ('A' for Active; 'I' for Inactive)
REMARK    1  A    between atoms: C5_8  and  O1_9 
ROOT
HETATM    1  H1  LIG X 999      41.564 132.762  17.508  1.00  0.00     0.187 HD
HETATM    2  N1  LIG X 999      42.211 132.427  18.254  1.00  0.00    -0.300 NA
HETATM    3  C1  LIG X 999      43.331 131.824  18.004  1.00  0.00     0.059 A 
HETATM    4  C2  LIG X 999      44.197 131.377  19.146  1.00  0.00     0.034 A 
HETATM    5  C3  LIG X 999      45.373 130.745  18.930  1.00  0.00     0.035 A 
HETATM    6  C4  LIG X 999      45.792 130.502  17.539  1.00  0.00     0.071 A 
HETATM    7  N2  LIG X 999      46.914 129.896  17.082  1.00  0.00    -0.224 NA
HETATM    8  C5  LIG X 999      46.790 129.943  15.723  1.00  0.00     0.174 A 
HETATM    9  C6  LIG X 999      45.612 130.567  15.348  1.00  0.00     0.030 A 
HETATM   10  C7  LIG X 999      45.014 130.870  14.124  1.00  0.00     0.017 A 
HETATM   11  C8  LIG X 999      43.766 131.538  14.157  1.00  0.00     0.002 A 
HETATM   12  C9  LIG X 999      43.155 131.882  15.396  1.00  0.00     0.015 A 
HETATM   13  C10 LIG X 999      43.801 131.554  16.611  1.00  0.00     0.005 A 
HETATM   14  C11 LIG X 999      45.013 130.905  16.508  1.00  0.00     0.020 A 
ENDROOT
BRANCH   8  15
HETATM   15  O1  LIG X 999      47.735 129.426  14.844  1.00  0.00    -0.344 OA
HETATM   16  H4  LIG X 999      48.066 129.976  14.062  1.00  0.00     0.219 HD
ENDBRANCH   8  15
TORSDOF 1
