REMARK VINA RESULT:      -5.8      2.438      4.968
REMARK  1 active torsions:
REMARK  status: ('A' for Active; 'I' for Inactive)
REMARK    1  A    between atoms: C5_8  and  O1_9 
ROOT
HETATM    1  H1  LIG X 999      41.654 132.463  23.742  1.00  0.00     0.187 HD
HETATM    2  N1  LIG X 999      41.725 132.451  22.700  1.00  0.00    -0.300 NA
HETATM    3  C1  LIG X 999      42.763 131.972  22.093  1.00  0.00     0.059 A 
HETATM    4  C2  LIG X 999      43.921 131.403  22.868  1.00  0.00     0.034 A 
HETATM    5  C3  LIG X 999      45.007 130.901  22.233  1.00  0.00     0.035 A 
HETATM    6  C4  LIG X 999      45.030 130.924  20.759  1.00  0.00     0.071 A 
HETATM    7  N2  LIG X 999      45.992 130.485  19.913  1.00  0.00    -0.224 NA
HETATM    8  C5  LIG X 999      45.494 130.751  18.670  1.00  0.00     0.174 A 
HETATM    9  C6  LIG X 999      44.243 131.344  18.747  1.00  0.00     0.030 A 
HETATM   10  C7  LIG X 999      43.317 131.805  17.809  1.00  0.00     0.017 A 
HETATM   11  C8  LIG X 999      42.113 132.366  18.303  1.00  0.00     0.002 A 
HETATM   12  C9  LIG X 999      41.869 132.451  19.703  1.00  0.00     0.015 A 
HETATM   13  C10 LIG X 999      42.839 131.969  20.609  1.00  0.00     0.005 A 
HETATM   14  C11 LIG X 999      43.987 131.436  20.067  1.00  0.00     0.020 A 
ENDROOT
BRANCH   8  15
HETATM   15  O1  LIG X 999      46.166 130.458  17.490  1.00  0.00    -0.344 OA
HETATM   16  H4  LIG X 999      46.325 129.497  17.212  1.00  0.00     0.219 HD
ENDBRANCH   8  15
TORSDOF 1
