REMARK VINA RESULT:      -7.8      0.000      0.000
REMARK  2 active torsions:
REMARK  status: ('A' for Active; 'I' for Inactive)
REMARK    1  A    between atoms: C2_2  and  N1_3 
REMARK    2  A    between atoms: C3_6  and  O1_7 
ROOT
HETATM    1  N1  LIG X 999      46.726 130.041  15.274  1.00  0.00    -0.070 NA
HETATM    2  N2  LIG X 999      47.163 130.789  14.399  1.00  0.00    -0.162 NA
HETATM    3  N3  LIG X 999      47.601 131.534  13.522  1.00  0.00     0.068 N 
ENDROOT
BRANCH   1   4
HETATM    4  C2  LIG X 999      45.876 130.510  16.333  1.00  0.00     0.127 A 
HETATM    5  C1  LIG X 999      46.110 130.148  17.673  1.00  0.00     0.049 A 
HETATM    6  C11 LIG X 999      45.271 130.615  18.692  1.00  0.00    -0.023 A 
HETATM    7  C6  LIG X 999      44.176 131.463  18.368  1.00  0.00    -0.022 A 
HETATM    8  C10 LIG X 999      45.502 130.250  20.034  1.00  0.00     0.021 A 
HETATM    9  C5  LIG X 999      43.948 131.820  17.033  1.00  0.00     0.051 A 
HETATM   10  C7  LIG X 999      43.328 131.933  19.391  1.00  0.00     0.021 A 
HETATM   11  C3  LIG X 999      44.795 131.349  16.011  1.00  0.00     0.100 A 
HETATM   12  C8  LIG X 999      43.595 131.555  20.708  1.00  0.00    -0.024 A 
HETATM   13  C9  LIG X 999      44.644 130.744  21.018  1.00  0.00    -0.024 A 
HETATM   14  C15 LIG X 999      42.833 131.907  21.925  1.00  0.00     0.276 C 
HETATM   15  C12 LIG X 999      44.682 130.477  22.472  1.00  0.00     0.276 C 
HETATM   16  N4  LIG X 999      43.623 131.351  23.071  1.00  0.00    -0.067 N 
HETATM   17  C13 LIG X 999      44.250 132.454  23.837  1.00  0.00     0.272 C 
HETATM   18  C14 LIG X 999      42.750 130.570  23.976  1.00  0.00     0.272 C 
BRANCH  11  19
HETATM   19  O1  LIG X 999      44.593 131.690  14.663  1.00  0.00    -0.353 OA
HETATM   20  C4  LIG X 999      43.355 131.560  13.973  1.00  0.00     0.210 C 
ENDBRANCH  11  19
ENDBRANCH   1   4
TORSDOF 2
