REMARK VINA RESULT:      -5.9      7.711      8.871
REMARK  2 active torsions:
REMARK  status: ('A' for Active; 'I' for Inactive)
REMARK    1  A    between atoms: N1_1  and  C1_2 
REMARK    2  A    between atoms: C2_5  and  C3_6 
ROOT
HETATM    1  C3  LIG X 999      49.574 136.200  21.487  1.00  0.00     0.030 A 
HETATM    2  C4  LIG X 999      48.454 135.354  21.572  1.00  0.00     0.017 A 
HETATM    3  C5  LIG X 999      48.369 134.375  22.560  1.00  0.00     0.002 A 
HETATM    4  C6  LIG X 999      49.400 134.214  23.481  1.00  0.00     0.012 A 
HETATM    5  C7  LIG X 999      50.544 135.021  23.409  1.00  0.00    -0.025 A 
HETATM    6  C8  LIG X 999      51.587 134.831  24.329  1.00  0.00     0.012 A 
HETATM    7  C9  LIG X 999      52.747 135.600  24.246  1.00  0.00     0.001 A 
HETATM    8  C10 LIG X 999      52.883 136.554  23.238  1.00  0.00     0.001 A 
HETATM    9  C11 LIG X 999      51.853 136.758  22.316  1.00  0.00     0.013 A 
HETATM   10  C12 LIG X 999      50.653 136.016  22.398  1.00  0.00    -0.011 A 
ENDROOT
BRANCH   1  11
HETATM   11  C2  LIG X 999      49.547 137.271  20.463  1.00  0.00     0.203 A 
HETATM   12  N3  LIG X 999      49.658 138.589  20.747  1.00  0.00    -0.145 NA
HETATM   13  N2  LIG X 999      49.624 139.211  19.582  1.00  0.00    -0.240 N 
HETATM   14  C1  LIG X 999      49.503 138.268  18.636  1.00  0.00     0.240 A 
HETATM   15  H3  LIG X 999      49.687 140.245  19.450  1.00  0.00     0.193 HD
HETATM   16  O1  LIG X 999      49.458 137.070  19.163  1.00  0.00    -0.257 OA
BRANCH  14  17
HETATM   17  N1  LIG X 999      49.434 138.536  17.238  1.00  0.00    -0.364 N 
HETATM   18  H1  LIG X 999      49.018 137.830  16.590  1.00  0.00     0.159 HD
HETATM   19  H2  LIG X 999      49.796 139.435  16.854  1.00  0.00     0.159 HD
ENDBRANCH  14  17
ENDBRANCH   1  11
TORSDOF 2
