MODEL 1
REMARK VINA RESULT:      -9.3      0.000      0.000
REMARK  3 active torsions:
REMARK  status: ('A' for Active; 'I' for Inactive)
REMARK    1  A    between atoms: C3_3  and  S1_4 
REMARK    2  A    between atoms: S1_4  and  C4_7 
REMARK    3  A    between atoms: C13_16  and  N1_17 
ROOT
HETATM    1  C1  LIG X 999      47.974 130.270  13.035  1.00  0.00     0.013 C 
HETATM    2  C2  LIG X 999      47.316 130.950  13.782  1.00  0.00    -0.102 C 
HETATM    3  C3  LIG X 999      46.512 131.775  14.688  1.00  0.00     0.238 C 
ENDROOT
BRANCH   3   4
HETATM    4  S1  LIG X 999      45.055 130.884  15.196  1.00  0.00     0.185 S 
HETATM    5  O1  LIG X 999      43.863 131.384  14.429  1.00  0.00    -0.222 OA
HETATM    6  O2  LIG X 999      45.236 129.421  14.900  1.00  0.00    -0.222 OA
BRANCH   4   7
HETATM    7  C4  LIG X 999      44.795 131.103  16.925  1.00  0.00     0.060 A 
HETATM    8  C5  LIG X 999      45.791 130.748  17.839  1.00  0.00     0.024 A 
HETATM    9  C6  LIG X 999      45.573 130.895  19.209  1.00  0.00     0.011 A 
HETATM   10  C7  LIG X 999      44.344 131.380  19.694  1.00  0.00    -0.019 A 
HETATM   11  C8  LIG X 999      43.350 131.779  18.766  1.00  0.00    -0.048 A 
HETATM   12  C13 LIG X 999      44.164 131.587  21.191  1.00  0.00     0.251 C 
HETATM   13  C9  LIG X 999      43.577 131.609  17.390  1.00  0.00     0.031 A 
HETATM   14  C10 LIG X 999      42.008 132.302  19.219  1.00  0.00     0.039 C 
HETATM   15  C11 LIG X 999      42.055 132.864  20.640  1.00  0.00     0.007 C 
HETATM   16  C12 LIG X 999      42.695 131.848  21.583  1.00  0.00     0.040 C 
BRANCH  12  17
HETATM   17  N1  LIG X 999      44.692 130.440  21.934  1.00  0.00     0.087 N 
HETATM   18  H14 LIG X 999      45.013 129.707  21.260  1.00  0.00     0.313 HD
HETATM   19  H15 LIG X 999      43.920 130.025  22.508  1.00  0.00     0.313 HD
ENDBRANCH  12  17
ENDBRANCH   4   7
ENDBRANCH   3   4
TORSDOF 3
ENDMDL
MODEL 2
REMARK VINA RESULT:      -9.1      1.505      2.377
REMARK  3 active torsions:
REMARK  status: ('A' for Active; 'I' for Inactive)
REMARK    1  A    between atoms: C3_3  and  S1_4 
REMARK    2  A    between atoms: S1_4  and  C4_7 
REMARK    3  A    between atoms: C13_16  and  N1_17 
ROOT
HETATM    1  C1  LIG X 999      48.316 129.671  13.513  1.00  0.00     0.013 C 
HETATM    2  C2  LIG X 999      47.366 129.605  14.252  1.00  0.00    -0.102 C 
HETATM    3  C3  LIG X 999      46.212 129.530  15.152  1.00  0.00     0.238 C 
ENDROOT
BRANCH   3   4
HETATM    4  S1  LIG X 999      45.461 131.136  15.319  1.00  0.00     0.185 S 
HETATM    5  O1  LIG X 999      46.508 132.204  15.165  1.00  0.00    -0.222 OA
HETATM    6  O2  LIG X 999      44.428 131.320  14.242  1.00  0.00    -0.222 OA
BRANCH   4   7
HETATM    7  C4  LIG X 999      44.691 131.273  16.898  1.00  0.00     0.060 A 
HETATM    8  C5  LIG X 999      43.353 131.668  16.999  1.00  0.00     0.024 A 
HETATM    9  C6  LIG X 999      42.753 131.804  18.251  1.00  0.00     0.011 A 
HETATM   10  C7  LIG X 999      43.485 131.568  19.429  1.00  0.00    -0.019 A 
HETATM   11  C8  LIG X 999      44.828 131.128  19.326  1.00  0.00    -0.048 A 
HETATM   12  C13 LIG X 999      42.781 131.664  20.775  1.00  0.00     0.251 C 
HETATM   13  C9  LIG X 999      45.425 131.013  18.060  1.00  0.00     0.031 A 
HETATM   14  C10 LIG X 999      45.672 130.863  20.550  1.00  0.00     0.039 C 
HETATM   15  C11 LIG X 999      44.822 130.572  21.787  1.00  0.00     0.007 C 
HETATM   16  C12 LIG X 999      43.765 131.660  21.963  1.00  0.00     0.040 C 
BRANCH  12  17
HETATM   17  N1  LIG X 999      41.931 132.856  20.825  1.00  0.00     0.087 N 
HETATM   18  H14 LIG X 999      41.347 132.904  19.957  1.00  0.00     0.313 HD
HETATM   19  H15 LIG X 999      42.541 133.707  20.842  1.00  0.00     0.313 HD
ENDBRANCH  12  17
ENDBRANCH   4   7
ENDBRANCH   3   4
TORSDOF 3
ENDMDL
MODEL 3
REMARK VINA RESULT:      -8.1      1.238      1.510
REMARK  3 active torsions:
REMARK  status: ('A' for Active; 'I' for Inactive)
REMARK    1  A    between atoms: C3_3  and  S1_4 
REMARK    2  A    between atoms: S1_4  and  C4_7 
REMARK    3  A    between atoms: C13_16  and  N1_17 
ROOT
HETATM    1  C1  LIG X 999      47.534 130.209  13.725  1.00  0.00     0.013 C 
HETATM    2  C2  LIG X 999      46.641 130.046  14.518  1.00  0.00    -0.102 C 
HETATM    3  C3  LIG X 999      45.557 129.851  15.485  1.00  0.00     0.238 C 
ENDROOT
BRANCH   3   4
HETATM    4  S1  LIG X 999      45.024 131.423  16.131  1.00  0.00     0.185 S 
HETATM    5  O1  LIG X 999      46.037 132.480  15.793  1.00  0.00    -0.222 OA
HETATM    6  O2  LIG X 999      43.710 131.801  15.505  1.00  0.00    -0.222 OA
BRANCH   4   7
HETATM    7  C4  LIG X 999      44.828 131.314  17.879  1.00  0.00     0.060 A 
HETATM    8  C5  LIG X 999      45.833 130.743  18.667  1.00  0.00     0.024 A 
HETATM    9  C6  LIG X 999      45.665 130.630  20.048  1.00  0.00     0.011 A 
HETATM   10  C7  LIG X 999      44.479 131.067  20.666  1.00  0.00    -0.019 A 
HETATM   11  C8  LIG X 999      43.478 131.682  19.873  1.00  0.00    -0.048 A 
HETATM   12  C13 LIG X 999      44.355 130.987  22.180  1.00  0.00     0.251 C 
HETATM   13  C9  LIG X 999      43.653 131.773  18.482  1.00  0.00     0.031 A 
HETATM   14  C10 LIG X 999      42.179 132.166  20.471  1.00  0.00     0.039 C 
HETATM   15  C11 LIG X 999      42.299 132.438  21.971  1.00  0.00     0.007 C 
HETATM   16  C12 LIG X 999      42.914 131.231  22.674  1.00  0.00     0.040 C 
BRANCH  12  17
HETATM   17  N1  LIG X 999      44.846 129.695  22.667  1.00  0.00     0.087 N 
HETATM   18  H14 LIG X 999      45.451 129.254  21.935  1.00  0.00     0.313 HD
HETATM   19  H15 LIG X 999      44.029 129.060  22.825  1.00  0.00     0.313 HD
ENDBRANCH  12  17
ENDBRANCH   4   7
ENDBRANCH   3   4
TORSDOF 3
ENDMDL
MODEL 4
REMARK VINA RESULT:      -7.5      3.449      6.635
REMARK  3 active torsions:
REMARK  status: ('A' for Active; 'I' for Inactive)
REMARK    1  A    between atoms: C3_3  and  S1_4 
REMARK    2  A    between atoms: S1_4  and  C4_7 
REMARK    3  A    between atoms: C13_16  and  N1_17 
ROOT
HETATM    1  C1  LIG X 999      43.270 131.765  23.883  1.00  0.00     0.013 C 
HETATM    2  C2  LIG X 999      43.226 131.483  22.712  1.00  0.00    -0.102 C 
HETATM    3  C3  LIG X 999      43.177 131.143  21.287  1.00  0.00     0.238 C 
ENDROOT
BRANCH   3   4
HETATM    4  S1  LIG X 999      44.829 130.990  20.637  1.00  0.00     0.185 S 
HETATM    5  O1  LIG X 999      45.709 132.050  21.236  1.00  0.00    -0.222 OA
HETATM    6  O2  LIG X 999      45.386 129.642  21.002  1.00  0.00    -0.222 OA
BRANCH   4   7
HETATM    7  C4  LIG X 999      44.796 131.155  18.883  1.00  0.00     0.060 A 
HETATM    8  C5  LIG X 999      43.729 131.804  18.255  1.00  0.00     0.024 A 
HETATM    9  C6  LIG X 999      43.690 131.908  16.864  1.00  0.00     0.011 A 
HETATM   10  C7  LIG X 999      44.708 131.345  16.072  1.00  0.00    -0.019 A 
HETATM   11  C8  LIG X 999      45.810 130.724  16.710  1.00  0.00    -0.048 A 
HETATM   12  C13 LIG X 999      44.666 131.533  14.562  1.00  0.00     0.251 C 
HETATM   13  C9  LIG X 999      45.827 130.610  18.110  1.00  0.00     0.031 A 
HETATM   14  C10 LIG X 999      46.932 130.095  15.920  1.00  0.00     0.039 C 
HETATM   15  C11 LIG X 999      47.039 130.672  14.508  1.00  0.00     0.007 C 
HETATM   16  C12 LIG X 999      45.676 130.633  13.822  1.00  0.00     0.040 C 
BRANCH  12  17
HETATM   17  N1  LIG X 999      43.311 131.300  14.054  1.00  0.00     0.087 N 
HETATM   18  H14 LIG X 999      42.625 131.838  14.634  1.00  0.00     0.313 HD
HETATM   19  H15 LIG X 999      43.082 130.283  14.156  1.00  0.00     0.313 HD
ENDBRANCH  12  17
ENDBRANCH   4   7
ENDBRANCH   3   4
TORSDOF 3
ENDMDL
MODEL 5
REMARK VINA RESULT:      -6.9      1.701      2.110
REMARK  3 active torsions:
REMARK  status: ('A' for Active; 'I' for Inactive)
REMARK    1  A    between atoms: C3_3  and  S1_4 
REMARK    2  A    between atoms: S1_4  and  C4_7 
REMARK    3  A    between atoms: C13_16  and  N1_17 
ROOT
HETATM    1  C1  LIG X 999      43.167 131.801  13.841  1.00  0.00     0.013 C 
HETATM    2  C2  LIG X 999      43.853 130.968  14.379  1.00  0.00    -0.102 C 
HETATM    3  C3  LIG X 999      44.690 129.958  15.031  1.00  0.00     0.238 C 
ENDROOT
BRANCH   3   4
HETATM    4  S1  LIG X 999      45.948 130.748  16.015  1.00  0.00     0.185 S 
HETATM    5  O1  LIG X 999      47.181 129.890  16.045  1.00  0.00    -0.222 OA
HETATM    6  O2  LIG X 999      46.302 132.074  15.402  1.00  0.00    -0.222 OA
BRANCH   4   7
HETATM    7  C4  LIG X 999      45.351 131.002  17.654  1.00  0.00     0.060 A 
HETATM    8  C5  LIG X 999      46.120 130.607  18.753  1.00  0.00     0.024 A 
HETATM    9  C6  LIG X 999      45.634 130.781  20.050  1.00  0.00     0.011 A 
HETATM   10  C7  LIG X 999      44.359 131.335  20.271  1.00  0.00    -0.019 A 
HETATM   11  C8  LIG X 999      43.598 131.773  19.159  1.00  0.00    -0.048 A 
HETATM   12  C13 LIG X 999      43.887 131.569  21.699  1.00  0.00     0.251 C 
HETATM   13  C9  LIG X 999      44.092 131.574  17.859  1.00  0.00     0.031 A 
HETATM   14  C10 LIG X 999      42.221 132.369  19.326  1.00  0.00     0.039 C 
HETATM   15  C11 LIG X 999      42.006 132.945  20.726  1.00  0.00     0.007 C 
HETATM   16  C12 LIG X 999      42.385 131.909  21.782  1.00  0.00     0.040 C 
BRANCH  12  17
HETATM   17  N1  LIG X 999      44.191 130.406  22.537  1.00  0.00     0.087 N 
HETATM   18  H14 LIG X 999      44.921 129.821  22.067  1.00  0.00     0.313 HD
HETATM   19  H15 LIG X 999      43.328 129.821  22.628  1.00  0.00     0.313 HD
ENDBRANCH  12  17
ENDBRANCH   4   7
ENDBRANCH   3   4
TORSDOF 3
ENDMDL
MODEL 6
REMARK VINA RESULT:      -6.5      3.430      6.357
REMARK  3 active torsions:
REMARK  status: ('A' for Active; 'I' for Inactive)
REMARK    1  A    between atoms: C3_3  and  S1_4 
REMARK    2  A    between atoms: S1_4  and  C4_7 
REMARK    3  A    between atoms: C13_16  and  N1_17 
ROOT
HETATM    1  C1  LIG X 999      42.829 131.425  23.731  1.00  0.00     0.013 C 
HETATM    2  C2  LIG X 999      43.317 131.022  22.705  1.00  0.00    -0.102 C 
HETATM    3  C3  LIG X 999      43.907 130.535  21.455  1.00  0.00     0.238 C 
ENDROOT
BRANCH   3   4
HETATM    4  S1  LIG X 999      44.172 131.893  20.333  1.00  0.00     0.185 S 
HETATM    5  O1  LIG X 999      42.882 132.636  20.125  1.00  0.00    -0.222 OA
HETATM    6  O2  LIG X 999      45.179 132.840  20.924  1.00  0.00    -0.222 OA
BRANCH   4   7
HETATM    7  C4  LIG X 999      44.773 131.286  18.792  1.00  0.00     0.060 A 
HETATM    8  C5  LIG X 999      45.797 130.335  18.760  1.00  0.00     0.024 A 
HETATM    9  C6  LIG X 999      46.292 129.876  17.539  1.00  0.00     0.011 A 
HETATM   10  C7  LIG X 999      45.787 130.376  16.324  1.00  0.00    -0.019 A 
HETATM   11  C8  LIG X 999      44.721 131.309  16.357  1.00  0.00    -0.048 A 
HETATM   12  C13 LIG X 999      46.306 129.807  15.012  1.00  0.00     0.251 C 
HETATM   13  C9  LIG X 999      44.245 131.776  17.593  1.00  0.00     0.031 A 
HETATM   14  C10 LIG X 999      44.137 131.890  15.092  1.00  0.00     0.039 C 
HETATM   15  C11 LIG X 999      44.391 131.000  13.875  1.00  0.00     0.007 C 
HETATM   16  C12 LIG X 999      45.873 130.642  13.789  1.00  0.00     0.040 C 
BRANCH  12  17
HETATM   17  N1  LIG X 999      47.765 129.681  15.049  1.00  0.00     0.087 N 
HETATM   18  H14 LIG X 999      48.026 128.668  15.085  1.00  0.00     0.313 HD
HETATM   19  H15 LIG X 999      48.121 130.130  15.925  1.00  0.00     0.313 HD
ENDBRANCH  12  17
ENDBRANCH   4   7
ENDBRANCH   3   4
TORSDOF 3
ENDMDL
