REMARK VINA RESULT:      -4.8      8.069     10.660
REMARK  2 active torsions:
REMARK  status: ('A' for Active; 'I' for Inactive)
REMARK    1  A    between atoms: C9_10  and  N2_11 
REMARK       I    between atoms: N2_11  and  C10_12 
REMARK    2  A    between atoms: C10_12  and  C11_14 
ROOT
HETATM    1  C11 LIG X 999      41.098 127.097  24.299  1.00  0.00     0.282 C 
HETATM    2 CL1  LIG X 999      41.802 128.670  23.851  1.00  0.00    -0.099 Cl
HETATM    3  C12 LIG X 999      39.695 127.050  23.874  1.00  0.00     0.089 C 
HETATM    4  N3  LIG X 999      38.589 127.012  23.538  1.00  0.00    -0.195 NA
ENDROOT
BRANCH   1   5
HETATM    5  C10 LIG X 999      41.870 125.990  23.651  1.00  0.00     0.276 C 
HETATM    6  N2  LIG X 999      43.187 125.669  24.123  1.00  0.00    -0.212 NA
HETATM    7  O1  LIG X 999      41.332 125.311  22.735  1.00  0.00    -0.268 OA
BRANCH   6   8
HETATM    8  C9  LIG X 999      44.147 124.826  23.469  1.00  0.00     0.061 A 
HETATM    9  C8  LIG X 999      43.826 123.523  23.044  1.00  0.00     0.032 A 
HETATM   10  C7  LIG X 999      44.778 122.736  22.390  1.00  0.00     0.014 A 
HETATM   11  C6  LIG X 999      46.060 123.242  22.138  1.00  0.00    -0.025 A 
HETATM   12  C5  LIG X 999      47.025 122.456  21.477  1.00  0.00     0.021 A 
HETATM   13  C14 LIG X 999      46.384 124.567  22.544  1.00  0.00    -0.023 A 
HETATM   14  C4  LIG X 999      48.288 123.005  21.246  1.00  0.00    -0.024 A 
HETATM   15  C3  LIG X 999      49.436 122.377  20.557  1.00  0.00     0.276 C 
HETATM   16  C16 LIG X 999      48.598 124.272  21.634  1.00  0.00    -0.024 A 
HETATM   17  N1  LIG X 999      50.570 123.346  20.700  1.00  0.00    -0.067 N 
HETATM   18  C1  LIG X 999      51.218 123.587  19.391  1.00  0.00     0.272 C 
HETATM   19  C2  LIG X 999      51.578 122.810  21.645  1.00  0.00     0.272 C 
HETATM   20  C17 LIG X 999      49.981 124.612  21.241  1.00  0.00     0.276 C 
HETATM   21  C15 LIG X 999      47.667 125.086  22.283  1.00  0.00     0.021 A 
HETATM   22  C13 LIG X 999      45.419 125.346  23.198  1.00  0.00     0.044 A 
ENDBRANCH   6   8
ENDBRANCH   1   5
TORSDOF 2
