REMARK VINA RESULT:      -7.2      0.000      0.000
REMARK  1 active torsions:
REMARK  status: ('A' for Active; 'I' for Inactive)
REMARK    1  A    between atoms: C4_4  and  N1_5 
ROOT
HETATM    1  C1  LIG X 999      45.772 129.666  20.905  1.00  0.00     0.049 C 
HETATM    2  C2  LIG X 999      44.733 130.734  21.136  1.00  0.00    -0.045 C 
HETATM    3  C3  LIG X 999      44.418 131.008  22.477  1.00  0.00     0.057 C 
HETATM    4  C4  LIG X 999      43.296 131.769  22.794  1.00  0.00     0.122 C 
HETATM    5  N2  LIG X 999      42.490 132.218  21.804  1.00  0.00    -0.231 NA
HETATM    6  C5  LIG X 999      42.773 132.022  20.491  1.00  0.00     0.070 C 
HETATM    7  C6  LIG X 999      41.851 132.461  19.542  1.00  0.00     0.033 C 
HETATM    8  C7  LIG X 999      42.090 132.277  18.187  1.00  0.00     0.014 C 
HETATM    9  C8  LIG X 999      43.308 131.747  17.752  1.00  0.00    -0.025 C 
HETATM   10  C9  LIG X 999      43.568 131.669  16.373  1.00  0.00     0.012 C 
HETATM   11  C10 LIG X 999      44.821 131.271  15.915  1.00  0.00     0.001 C 
HETATM   12  C11 LIG X 999      45.835 130.988  16.825  1.00  0.00     0.001 C 
HETATM   13  C12 LIG X 999      45.587 131.046  18.199  1.00  0.00     0.013 C 
HETATM   14  C13 LIG X 999      44.296 131.343  18.698  1.00  0.00    -0.013 C 
HETATM   15  C14 LIG X 999      43.971 131.361  20.096  1.00  0.00     0.010 C 
ENDROOT
BRANCH   4  16
HETATM   16  N1  LIG X 999      42.956 132.027  24.157  1.00  0.00    -0.384 N 
HETATM   17  H5  LIG X 999      41.982 132.287  24.429  1.00  0.00     0.157 HD
HETATM   18  H6  LIG X 999      43.683 131.956  24.903  1.00  0.00     0.157 HD
ENDBRANCH   4  16
TORSDOF 1
