REMARK VINA RESULT:      -7.7      0.984      1.623
REMARK  3 active torsions:
REMARK  status: ('A' for Active; 'I' for Inactive)
REMARK    1  A    between atoms: O1_2  and  C2_3 
REMARK    2  A    between atoms: C2_3  and  C3_5 
REMARK    3  A    between atoms: C4_6  and  C5_7 
ROOT
HETATM    1  C5  LIG X 999      45.434 131.052  17.400  1.00  0.00     0.019 A 
HETATM    2  C6  LIG X 999      44.893 132.029  16.555  1.00  0.00     0.021 A 
HETATM    3  C7  LIG X 999      45.287 132.099  15.216  1.00  0.00     0.013 A 
HETATM    4  C8  LIG X 999      46.229 131.191  14.709  1.00  0.00    -0.026 A 
HETATM    5  C9  LIG X 999      46.633 131.252  13.366  1.00  0.00     0.012 A 
HETATM    6  C10 LIG X 999      47.572 130.342  12.874  1.00  0.00     0.001 A 
HETATM    7  C11 LIG X 999      48.114 129.366  13.715  1.00  0.00     0.001 A 
HETATM    8  C12 LIG X 999      47.721 129.293  15.054  1.00  0.00     0.012 A 
HETATM    9  C13 LIG X 999      46.778 130.202  15.562  1.00  0.00    -0.025 A 
HETATM   10  C14 LIG X 999      46.375 130.140  16.905  1.00  0.00     0.032 A 
ENDROOT
BRANCH   1  11
HETATM   11  C4  LIG X 999      45.022 130.985  18.777  1.00  0.00    -0.056 C 
HETATM   12  C3  LIG X 999      44.678 130.929  19.931  1.00  0.00     0.008 C 
BRANCH  12  13
HETATM   13  C2  LIG X 999      44.268 130.861  21.304  1.00  0.00     0.339 C 
HETATM   14  O2  LIG X 999      43.389 131.656  21.731  1.00  0.00    -0.249 OA
BRANCH  13  15
HETATM   15  O1  LIG X 999      44.851 129.914  22.150  1.00  0.00    -0.316 OA
HETATM   16  C1  LIG X 999      44.262 129.524  23.384  1.00  0.00     0.214 C 
ENDBRANCH  13  15
ENDBRANCH  12  13
ENDBRANCH   1  11
TORSDOF 3
