REMARK VINA RESULT:      -6.7      0.000      0.000
REMARK  1 active torsions:
REMARK  status: ('A' for Active; 'I' for Inactive)
REMARK    1  A    between atoms: C13_15  and  N2_16 
ROOT
HETATM    1  N1  LIG X 999      46.876 130.317  15.371  1.00  0.00    -0.191 NA
HETATM    2  C1  LIG X 999      46.072 130.607  16.151  1.00  0.00     0.109 C 
HETATM    3  C2  LIG X 999      45.074 130.969  17.122  1.00  0.00     0.113 A 
HETATM    4  S1  LIG X 999      43.602 131.677  16.730  1.00  0.00    -0.076 SA
HETATM    5  C3  LIG X 999      43.120 131.897  18.322  1.00  0.00     0.019 A 
HETATM    6  C4  LIG X 999      41.954 132.519  18.750  1.00  0.00     0.021 A 
HETATM    7  C5  LIG X 999      41.727 132.645  20.122  1.00  0.00     0.013 A 
HETATM    8  C6  LIG X 999      42.634 132.093  21.050  1.00  0.00    -0.025 A 
HETATM    9  C7  LIG X 999      42.354 132.175  22.423  1.00  0.00     0.012 A 
HETATM   10  C8  LIG X 999      43.193 131.558  23.350  1.00  0.00     0.001 A 
HETATM   11  C9  LIG X 999      44.299 130.829  22.916  1.00  0.00     0.001 A 
HETATM   12  C10 LIG X 999      44.600 130.745  21.554  1.00  0.00     0.013 A 
HETATM   13  C11 LIG X 999      43.811 131.421  20.600  1.00  0.00    -0.012 A 
HETATM   14  C12 LIG X 999      44.079 131.399  19.204  1.00  0.00     0.020 A 
HETATM   15  C13 LIG X 999      45.223 130.920  18.511  1.00  0.00     0.066 A 
ENDROOT
BRANCH  15  16
HETATM   16  N2  LIG X 999      46.484 130.619  19.118  1.00  0.00    -0.397 N 
HETATM   17  H7  LIG X 999      46.525 130.237  20.088  1.00  0.00     0.156 HD
HETATM   18  H8  LIG X 999      47.344 130.529  18.532  1.00  0.00     0.156 HD
ENDBRANCH  15  16
TORSDOF 1
