REMARK VINA RESULT:      -4.8      3.344      5.921
REMARK  4 active torsions:
REMARK  status: ('A' for Active; 'I' for Inactive)
REMARK    1  A    between atoms: O1_2  and  C1_3 
REMARK    2  A    between atoms: C1_3  and  O4_18 
REMARK       I    between atoms: N1_4  and  C2_5 
REMARK    3  A    between atoms: C2_5  and  C3_7 
REMARK    4  A    between atoms: O4_18  and  C13_19 
ROOT
HETATM    1  C3  LIG X 999      44.716 130.854  21.453  1.00  0.00     0.071 A 
HETATM    2  C4  LIG X 999      43.415 131.051  21.960  1.00  0.00     0.123 A 
HETATM    3  O3  LIG X 999      42.742 132.250  21.751  1.00  0.00    -0.191 OA
HETATM    4  C5  LIG X 999      42.789 130.043  22.702  1.00  0.00     0.053 A 
HETATM    5  C6  LIG X 999      43.454 128.838  22.964  1.00  0.00    -0.023 A 
HETATM    6  C7  LIG X 999      42.832 127.825  23.710  1.00  0.00     0.012 A 
HETATM    7  C8  LIG X 999      43.508 126.629  23.970  1.00  0.00     0.001 A 
HETATM    8  C9  LIG X 999      44.806 126.437  23.491  1.00  0.00     0.001 A 
HETATM    9  C10 LIG X 999      45.437 127.438  22.748  1.00  0.00     0.012 A 
HETATM   10  C11 LIG X 999      44.769 128.644  22.480  1.00  0.00    -0.025 A 
HETATM   11  C12 LIG X 999      45.392 129.656  21.733  1.00  0.00     0.032 A 
ENDROOT
BRANCH   1  12
HETATM   12  C2  LIG X 999      45.398 131.904  20.661  1.00  0.00     0.283 C 
HETATM   13  N1  LIG X 999      45.333 131.951  19.228  1.00  0.00    -0.162 NA
HETATM   14  C1  LIG X 999      45.307 130.919  18.434  1.00  0.00     0.289 C 
HETATM   15  O2  LIG X 999      46.029 132.812  21.265  1.00  0.00    -0.265 OA
BRANCH  14  16
HETATM   16  O1  LIG X 999      45.423 129.628  18.944  1.00  0.00    -0.325 OA
HETATM   17  H1  LIG X 999      44.605 129.124  19.262  1.00  0.00     0.221 HD
ENDBRANCH  14  16
BRANCH  14  18
HETATM   18  O4  LIG X 999      45.193 131.085  17.045  1.00  0.00    -0.294 OA
BRANCH  18  19
HETATM   19  C13 LIG X 999      46.038 130.474  16.064  1.00  0.00     0.224 C 
HETATM   20 CL1  LIG X 999      46.569 131.658  14.834  1.00  0.00    -0.095 Cl
HETATM   21  C14 LIG X 999      45.356 129.272  15.411  1.00  0.00     0.057 C 
ENDBRANCH  18  19
ENDBRANCH  14  18
ENDBRANCH   1  12
TORSDOF 4
