REMARK VINA RESULT:      -6.8      1.751      2.587
REMARK  8 active torsions:
REMARK  status: ('A' for Active; 'I' for Inactive)
REMARK    1  A    between atoms: O1_2  and  C1_3 
REMARK    2  A    between atoms: C1_3  and  C15_19 
REMARK    3  A    between atoms: N1_4  and  C2_5 
REMARK    4  A    between atoms: C2_5  and  C3_6 
REMARK    5  A    between atoms: C3_6  and  C4_7 
REMARK    6  A    between atoms: C4_7  and  O2_8 
REMARK    7  A    between atoms: O2_8  and  C5_9 
REMARK    8  A    between atoms: C15_19  and  C16_20 
ROOT
HETATM    1  C4  LIG X 999      44.850 130.465  21.425  1.00  0.00     0.177 C 
ENDROOT
BRANCH   1   2
HETATM    2  C3  LIG X 999      44.265 130.660  22.829  1.00  0.00     0.048 C 
BRANCH   2   3
HETATM    3  C2  LIG X 999      42.884 130.004  22.974  1.00  0.00     0.153 C 
BRANCH   3   4
HETATM    4  N1  LIG X 999      42.981 128.660  23.545  1.00  0.00    -0.271 NA
HETATM    5  C1  LIG X 999      41.982 127.862  23.798  1.00  0.00     0.132 C 
BRANCH   5   6
HETATM    6  O1  LIG X 999      40.654 128.234  23.561  1.00  0.00    -0.348 OA
HETATM    7  H1  LIG X 999      40.344 129.194  23.496  1.00  0.00     0.219 HD
ENDBRANCH   5   6
BRANCH   5   8
HETATM    8  C15 LIG X 999      42.254 126.490  24.346  1.00  0.00     0.089 C 
BRANCH   8   9
HETATM    9  C16 LIG X 999      42.470 125.415  23.257  1.00  0.00    -0.015 C 
HETATM   10  C17 LIG X 999      43.931 125.354  22.795  1.00  0.00     0.010 C 
HETATM   11  C18 LIG X 999      41.975 124.032  23.701  1.00  0.00     0.010 C 
ENDBRANCH   8   9
ENDBRANCH   5   8
ENDBRANCH   3   4
ENDBRANCH   2   3
ENDBRANCH   1   2
BRANCH   1  12
HETATM   12  O2  LIG X 999      44.321 131.436  20.522  1.00  0.00    -0.351 OA
BRANCH  12  13
HETATM   13  C5  LIG X 999      44.387 131.379  19.120  1.00  0.00     0.069 A 
HETATM   14  C6  LIG X 999      43.291 131.858  18.394  1.00  0.00     0.037 A 
HETATM   15  C7  LIG X 999      43.287 131.824  16.997  1.00  0.00     0.015 A 
HETATM   16  C8  LIG X 999      44.386 131.301  16.303  1.00  0.00    -0.026 A 
HETATM   17  C9  LIG X 999      44.392 131.258  14.900  1.00  0.00     0.012 A 
HETATM   18  C13 LIG X 999      45.499 130.808  17.025  1.00  0.00    -0.023 A 
HETATM   19  C10 LIG X 999      45.491 130.727  14.219  1.00  0.00     0.001 A 
HETATM   20  C11 LIG X 999      46.589 130.236  14.931  1.00  0.00     0.001 A 
HETATM   21  C12 LIG X 999      46.595 130.274  16.328  1.00  0.00     0.012 A 
HETATM   22  C14 LIG X 999      45.496 130.853  18.428  1.00  0.00     0.049 A 
ENDBRANCH  12  13
ENDBRANCH   1  12
TORSDOF 8
