REMARK VINA RESULT:      -8.5      0.000      0.000
REMARK  4 active torsions:
REMARK  status: ('A' for Active; 'I' for Inactive)
REMARK    1  A    between atoms: C3_3  and  O1_4 
REMARK    2  A    between atoms: O1_4  and  C4_5 
REMARK    3  A    between atoms: C13_14  and  C14_15 
REMARK    4  A    between atoms: C14_15  and  O2_16 
ROOT
HETATM    1  C1  LIG X 999      48.375 129.555  13.375  1.00  0.00     0.014 C 
HETATM    2  C2  LIG X 999      47.517 129.490  14.219  1.00  0.00    -0.091 C 
HETATM    3  C3  LIG X 999      46.477 129.412  15.245  1.00  0.00     0.268 C 
ENDROOT
BRANCH   3   4
HETATM    4  O1  LIG X 999      46.451 130.633  15.978  1.00  0.00    -0.339 OA
BRANCH   4   5
HETATM    5  C4  LIG X 999      45.516 130.946  16.979  1.00  0.00     0.079 A 
HETATM    6  C5  LIG X 999      45.825 130.822  18.347  1.00  0.00     0.049 A 
HETATM    7  C6  LIG X 999      44.878 131.156  19.326  1.00  0.00    -0.023 A 
HETATM    8  C7  LIG X 999      45.185 131.033  20.691  1.00  0.00     0.012 A 
HETATM    9  C11 LIG X 999      43.604 131.627  18.936  1.00  0.00    -0.025 A 
HETATM   10  C8  LIG X 999      44.236 131.375  21.657  1.00  0.00     0.001 A 
HETATM   11  C9  LIG X 999      42.976 131.841  21.272  1.00  0.00     0.001 A 
HETATM   12  C10 LIG X 999      42.658 131.968  19.917  1.00  0.00     0.012 A 
HETATM   13  C12 LIG X 999      43.295 131.750  17.575  1.00  0.00     0.024 A 
HETATM   14  C13 LIG X 999      44.237 131.400  16.594  1.00  0.00    -0.001 A 
BRANCH  14  15
HETATM   15  C14 LIG X 999      43.893 131.567  15.139  1.00  0.00     0.205 C 
BRANCH  15  16
HETATM   16  O2  LIG X 999      44.911 132.285  14.500  1.00  0.00    -0.396 OA
HETATM   17  H12 LIG X 999      45.632 132.399  15.174  1.00  0.00     0.209 HD
ENDBRANCH  15  16
ENDBRANCH  14  15
ENDBRANCH   4   5
ENDBRANCH   3   4
TORSDOF 4
