REMARK VINA RESULT:      -6.2      1.640      2.790
REMARK  4 active torsions:
REMARK  status: ('A' for Active; 'I' for Inactive)
REMARK    1  A    between atoms: C3_3  and  O1_4 
REMARK    2  A    between atoms: O1_4  and  C4_5 
REMARK    3  A    between atoms: C4_5  and  O2_6 
REMARK    4  A    between atoms: C5_8  and  C6_9 
ROOT
HETATM    1  C1  LIG X 999      42.249 129.242  23.985  1.00  0.00     0.014 C 
HETATM    2  C2  LIG X 999      42.333 130.259  23.342  1.00  0.00    -0.091 C 
HETATM    3  C3  LIG X 999      42.431 131.491  22.560  1.00  0.00     0.266 C 
ENDROOT
BRANCH   3   4
HETATM    4  O1  LIG X 999      43.213 131.241  21.415  1.00  0.00    -0.319 OA
BRANCH   4   5
HETATM    5  C4  LIG X 999      44.575 131.280  21.773  1.00  0.00     0.314 A 
HETATM    6  O3  LIG X 999      45.206 130.075  21.408  1.00  0.00    -0.312 OA
HETATM    7  C5  LIG X 999      45.641 131.237  20.737  1.00  0.00     0.254 A 
BRANCH   5   8
HETATM    8  O2  LIG X 999      44.897 131.612  23.094  1.00  0.00    -0.341 OA
HETATM    9  H4  LIG X 999      44.649 132.566  23.193  1.00  0.00     0.215 HD
ENDBRANCH   5   8
BRANCH   7  10
HETATM   10  C6  LIG X 999      45.180 131.282  19.307  1.00  0.00    -0.021 A 
HETATM   11  C7  LIG X 999      43.935 131.836  18.966  1.00  0.00     0.011 A 
HETATM   12  C8  LIG X 999      43.515 131.865  17.633  1.00  0.00     0.013 A 
HETATM   13  C9  LIG X 999      44.328 131.328  16.625  1.00  0.00    -0.026 A 
HETATM   14  C10 LIG X 999      43.919 131.356  15.283  1.00  0.00     0.012 A 
HETATM   15  C14 LIG X 999      45.574 130.747  16.965  1.00  0.00    -0.025 A 
HETATM   16  C11 LIG X 999      44.738 130.814  14.288  1.00  0.00     0.001 A 
HETATM   17  C12 LIG X 999      45.966 130.239  14.624  1.00  0.00     0.001 A 
HETATM   18  C13 LIG X 999      46.386 130.204  15.957  1.00  0.00     0.012 A 
HETATM   19  C15 LIG X 999      45.985 130.719  18.306  1.00  0.00     0.022 A 
ENDBRANCH   7  10
ENDBRANCH   4   5
ENDBRANCH   3   4
TORSDOF 4
