REMARK VINA RESULT:      -5.4      1.097      1.713
REMARK  0 active torsions:
REMARK  status: ('A' for Active; 'I' for Inactive)
ROOT
HETATM    1  C1  LIG X 999      46.059 129.310  15.215  1.00  0.00     0.000 A 
HETATM    2  C2  LIG X 999      45.459 130.120  16.185  1.00  0.00     0.000 A 
HETATM    3  C3  LIG X 999      45.586 131.510  16.111  1.00  0.00     0.000 A 
HETATM    4  C4  LIG X 999      46.315 132.092  15.067  1.00  0.00     0.000 A 
HETATM    5  C5  LIG X 999      46.915 131.282  14.097  1.00  0.00     0.000 A 
HETATM    6  C6  LIG X 999      46.788 129.892  14.172  1.00  0.00     0.000 A 
ENDROOT
TORSDOF 0
