REMARK VINA RESULT:      -6.0      2.120      5.865
REMARK  1 active torsions:
REMARK  status: ('A' for Active; 'I' for Inactive)
REMARK    1  A    between atoms: C12_13  and  N2_14 
ROOT
HETATM    1  C1  LIG X 999      43.765 132.752  24.340  1.00  0.00     0.272 C 
HETATM    2  N1  LIG X 999      43.433 131.490  23.635  1.00  0.00    -0.067 N 
HETATM    3  C2  LIG X 999      42.951 130.498  24.625  1.00  0.00     0.272 C 
HETATM    4  C3  LIG X 999      42.390 131.746  22.594  1.00  0.00     0.276 C 
HETATM    5  C4  LIG X 999      43.087 131.621  21.296  1.00  0.00    -0.021 A 
HETATM    6  C5  LIG X 999      42.566 131.887  20.034  1.00  0.00     0.022 A 
HETATM    7  C6  LIG X 999      43.383 131.686  18.908  1.00  0.00    -0.023 A 
HETATM    8  C7  LIG X 999      42.873 131.944  17.626  1.00  0.00     0.012 A 
HETATM    9  C8  LIG X 999      43.664 131.732  16.499  1.00  0.00     0.001 A 
HETATM   10  C9  LIG X 999      44.967 131.256  16.636  1.00  0.00     0.001 A 
HETATM   11  C10 LIG X 999      45.495 130.993  17.903  1.00  0.00     0.014 A 
HETATM   12  C11 LIG X 999      44.723 131.213  19.065  1.00  0.00     0.001 A 
HETATM   13  C12 LIG X 999      45.224 130.960  20.378  1.00  0.00     0.045 A 
HETATM   14  C13 LIG X 999      44.362 131.176  21.466  1.00  0.00     0.003 A 
HETATM   15  C14 LIG X 999      44.637 130.974  22.911  1.00  0.00     0.278 C 
ENDROOT
BRANCH  13  16
HETATM   16  N2  LIG X 999      46.566 130.506  20.621  1.00  0.00    -0.398 N 
HETATM   17  H14 LIG X 999      47.384 131.027  20.234  1.00  0.00     0.156 HD
HETATM   18  H15 LIG X 999      46.783 129.615  21.113  1.00  0.00     0.156 HD
ENDBRANCH  13  16
TORSDOF 1
