REMARK VINA RESULT:      -7.1      2.499      3.413
REMARK  1 active torsions:
REMARK  status: ('A' for Active; 'I' for Inactive)
REMARK    1  A    between atoms: C11_13  and  N2_14 
ROOT
HETATM    1  N2  LIG X 999      46.117 130.675  16.757  1.00  0.00    -0.053 NA
HETATM    2  N3  LIG X 999      45.718 129.796  15.991  1.00  0.00    -0.160 NA
HETATM    3  N4  LIG X 999      45.319 128.920  15.226  1.00  0.00     0.068 N 
ENDROOT
BRANCH   1   4
HETATM    4  C11 LIG X 999      45.513 130.872  18.036  1.00  0.00     0.175 A 
HETATM    5  C10 LIG X 999      44.247 131.400  18.246  1.00  0.00     0.026 A 
HETATM    6  C5  LIG X 999      44.086 131.405  19.591  1.00  0.00     0.017 A 
HETATM    7  C9  LIG X 999      43.235 131.868  17.409  1.00  0.00     0.016 A 
HETATM    8  C4  LIG X 999      45.202 130.904  20.176  1.00  0.00     0.046 A 
HETATM    9  C6  LIG X 999      42.960 131.852  20.248  1.00  0.00     0.005 A 
HETATM   10  C3  LIG X 999      45.298 130.796  21.640  1.00  0.00     0.033 A 
HETATM   11  N5  LIG X 999      46.104 130.566  19.227  1.00  0.00    -0.337 N 
HETATM   12  C2  LIG X 999      44.245 131.209  22.384  1.00  0.00     0.034 A 
HETATM   13  C1  LIG X 999      43.006 131.764  21.740  1.00  0.00     0.059 A 
HETATM   14  N1  LIG X 999      42.020 132.147  22.488  1.00  0.00    -0.300 NA
HETATM   15  H1  LIG X 999      41.133 132.542  22.108  1.00  0.00     0.187 HD
HETATM   16  H7  LIG X 999      47.052 130.156  19.380  1.00  0.00     0.167 HD
HETATM   17  C7  LIG X 999      41.907 132.336  19.438  1.00  0.00     0.015 A 
HETATM   18  C8  LIG X 999      42.050 132.342  18.023  1.00  0.00     0.002 A 
ENDBRANCH   1   4
TORSDOF 1
