REMARK VINA RESULT:      -7.8      0.000      0.000
REMARK  5 active torsions:
REMARK  status: ('A' for Active; 'I' for Inactive)
REMARK    1  A    between atoms: C1_1  and  N1_2 
REMARK    2  A    between atoms: C2_5  and  O1_6 
REMARK    3  A    between atoms: C2_5  and  C5_12 
REMARK    4  A    between atoms: O1_6  and  C3_7 
REMARK    5  A    between atoms: C3_7  and  C4_9 
ROOT
HETATM    1  N1  LIG X 999      45.318 129.513  21.650  1.00  0.00    -0.082 NA
HETATM    2  N2  LIG X 999      45.118 128.392  22.117  1.00  0.00    -0.163 NA
HETATM    3  N3  LIG X 999      44.918 127.271  22.583  1.00  0.00     0.068 N 
ENDROOT
BRANCH   1   4
HETATM    4  C1  LIG X 999      45.592 129.682  20.260  1.00  0.00     0.193 C 
HETATM    5  C2  LIG X 999      45.168 130.774  19.615  1.00  0.00     0.101 C 
BRANCH   5   6
HETATM    6  O1  LIG X 999      44.487 131.767  20.335  1.00  0.00    -0.324 OA
BRANCH   6   7
HETATM    7  C3  LIG X 999      43.097 131.723  20.686  1.00  0.00     0.273 C 
HETATM    8 CL1  LIG X 999      42.823 131.771  22.453  1.00  0.00    -0.090 Cl
BRANCH   7   9
HETATM    9  C4  LIG X 999      42.278 132.799  19.956  1.00  0.00     0.309 C 
HETATM   10  F1  LIG X 999      41.222 133.203  20.750  1.00  0.00    -0.229 F 
HETATM   11 CL2  LIG X 999      41.646 132.243  18.380  1.00  0.00    -0.086 Cl
ENDBRANCH   7   9
ENDBRANCH   6   7
ENDBRANCH   5   6
BRANCH   5  12
HETATM   12  C5  LIG X 999      45.478 130.963  18.179  1.00  0.00    -0.000 A 
HETATM   13  C6  LIG X 999      45.019 132.113  17.517  1.00  0.00     0.015 A 
HETATM   14  C7  LIG X 999      45.298 132.311  16.162  1.00  0.00     0.013 A 
HETATM   15  C8  LIG X 999      46.044 131.362  15.449  1.00  0.00    -0.026 A 
HETATM   16  C9  LIG X 999      46.327 131.551  14.087  1.00  0.00     0.012 A 
HETATM   17  C13 LIG X 999      46.515 130.201  16.109  1.00  0.00    -0.025 A 
HETATM   18  C10 LIG X 999      47.070 130.596  13.387  1.00  0.00     0.001 A 
HETATM   19  C11 LIG X 999      47.535 129.450  14.038  1.00  0.00     0.001 A 
HETATM   20  C12 LIG X 999      47.260 129.250  15.394  1.00  0.00     0.012 A 
HETATM   21  C14 LIG X 999      46.231 130.011  17.470  1.00  0.00     0.026 A 
ENDBRANCH   5  12
ENDBRANCH   1   4
TORSDOF 5
