REMARK VINA RESULT:      -7.7      1.688      6.522
REMARK  2 active torsions:
REMARK  status: ('A' for Active; 'I' for Inactive)
REMARK    1  A    between atoms: C3_3  and  S1_4 
REMARK    2  A    between atoms: S1_4  and  C4_5 
ROOT
HETATM    1  C1  LIG X 999      42.875 131.719  21.705  1.00  0.00     0.013 C 
HETATM    2  C2  LIG X 999      43.574 131.801  20.726  1.00  0.00    -0.107 C 
HETATM    3  C3  LIG X 999      44.421 131.897  19.534  1.00  0.00     0.172 C 
ENDROOT
BRANCH   3   4
HETATM    4  S1  LIG X 999      45.278 130.315  19.238  1.00  0.00    -0.118 SA
BRANCH   4   5
HETATM    5  C4  LIG X 999      45.731 130.698  17.543  1.00  0.00     0.002 A 
HETATM    6  C5  LIG X 999      45.284 131.885  16.952  1.00  0.00     0.019 A 
HETATM    7  C6  LIG X 999      45.632 132.192  15.634  1.00  0.00     0.013 A 
HETATM    8  C7  LIG X 999      46.437 131.313  14.895  1.00  0.00    -0.026 A 
HETATM    9  C8  LIG X 999      46.791 131.607  13.570  1.00  0.00     0.012 A 
HETATM   10  C12 LIG X 999      46.897 130.113  15.493  1.00  0.00    -0.025 A 
HETATM   11  C9  LIG X 999      47.595 130.723  12.844  1.00  0.00     0.001 A 
HETATM   12  C10 LIG X 999      48.048 129.540  13.435  1.00  0.00     0.001 A 
HETATM   13  C11 LIG X 999      47.702 129.233  14.755  1.00  0.00     0.012 A 
HETATM   14  C13 LIG X 999      46.542 129.818  16.818  1.00  0.00     0.030 A 
ENDBRANCH   4   5
ENDBRANCH   3   4
TORSDOF 2
