REMARK VINA RESULT:      -6.4      2.199      2.862
REMARK  5 active torsions:
REMARK  status: ('A' for Active; 'I' for Inactive)
REMARK    1  A    between atoms: N1_1  and  C1_2 
REMARK    2  A    between atoms: C1_2  and  C2_3 
REMARK    3  A    between atoms: C2_3  and  C3_4 
REMARK    4  A    between atoms: C3_4  and  O1_5 
REMARK    5  A    between atoms: O1_5  and  C4_6 
ROOT
HETATM    1  C4  LIG X 999      44.593 131.502  19.151  1.00  0.00     0.069 A 
HETATM    2  C5  LIG X 999      45.662 130.604  19.253  1.00  0.00     0.037 A 
HETATM    3  C6  LIG X 999      46.250 130.061  18.109  1.00  0.00     0.015 A 
HETATM    4  C7  LIG X 999      45.772 130.409  16.838  1.00  0.00    -0.026 A 
HETATM    5  C8  LIG X 999      46.355 129.870  15.680  1.00  0.00     0.012 A 
HETATM    6  C9  LIG X 999      45.871 130.226  14.419  1.00  0.00     0.001 A 
HETATM    7  C10 LIG X 999      44.802 131.120  14.303  1.00  0.00     0.001 A 
HETATM    8  C11 LIG X 999      44.213 131.664  15.448  1.00  0.00     0.012 A 
HETATM    9  C12 LIG X 999      44.692 131.316  16.721  1.00  0.00    -0.023 A 
HETATM   10  C13 LIG X 999      44.107 131.856  17.877  1.00  0.00     0.049 A 
ENDROOT
BRANCH   1  11
HETATM   11  O1  LIG X 999      44.044 132.016  20.335  1.00  0.00    -0.351 OA
BRANCH  11  12
HETATM   12  C3  LIG X 999      42.754 131.679  20.841  1.00  0.00     0.177 C 
BRANCH  12  13
HETATM   13  C2  LIG X 999      42.797 131.575  22.368  1.00  0.00     0.054 C 
BRANCH  13  14
HETATM   14  C1  LIG X 999      42.982 130.135  22.877  1.00  0.00     0.231 C 
BRANCH  14  15
HETATM   15  N1  LIG X 999      41.863 129.695  23.714  1.00  0.00    -0.079 N 
HETATM   16  H1  LIG X 999      41.977 128.688  23.977  1.00  0.00     0.274 HD
HETATM   17  H2  LIG X 999      41.846 130.270  24.586  1.00  0.00     0.274 HD
HETATM   18  H3  LIG X 999      40.958 129.832  23.211  1.00  0.00     0.274 HD
ENDBRANCH  14  15
ENDBRANCH  13  14
ENDBRANCH  12  13
ENDBRANCH  11  12
ENDBRANCH   1  11
TORSDOF 5
