REMARK VINA RESULT:      -7.6      0.000      0.000
REMARK  7 active torsions:
REMARK  status: ('A' for Active; 'I' for Inactive)
REMARK    1  A    between atoms: O1_2  and  C1_3 
REMARK    2  A    between atoms: C1_3  and  C2_4 
REMARK    3  A    between atoms: C1_3  and  C3_8 
REMARK    4  A    between atoms: C2_4  and  N1_5 
REMARK    5  A    between atoms: C3_8  and  O2_9 
REMARK    6  A    between atoms: O2_9  and  C4_10 
REMARK    7  A    between atoms: C9_15  and  N4_16 
ROOT
HETATM    1  N1  LIG X 999      44.939 128.531  22.384  1.00  0.00    -0.113 NA
HETATM    2  N2  LIG X 999      45.050 127.305  22.393  1.00  0.00    -0.168 NA
HETATM    3  N3  LIG X 999      45.162 126.080  22.402  1.00  0.00     0.068 N 
ENDROOT
BRANCH   1   4
HETATM    4  C2  LIG X 999      44.092 129.206  23.358  1.00  0.00     0.223 C 
BRANCH   4   5
HETATM    5  C1  LIG X 999      43.106 130.164  22.665  1.00  0.00     0.165 C 
BRANCH   5   6
HETATM    6  O1  LIG X 999      42.033 130.479  23.518  1.00  0.00    -0.392 OA
HETATM    7  H1  LIG X 999      41.837 129.675  24.067  1.00  0.00     0.210 HD
ENDBRANCH   5   6
BRANCH   5   8
HETATM    8  C3  LIG X 999      43.785 131.442  22.145  1.00  0.00     0.209 C 
BRANCH   8   9
HETATM    9  O2  LIG X 999      43.291 131.763  20.847  1.00  0.00    -0.349 OA
BRANCH   9  10
HETATM   10  C4  LIG X 999      43.972 131.502  19.649  1.00  0.00     0.069 A 
HETATM   11  C5  LIG X 999      45.256 130.952  19.724  1.00  0.00     0.037 A 
HETATM   12  C6  LIG X 999      45.982 130.673  18.564  1.00  0.00     0.015 A 
HETATM   13  C7  LIG X 999      45.429 130.942  17.304  1.00  0.00    -0.024 A 
HETATM   14  C8  LIG X 999      46.151 130.665  16.132  1.00  0.00     0.046 A 
HETATM   15  C12 LIG X 999      44.131 131.499  17.215  1.00  0.00    -0.023 A 
HETATM   16  C9  LIG X 999      45.589 130.939  14.870  1.00  0.00     0.094 A 
HETATM   17  C10 LIG X 999      44.304 131.489  14.793  1.00  0.00     0.035 A 
HETATM   18  C11 LIG X 999      43.578 131.768  15.954  1.00  0.00     0.014 A 
HETATM   19  C13 LIG X 999      43.410 131.776  18.387  1.00  0.00     0.049 A 
BRANCH  16  20
HETATM   20  N4  LIG X 999      46.298 130.668  13.653  1.00  0.00    -0.073 NA
HETATM   21  N5  LIG X 999      47.362 130.049  13.634  1.00  0.00    -0.162 NA
HETATM   22  N6  LIG X 999      48.425 129.429  13.613  1.00  0.00     0.068 N 
ENDBRANCH  16  20
ENDBRANCH   9  10
ENDBRANCH   8   9
ENDBRANCH   5   8
ENDBRANCH   4   5
ENDBRANCH   1   4
TORSDOF 7
