REMARK VINA RESULT:      -7.2      2.623      4.903
REMARK  3 active torsions:
REMARK  status: ('A' for Active; 'I' for Inactive)
REMARK    1  A    between atoms: C3_3  and  O1_4 
REMARK    2  A    between atoms: O1_4  and  C4_5 
REMARK    3  A    between atoms: C5_7  and  C6_8 
ROOT
HETATM    1  C1  LIG X 999      41.042 127.550  24.159  1.00  0.00     0.014 C 
HETATM    2  C2  LIG X 999      42.178 127.834  23.874  1.00  0.00    -0.091 C 
HETATM    3  C3  LIG X 999      43.559 128.177  23.528  1.00  0.00     0.270 C 
ENDROOT
BRANCH   3   4
HETATM    4  O1  LIG X 999      43.564 129.383  22.775  1.00  0.00    -0.317 OA
BRANCH   4   5
HETATM    5  C4  LIG X 999      44.107 130.573  23.269  1.00  0.00     0.217 C 
HETATM    6  O2  LIG X 999      44.397 130.693  24.625  1.00  0.00    -0.164 OA
HETATM    7  C5  LIG X 999      44.383 131.595  22.452  1.00  0.00     0.078 C 
BRANCH   7   8
HETATM    8  C6  LIG X 999      44.121 131.592  20.995  1.00  0.00    -0.031 A 
HETATM    9  C7  LIG X 999      42.904 132.051  20.458  1.00  0.00     0.012 A 
HETATM   10  C8  LIG X 999      42.694 132.058  19.077  1.00  0.00     0.013 A 
HETATM   11  C9  LIG X 999      43.703 131.621  18.207  1.00  0.00    -0.026 A 
HETATM   12  C10 LIG X 999      43.502 131.623  16.818  1.00  0.00     0.012 A 
HETATM   13  C14 LIG X 999      44.941 131.181  18.736  1.00  0.00    -0.025 A 
HETATM   14  C11 LIG X 999      44.519 131.191  15.962  1.00  0.00     0.001 A 
HETATM   15  C12 LIG X 999      45.741 130.757  16.483  1.00  0.00     0.001 A 
HETATM   16  C13 LIG X 999      45.954 130.752  17.865  1.00  0.00     0.012 A 
HETATM   17  C15 LIG X 999      45.142 131.179  20.125  1.00  0.00     0.024 A 
ENDBRANCH   7   8
ENDBRANCH   4   5
ENDBRANCH   3   4
TORSDOF 3
