REMARK VINA RESULT:      -8.0      1.102      2.886
REMARK  1 active torsions:
REMARK  status: ('A' for Active; 'I' for Inactive)
REMARK    1  A    between atoms: C2_5  and  C3_6 
ROOT
HETATM    1  C3  LIG X 999      45.345 130.947  18.325  1.00  0.00     0.030 A 
HETATM    2  C4  LIG X 999      46.306 130.657  19.306  1.00  0.00     0.017 A 
HETATM    3  C5  LIG X 999      46.030 130.848  20.659  1.00  0.00     0.002 A 
HETATM    4  C6  LIG X 999      44.791 131.336  21.062  1.00  0.00     0.012 A 
HETATM    5  C7  LIG X 999      43.820 131.668  20.108  1.00  0.00    -0.025 A 
HETATM    6  C8  LIG X 999      42.584 132.188  20.525  1.00  0.00     0.012 A 
HETATM    7  C9  LIG X 999      41.624 132.561  19.586  1.00  0.00     0.001 A 
HETATM    8  C10 LIG X 999      41.891 132.432  18.224  1.00  0.00     0.001 A 
HETATM    9  C11 LIG X 999      43.114 131.913  17.791  1.00  0.00     0.013 A 
HETATM   10  C12 LIG X 999      44.091 131.494  18.722  1.00  0.00    -0.011 A 
ENDROOT
BRANCH   1  11
HETATM   11  C2  LIG X 999      45.693 130.630  16.920  1.00  0.00     0.203 A 
HETATM   12  O1  LIG X 999      46.103 131.529  16.048  1.00  0.00    -0.255 OA
HETATM   13  C1  LIG X 999      46.346 130.845  14.959  1.00  0.00     0.262 A 
HETATM   14  N1  LIG X 999      46.769 131.366  13.853  1.00  0.00    -0.260 NA
HETATM   15  N3  LIG X 999      46.104 129.537  15.137  1.00  0.00    -0.238 N 
HETATM   16  H1  LIG X 999      46.949 130.777  13.011  1.00  0.00     0.190 HD
HETATM   17  N2  LIG X 999      45.694 129.389  16.385  1.00  0.00    -0.145 NA
HETATM   18  H9  LIG X 999      46.215 128.763  14.443  1.00  0.00     0.193 HD
ENDBRANCH   1  11
TORSDOF 1
