REMARK VINA RESULT:      -7.3      3.085      7.215
REMARK  3 active torsions:
REMARK  status: ('A' for Active; 'I' for Inactive)
REMARK    1  A    between atoms: O1_2  and  C2_3 
REMARK    2  A    between atoms: C2_3  and  C3_5 
REMARK    3  A    between atoms: C4_6  and  C5_7 
ROOT
HETATM    1  C5  LIG X 999      43.922 131.709  18.411  1.00  0.00     0.019 A 
HETATM    2  C6  LIG X 999      42.611 132.175  18.568  1.00  0.00     0.021 A 
HETATM    3  C7  LIG X 999      42.054 132.297  19.844  1.00  0.00     0.013 A 
HETATM    4  C8  LIG X 999      42.806 131.953  20.978  1.00  0.00    -0.026 A 
HETATM    5  C9  LIG X 999      42.258 132.071  22.264  1.00  0.00     0.012 A 
HETATM    6  C10 LIG X 999      43.018 131.724  23.385  1.00  0.00     0.001 A 
HETATM    7  C11 LIG X 999      44.326 131.259  23.232  1.00  0.00     0.001 A 
HETATM    8  C12 LIG X 999      44.885 131.136  21.956  1.00  0.00     0.012 A 
HETATM    9  C13 LIG X 999      44.133 131.481  20.822  1.00  0.00    -0.025 A 
HETATM   10  C14 LIG X 999      44.682 131.362  19.535  1.00  0.00     0.032 A 
ENDROOT
BRANCH   1  11
HETATM   11  C4  LIG X 999      44.488 131.586  17.094  1.00  0.00    -0.056 C 
HETATM   12  C3  LIG X 999      44.963 131.484  15.990  1.00  0.00     0.008 C 
BRANCH  12  13
HETATM   13  C2  LIG X 999      45.528 131.361  14.677  1.00  0.00     0.339 C 
HETATM   14  O2  LIG X 999      44.784 131.063  13.705  1.00  0.00    -0.249 OA
BRANCH  13  15
HETATM   15  O1  LIG X 999      46.897 131.574  14.495  1.00  0.00    -0.316 OA
HETATM   16  C1  LIG X 999      47.592 131.137  13.335  1.00  0.00     0.214 C 
ENDBRANCH  13  15
ENDBRANCH  12  13
ENDBRANCH   1  11
TORSDOF 3
