REMARK VINA RESULT:      -7.8      2.747      6.748
REMARK  5 active torsions:
REMARK  status: ('A' for Active; 'I' for Inactive)
REMARK    1  A    between atoms: C6_6  and  C7_7 
REMARK    2  A    between atoms: C7_7  and  N1_8 
REMARK    3  A    between atoms: N4_11  and  C8_12 
REMARK    4  A    between atoms: C8_12  and  C9_13 
REMARK    5  A    between atoms: C9_13  and  N5_14 
ROOT
HETATM    1  N1  LIG X 999      45.048 131.828  15.439  1.00  0.00    -0.052 NA
HETATM    2  N2  LIG X 999      44.111 131.692  14.651  1.00  0.00    -0.160 NA
HETATM    3  N3  LIG X 999      43.176 131.558  13.863  1.00  0.00     0.068 N 
ENDROOT
BRANCH   1   4
HETATM    4  C7  LIG X 999      45.412 130.807  16.384  1.00  0.00     0.191 C 
HETATM    5  N4  LIG X 999      46.008 129.725  15.975  1.00  0.00    -0.267 NA
BRANCH   4   6
HETATM    6  C6  LIG X 999      45.124 130.953  17.831  1.00  0.00     0.015 A 
HETATM    7  C5  LIG X 999      43.935 131.562  18.269  1.00  0.00     0.027 A 
HETATM    8  C4  LIG X 999      43.662 131.688  19.640  1.00  0.00    -0.025 A 
HETATM    9  C3  LIG X 999      42.480 132.302  20.082  1.00  0.00     0.012 A 
HETATM   10  C12 LIG X 999      44.588 131.189  20.588  1.00  0.00    -0.026 A 
HETATM   11  C2  LIG X 999      42.219 132.422  21.450  1.00  0.00     0.001 A 
HETATM   12  C1  LIG X 999      43.135 131.931  22.385  1.00  0.00     0.001 A 
HETATM   13  C13 LIG X 999      44.315 131.316  21.959  1.00  0.00     0.012 A 
HETATM   14  C11 LIG X 999      45.765 130.568  20.148  1.00  0.00     0.013 A 
HETATM   15  C10 LIG X 999      46.027 130.447  18.780  1.00  0.00     0.016 A 
ENDBRANCH   4   6
BRANCH   5  16
HETATM   16  C8  LIG X 999      46.385 129.436  14.591  1.00  0.00     0.181 C 
BRANCH  16  17
HETATM   17  C9  LIG X 999      47.644 130.210  14.189  1.00  0.00     0.288 C 
BRANCH  17  18
HETATM   18  N5  LIG X 999      47.308 131.371  13.371  1.00  0.00     0.079 N 
HETATM   19  H9  LIG X 999      46.266 131.453  13.348  1.00  0.00     0.312 HD
HETATM   20  H10 LIG X 999      47.604 131.176  12.387  1.00  0.00     0.312 HD
ENDBRANCH  17  18
ENDBRANCH  16  17
ENDBRANCH   5  16
ENDBRANCH   1   4
TORSDOF 5
