REMARK VINA RESULT:      -6.5      1.469      2.659
REMARK  1 active torsions:
REMARK  status: ('A' for Active; 'I' for Inactive)
REMARK    1  A    between atoms: C14_14  and  N1_15 
ROOT
HETATM    1  N1  LIG X 999      42.074 132.112  20.439  1.00  0.00    -0.054 NA
HETATM    2  N2  LIG X 999      42.351 132.076  21.639  1.00  0.00    -0.160 NA
HETATM    3  N3  LIG X 999      42.625 132.040  22.837  1.00  0.00     0.068 N 
ENDROOT
BRANCH   1   4
HETATM    4  C14 LIG X 999      43.036 131.809  19.417  1.00  0.00     0.165 C 
HETATM    5  C13 LIG X 999      44.321 131.358  19.733  1.00  0.00     0.061 C 
HETATM    6  C11 LIG X 999      45.249 131.086  18.718  1.00  0.00    -0.045 C 
HETATM    7  C10 LIG X 999      44.827 131.137  17.352  1.00  0.00     0.008 C 
HETATM    8  C12 LIG X 999      46.682 130.907  19.159  1.00  0.00     0.049 C 
HETATM    9  C4  LIG X 999      45.597 130.678  16.230  1.00  0.00    -0.013 C 
HETATM   10  C9  LIG X 999      43.557 131.729  17.095  1.00  0.00     0.045 C 
HETATM   11  C3  LIG X 999      46.675 129.768  16.344  1.00  0.00     0.013 C 
HETATM   12  C5  LIG X 999      45.203 131.061  14.915  1.00  0.00    -0.025 C 
HETATM   13  C2  LIG X 999      47.427 129.397  15.227  1.00  0.00     0.001 C 
HETATM   14  C1  LIG X 999      47.097 129.880  13.965  1.00  0.00     0.001 C 
HETATM   15  C6  LIG X 999      45.978 130.692  13.804  1.00  0.00     0.012 C 
HETATM   16  C7  LIG X 999      44.012 131.760  14.714  1.00  0.00     0.014 C 
HETATM   17  C8  LIG X 999      43.173 132.039  15.783  1.00  0.00     0.031 C 
HETATM   18  N4  LIG X 999      42.706 132.022  18.119  1.00  0.00    -0.338 N 
HETATM   19  H11 LIG X 999      41.760 132.421  17.910  1.00  0.00     0.167 HD
ENDBRANCH   1   4
TORSDOF 1
