REMARK VINA RESULT:      -6.1      1.363      1.673
REMARK  6 active torsions:
REMARK  status: ('A' for Active; 'I' for Inactive)
REMARK    1  A    between atoms: S1_2  and  C1_3 
REMARK    2  A    between atoms: C1_3  and  N2_15 
REMARK    3  A    between atoms: N1_4  and  C2_5 
REMARK    4  A    between atoms: N2_15  and  C12_17 
REMARK    5  A    between atoms: C12_17  and  C13_18 
REMARK    6  A    between atoms: C13_18  and  C14_19 
ROOT
HETATM    1  C2  LIG X 999      44.631 131.092  16.525  1.00  0.00     0.060 A 
HETATM    2  C3  LIG X 999      45.367 130.059  17.115  1.00  0.00     0.032 A 
HETATM    3  C4  LIG X 999      46.472 129.509  16.460  1.00  0.00     0.014 A 
HETATM    4  C5  LIG X 999      46.841 129.972  15.189  1.00  0.00    -0.026 A 
HETATM    5  C6  LIG X 999      47.948 129.428  14.520  1.00  0.00     0.012 A 
HETATM    6  C7  LIG X 999      48.298 129.892  13.249  1.00  0.00     0.001 A 
HETATM    7  C8  LIG X 999      47.547 130.898  12.635  1.00  0.00     0.001 A 
HETATM    8  C9  LIG X 999      46.440 131.448  13.291  1.00  0.00     0.012 A 
HETATM    9  C10 LIG X 999      46.081 130.994  14.569  1.00  0.00    -0.024 A 
HETATM   10  C11 LIG X 999      44.972 131.538  15.236  1.00  0.00     0.044 A 
ENDROOT
BRANCH   1  11
HETATM   11  N1  LIG X 999      43.475 131.599  17.209  1.00  0.00    -0.225 NA
HETATM   12  C1  LIG X 999      43.374 131.860  18.481  1.00  0.00     0.160 C 
BRANCH  12  13
HETATM   13  S1  LIG X 999      41.845 132.599  19.059  1.00  0.00    -0.105 SA
HETATM   14  H1  LIG X 999      41.775 133.455  17.943  1.00  0.00     0.110 HD
ENDBRANCH  12  13
BRANCH  12  15
HETATM   15  N2  LIG X 999      44.410 131.494  19.413  1.00  0.00    -0.369 N 
HETATM   16  H9  LIG X 999      45.381 131.334  19.065  1.00  0.00     0.161 HD
BRANCH  15  17
HETATM   17  C12 LIG X 999      44.143 131.154  20.808  1.00  0.00     0.122 C 
BRANCH  17  18
HETATM   18  C13 LIG X 999      45.132 131.880  21.728  1.00  0.00     0.030 C 
BRANCH  18  19
HETATM   19  C14 LIG X 999      46.466 132.165  21.031  1.00  0.00     0.088 C 
HETATM   20  S2  LIG X 999      47.384 133.436  21.883  1.00  0.00    -0.098 SA
ENDBRANCH  18  19
ENDBRANCH  17  18
ENDBRANCH  15  17
ENDBRANCH  12  15
ENDBRANCH   1  11
TORSDOF 6
