REMARK VINA RESULT:      -4.8      7.331     10.453
REMARK  3 active torsions:
REMARK  status: ('A' for Active; 'I' for Inactive)
REMARK    1  A    between atoms: C2_2  and  N1_3 
REMARK    2  A    between atoms: C3_6  and  O1_7 
REMARK    3  A    between atoms: O1_7  and  C4_8 
REMARK       I    between atoms: C4_8  and  N4_10 
ROOT
HETATM    1  N1  LIG X 999      42.644 124.240  23.075  1.00  0.00    -0.070 NA
HETATM    2  N2  LIG X 999      42.198 123.312  23.750  1.00  0.00    -0.162 NA
HETATM    3  N3  LIG X 999      41.744 122.388  24.424  1.00  0.00     0.068 N 
ENDROOT
BRANCH   1   4
HETATM    4  C2  LIG X 999      44.041 124.566  22.997  1.00  0.00     0.128 A 
HETATM    5  C1  LIG X 999      44.849 123.751  22.193  1.00  0.00     0.049 A 
HETATM    6  C13 LIG X 999      46.218 124.006  22.052  1.00  0.00    -0.023 A 
HETATM    7  C8  LIG X 999      46.801 125.103  22.742  1.00  0.00    -0.022 A 
HETATM    8  C12 LIG X 999      47.021 123.182  21.240  1.00  0.00     0.021 A 
HETATM    9  C7  LIG X 999      45.998 125.915  23.552  1.00  0.00     0.052 A 
HETATM   10  C9  LIG X 999      48.180 125.358  22.614  1.00  0.00     0.021 A 
HETATM   11  C3  LIG X 999      44.618 125.665  23.681  1.00  0.00     0.113 A 
HETATM   12  C10 LIG X 999      48.941 124.522  21.794  1.00  0.00    -0.024 A 
HETATM   13  C11 LIG X 999      48.381 123.473  21.131  1.00  0.00    -0.024 A 
HETATM   14  C17 LIG X 999      50.395 124.588  21.532  1.00  0.00     0.276 C 
HETATM   15  C14 LIG X 999      49.408 122.738  20.363  1.00  0.00     0.276 C 
HETATM   16  N5  LIG X 999      50.663 123.547  20.489  1.00  0.00    -0.067 N 
HETATM   17  C15 LIG X 999      51.801 122.688  20.888  1.00  0.00     0.272 C 
HETATM   18  C16 LIG X 999      50.980 124.196  19.194  1.00  0.00     0.272 C 
BRANCH  11  19
HETATM   19  O1  LIG X 999      43.826 126.462  24.523  1.00  0.00    -0.259 OA
BRANCH  19  20
HETATM   20  C4  LIG X 999      42.891 127.411  24.084  1.00  0.00     0.367 C 
HETATM   21  O2  LIG X 999      41.764 127.040  23.655  1.00  0.00    -0.238 OA
HETATM   22  N4  LIG X 999      43.203 128.813  24.167  1.00  0.00    -0.336 N 
HETATM   23  C5  LIG X 999      42.201 129.806  23.768  1.00  0.00     0.154 C 
HETATM   24  C6  LIG X 999      44.530 129.228  24.624  1.00  0.00     0.154 C 
ENDBRANCH  19  20
ENDBRANCH  11  19
ENDBRANCH   1   4
TORSDOF 3
