REMARK VINA RESULT:      -8.3      1.789      6.119
REMARK  1 active torsions:
REMARK  status: ('A' for Active; 'I' for Inactive)
REMARK    1  A    between atoms: C2_2  and  N1_3 
ROOT
HETATM    1  N1  LIG X 999      45.162 131.024  14.292  1.00  0.00    -0.073 NA
HETATM    2  N2  LIG X 999      46.268 131.025  13.751  1.00  0.00    -0.162 NA
HETATM    3  N3  LIG X 999      47.372 131.026  13.209  1.00  0.00     0.068 N 
ENDROOT
BRANCH   1   4
HETATM    4  C2  LIG X 999      45.005 131.076  15.717  1.00  0.00     0.094 A 
HETATM    5  C1  LIG X 999      46.029 130.663  16.591  1.00  0.00     0.035 A 
HETATM    6  C11 LIG X 999      45.847 130.726  17.975  1.00  0.00     0.014 A 
HETATM    7  C10 LIG X 999      44.641 131.202  18.507  1.00  0.00    -0.024 A 
HETATM    8  C4  LIG X 999      43.607 131.619  17.635  1.00  0.00    -0.024 A 
HETATM    9  C9  LIG X 999      44.448 131.269  19.896  1.00  0.00     0.034 A 
HETATM   10  C3  LIG X 999      43.798 131.552  16.246  1.00  0.00     0.046 A 
HETATM   11  C5  LIG X 999      42.399 132.096  18.167  1.00  0.00     0.014 A 
HETATM   12  C6  LIG X 999      42.217 132.158  19.552  1.00  0.00     0.023 A 
HETATM   13  C7  LIG X 999      43.238 131.746  20.416  1.00  0.00     0.045 A 
HETATM   14  C8  LIG X 999      43.044 131.814  21.842  1.00  0.00     0.099 C 
HETATM   15  N4  LIG X 999      42.888 131.868  22.987  1.00  0.00    -0.191 NA
ENDBRANCH   1   4
TORSDOF 1
