REMARK VINA RESULT:      -5.9      5.112      7.827
REMARK  3 active torsions:
REMARK  status: ('A' for Active; 'I' for Inactive)
REMARK    1  A    between atoms: C7_9  and  C8_10 
REMARK    2  A    between atoms: C9_13  and  N4_14 
REMARK    3  A    between atoms: N7_23  and  C14_24 
ROOT
HETATM    1  N4  LIG X 999      44.921 132.077  20.696  1.00  0.00    -0.023 NA
HETATM    2  N5  LIG X 999      44.716 131.773  19.520  1.00  0.00    -0.158 NA
HETATM    3  N6  LIG X 999      44.510 131.469  18.347  1.00  0.00     0.068 N 
ENDROOT
BRANCH   1   4
HETATM    4  C9  LIG X 999      44.627 131.160  21.748  1.00  0.00     0.326 A 
HETATM    5  N3  LIG X 999      44.380 131.534  23.014  1.00  0.00    -0.099 NA
HETATM    6  N2  LIG X 999      44.153 130.414  23.683  1.00  0.00    -0.119 NA
HETATM    7  C8  LIG X 999      44.264 129.405  22.795  1.00  0.00     0.205 A 
HETATM    8  O1  LIG X 999      44.565 129.859  21.601  1.00  0.00    -0.252 OA
BRANCH   7   9
HETATM    9  C7  LIG X 999      44.122 127.977  23.145  1.00  0.00     0.032 A 
HETATM   10  C6  LIG X 999      42.874 127.385  23.514  1.00  0.00     0.020 A 
HETATM   11  C1  LIG X 999      41.566 128.056  23.812  1.00  0.00     0.060 A 
HETATM   12  C5  LIG X 999      42.875 126.013  23.691  1.00  0.00     0.019 A 
HETATM   13  N1  LIG X 999      41.464 129.345  23.858  1.00  0.00    -0.299 NA
HETATM   14  C2  LIG X 999      40.380 127.202  24.168  1.00  0.00     0.034 A 
HETATM   15  H1  LIG X 999      40.567 129.824  24.099  1.00  0.00     0.187 HD
HETATM   16  C3  LIG X 999      40.492 125.864  24.289  1.00  0.00     0.033 A 
HETATM   17  C4  LIG X 999      41.808 125.249  24.049  1.00  0.00     0.048 A 
HETATM   18  N7  LIG X 999      42.196 123.955  24.169  1.00  0.00    -0.324 N 
HETATM   19  C13 LIG X 999      43.531 123.942  23.900  1.00  0.00     0.193 A 
HETATM   20  C12 LIG X 999      43.969 125.218  23.593  1.00  0.00     0.032 A 
HETATM   21  O2  LIG X 999      44.330 122.804  23.951  1.00  0.00    -0.171 OA
HETATM   22  C11 LIG X 999      45.213 125.756  23.283  1.00  0.00     0.018 A 
HETATM   23  C10 LIG X 999      45.282 127.149  23.055  1.00  0.00     0.018 A 
BRANCH  18  24
HETATM   24  C14 LIG X 999      41.381 122.825  24.612  1.00  0.00     0.127 C 
HETATM   25  C15 LIG X 999      40.433 122.388  23.502  1.00  0.00     0.027 C 
ENDBRANCH  18  24
ENDBRANCH   7   9
ENDBRANCH   1   4
TORSDOF 3
