REMARK VINA RESULT:      -5.3      6.315      7.827
REMARK  1 active torsions:
REMARK  status: ('A' for Active; 'I' for Inactive)
REMARK    1  A    between atoms: C10_11  and  N2_12 
ROOT
HETATM    1  N2  LIG X 999      43.559 129.771  23.368  1.00  0.00    -0.052 NA
HETATM    2  N3  LIG X 999      43.341 130.517  22.411  1.00  0.00    -0.160 NA
HETATM    3  N4  LIG X 999      43.125 131.262  21.458  1.00  0.00     0.068 N 
ENDROOT
BRANCH   1   4
HETATM    4  C10 LIG X 999      42.925 128.492  23.503  1.00  0.00     0.186 C 
HETATM    5  N1  LIG X 999      41.620 128.446  23.859  1.00  0.00    -0.226 NA
HETATM    6  C9  LIG X 999      40.936 127.280  23.985  1.00  0.00     0.071 C 
HETATM    7  C8  LIG X 999      39.612 127.333  24.421  1.00  0.00     0.033 C 
HETATM    8  C14 LIG X 999      41.564 126.034  23.702  1.00  0.00     0.010 C 
HETATM    9  C7  LIG X 999      38.872 126.168  24.573  1.00  0.00     0.014 C 
HETATM   10  C5  LIG X 999      39.409 124.937  24.186  1.00  0.00    -0.025 C 
HETATM   11  C4  LIG X 999      40.740 124.859  23.680  1.00  0.00    -0.013 C 
HETATM   12  C6  LIG X 999      38.602 123.788  24.248  1.00  0.00     0.012 C 
HETATM   13  C3  LIG X 999      41.135 123.638  23.083  1.00  0.00     0.013 C 
HETATM   14  C2  LIG X 999      40.316 122.508  23.140  1.00  0.00     0.001 C 
HETATM   15  C1  LIG X 999      39.065 122.576  23.745  1.00  0.00     0.001 C 
HETATM   16  C12 LIG X 999      42.981 126.061  23.500  1.00  0.00    -0.045 C 
HETATM   17  C11 LIG X 999      43.629 127.296  23.336  1.00  0.00     0.063 C 
HETATM   18  C13 LIG X 999      43.877 124.850  23.600  1.00  0.00     0.049 C 
ENDBRANCH   1   4
TORSDOF 1
