REMARK VINA RESULT:      -7.1      1.580      1.846
REMARK  3 active torsions:
REMARK  status: ('A' for Active; 'I' for Inactive)
REMARK    1  A    between atoms: O1_2  and  C1_3 
REMARK    2  A    between atoms: C1_3  and  C3_8 
REMARK    3  A    between atoms: C2_4  and  N1_5 
ROOT
HETATM    1  C3  LIG X 999      44.635 131.217  19.173  1.00  0.00    -0.001 A 
HETATM    2  C4  LIG X 999      45.819 130.462  19.067  1.00  0.00     0.015 A 
HETATM    3  C5  LIG X 999      46.339 130.126  17.816  1.00  0.00     0.013 A 
HETATM    4  C6  LIG X 999      45.690 130.542  16.645  1.00  0.00    -0.026 A 
HETATM    5  C7  LIG X 999      46.205 130.209  15.383  1.00  0.00     0.012 A 
HETATM    6  C8  LIG X 999      45.547 130.629  14.224  1.00  0.00     0.001 A 
HETATM    7  C9  LIG X 999      44.374 131.383  14.315  1.00  0.00     0.001 A 
HETATM    8  C10 LIG X 999      43.850 131.721  15.566  1.00  0.00     0.012 A 
HETATM    9  C11 LIG X 999      44.502 131.305  16.739  1.00  0.00    -0.025 A 
HETATM   10  C12 LIG X 999      43.986 131.639  18.000  1.00  0.00     0.026 A 
ENDROOT
BRANCH   1  11
HETATM   11  C1  LIG X 999      44.080 131.587  20.500  1.00  0.00     0.090 C 
HETATM   12  C2  LIG X 999      42.776 131.862  20.650  1.00  0.00     0.118 C 
BRANCH  11  13
HETATM   13  O1  LIG X 999      44.927 131.662  21.607  1.00  0.00    -0.358 OA
HETATM   14  H1  LIG X 999      44.773 131.104  22.438  1.00  0.00     0.217 HD
ENDBRANCH  11  13
BRANCH  12  15
HETATM   15  N1  LIG X 999      42.224 132.214  21.921  1.00  0.00    -0.406 N 
HETATM   16  H3  LIG X 999      41.270 132.635  21.967  1.00  0.00     0.155 HD
HETATM   17  H4  LIG X 999      42.744 132.061  22.813  1.00  0.00     0.155 HD
ENDBRANCH  12  15
ENDBRANCH   1  11
TORSDOF 3
