REMARK VINA RESULT:      -7.7      0.000      0.000
REMARK  1 active torsions:
REMARK  status: ('A' for Active; 'I' for Inactive)
REMARK    1  A    between atoms: C10_11  and  N2_12 
ROOT
HETATM    1  N2  LIG X 999      42.758 131.584  23.505  1.00  0.00    -0.052 NA
HETATM    2  N3  LIG X 999      42.388 130.551  24.065  1.00  0.00    -0.160 NA
HETATM    3  N4  LIG X 999      42.018 129.521  24.625  1.00  0.00     0.068 N 
ENDROOT
BRANCH   1   4
HETATM    4  C10 LIG X 999      43.270 131.564  22.170  1.00  0.00     0.186 C 
HETATM    5  N1  LIG X 999      42.454 131.805  21.115  1.00  0.00    -0.226 NA
HETATM    6  C9  LIG X 999      42.899 131.775  19.832  1.00  0.00     0.071 C 
HETATM    7  C8  LIG X 999      42.005 132.100  18.813  1.00  0.00     0.033 C 
HETATM    8  C14 LIG X 999      44.252 131.442  19.539  1.00  0.00     0.010 C 
HETATM    9  C7  LIG X 999      42.412 132.093  17.486  1.00  0.00     0.014 C 
HETATM   10  C5  LIG X 999      43.694 131.652  17.145  1.00  0.00    -0.025 C 
HETATM   11  C4  LIG X 999      44.612 131.254  18.162  1.00  0.00    -0.013 C 
HETATM   12  C6  LIG X 999      44.045 131.553  15.790  1.00  0.00     0.012 C 
HETATM   13  C3  LIG X 999      45.793 130.596  17.745  1.00  0.00     0.013 C 
HETATM   14  C2  LIG X 999      46.123 130.490  16.392  1.00  0.00     0.001 C 
HETATM   15  C1  LIG X 999      45.265 130.993  15.418  1.00  0.00     0.001 C 
HETATM   16  C12 LIG X 999      45.150 131.361  20.653  1.00  0.00    -0.045 C 
HETATM   17  C11 LIG X 999      44.627 131.356  21.957  1.00  0.00     0.063 C 
HETATM   18  C13 LIG X 999      46.654 131.430  20.542  1.00  0.00     0.049 C 
ENDBRANCH   1   4
TORSDOF 1
