REMARK VINA RESULT:      -8.0      1.600      2.351
REMARK  7 active torsions:
REMARK  status: ('A' for Active; 'I' for Inactive)
REMARK    1  A    between atoms: C6_6  and  O1_7 
REMARK    2  A    between atoms: O1_7  and  C7_8 
REMARK    3  A    between atoms: C7_8  and  O3_10 
REMARK    4  A    between atoms: O3_10  and  C8_11 
REMARK    5  A    between atoms: C8_11  and  N1_12 
REMARK       I    between atoms: N1_12  and  C9_14 
REMARK    6  A    between atoms: C9_14  and  C10_16 
REMARK    7  A    between atoms: C10_16  and  N2_17 
ROOT
HETATM    1  N2  LIG X 999      42.020 129.607  23.543  1.00  0.00    -0.261 NA
HETATM    2  C11 LIG X 999      42.014 128.370  23.845  1.00  0.00     0.158 C 
HETATM    3  S1  LIG X 999      42.009 126.804  24.225  1.00  0.00    -0.055 SA
ENDROOT
BRANCH   1   4
HETATM    4  C10 LIG X 999      43.240 130.409  23.598  1.00  0.00     0.197 C 
HETATM    5  C12 LIG X 999      42.873 131.885  23.736  1.00  0.00     0.044 C 
BRANCH   4   6
HETATM    6  C9  LIG X 999      44.067 130.189  22.357  1.00  0.00     0.243 C 
HETATM    7  N1  LIG X 999      43.873 131.019  21.204  1.00  0.00    -0.338 N 
HETATM    8  H7  LIG X 999      43.076 131.695  21.185  1.00  0.00     0.164 HD
HETATM    9  O4  LIG X 999      44.949 129.287  22.347  1.00  0.00    -0.271 OA
BRANCH   7  10
HETATM   10  C8  LIG X 999      44.813 131.019  20.086  1.00  0.00     0.306 C 
BRANCH  10  11
HETATM   11  O3  LIG X 999      44.430 131.998  19.123  1.00  0.00    -0.278 OA
BRANCH  11  12
HETATM   12  C7  LIG X 999      43.300 131.869  18.312  1.00  0.00     0.413 C 
HETATM   13  O2  LIG X 999      42.145 131.902  18.818  1.00  0.00    -0.229 OA
BRANCH  12  14
HETATM   14  O1  LIG X 999      43.474 131.773  16.926  1.00  0.00    -0.256 OA
BRANCH  14  15
HETATM   15  C6  LIG X 999      44.502 131.067  16.284  1.00  0.00     0.082 A 
HETATM   16  C5  LIG X 999      45.233 131.718  15.284  1.00  0.00     0.049 A 
HETATM   17  C4  LIG X 999      46.269 131.055  14.610  1.00  0.00    -0.023 A 
HETATM   18  C3  LIG X 999      46.991 131.701  13.594  1.00  0.00     0.012 A 
HETATM   19  C15 LIG X 999      46.589 129.720  14.958  1.00  0.00    -0.026 A 
HETATM   20  C2  LIG X 999      48.021 131.028  12.930  1.00  0.00     0.001 A 
HETATM   21  C1  LIG X 999      48.337 129.711  13.272  1.00  0.00     0.001 A 
HETATM   22  C16 LIG X 999      47.626 129.057  14.284  1.00  0.00     0.012 A 
HETATM   23  C14 LIG X 999      45.872 129.078  15.976  1.00  0.00     0.015 A 
HETATM   24  C13 LIG X 999      44.839 129.748  16.638  1.00  0.00     0.038 A 
ENDBRANCH  14  15
ENDBRANCH  12  14
ENDBRANCH  11  12
ENDBRANCH  10  11
ENDBRANCH   7  10
ENDBRANCH   4   6
ENDBRANCH   1   4
TORSDOF 7
