REMARK VINA RESULT:      -6.8      1.461      1.860
REMARK  3 active torsions:
REMARK  status: ('A' for Active; 'I' for Inactive)
REMARK       I    between atoms: N1_2  and  C3_4 
REMARK    1  A    between atoms: C3_4  and  O2_6 
REMARK    2  A    between atoms: O2_6  and  C4_7 
REMARK    3  A    between atoms: C13_16  and  N2_17 
ROOT
HETATM    1  C4  LIG X 999      44.862 131.537  19.187  1.00  0.00     0.108 A 
HETATM    2  C5  LIG X 999      45.777 130.564  19.592  1.00  0.00     0.040 A 
HETATM    3  C6  LIG X 999      45.650 129.943  20.831  1.00  0.00     0.015 A 
HETATM    4  C7  LIG X 999      44.617 130.306  21.702  1.00  0.00    -0.024 A 
HETATM    5  C8  LIG X 999      44.506 129.677  22.952  1.00  0.00     0.012 A 
HETATM    6  C9  LIG X 999      43.502 130.053  23.842  1.00  0.00     0.001 A 
HETATM    7  C10 LIG X 999      42.606 131.066  23.499  1.00  0.00     0.001 A 
HETATM    8  C11 LIG X 999      42.701 131.701  22.259  1.00  0.00     0.014 A 
HETATM    9  C12 LIG X 999      43.696 131.323  21.329  1.00  0.00     0.003 A 
HETATM   10  C13 LIG X 999      43.823 131.945  20.057  1.00  0.00     0.071 A 
ENDROOT
BRANCH   1  11
HETATM   11  O2  LIG X 999      45.014 132.090  17.910  1.00  0.00    -0.259 OA
BRANCH  11  12
HETATM   12  C3  LIG X 999      44.215 131.739  16.813  1.00  0.00     0.367 C 
HETATM   13  N1  LIG X 999      44.812 131.583  15.515  1.00  0.00    -0.336 N 
HETATM   14  C1  LIG X 999      46.250 131.810  15.355  1.00  0.00     0.154 C 
HETATM   15  C2  LIG X 999      43.978 131.206  14.370  1.00  0.00     0.154 C 
HETATM   16  O1  LIG X 999      42.977 131.542  16.969  1.00  0.00    -0.238 OA
ENDBRANCH  11  12
ENDBRANCH   1  11
BRANCH  10  17
HETATM   17  N2  LIG X 999      42.944 133.007  19.651  1.00  0.00    -0.396 N 
HETATM   18  H13 LIG X 999      42.644 133.763  20.302  1.00  0.00     0.156 HD
HETATM   19  H14 LIG X 999      42.509 133.006  18.701  1.00  0.00     0.156 HD
ENDBRANCH  10  17
TORSDOF 3
