MODEL 1
REMARK VINA RESULT:      -7.5      0.000      0.000
REMARK  1 active torsions:
REMARK  status: ('A' for Active; 'I' for Inactive)
REMARK    1  A    between atoms: C4_4  and  N1_5 
ROOT
HETATM    1  C1  LIG X 999      45.742 129.714  20.919  1.00  0.00     0.049 C 
HETATM    2  C2  LIG X 999      44.679 130.763  21.140  1.00  0.00    -0.045 C 
HETATM    3  C3  LIG X 999      44.342 131.026  22.475  1.00  0.00     0.055 C 
HETATM    4  C4  LIG X 999      43.200 131.761  22.783  1.00  0.00     0.099 C 
HETATM    5  N2  LIG X 999      42.388 132.193  21.785  1.00  0.00    -0.342 N 
HETATM    6  C5  LIG X 999      42.695 132.002  20.469  1.00  0.00     0.045 C 
HETATM    7  C6  LIG X 999      41.780 132.412  19.492  1.00  0.00     0.031 C 
HETATM    8  C7  LIG X 999      42.053 132.232  18.144  1.00  0.00     0.014 C 
HETATM    9  C8  LIG X 999      43.296 131.744  17.735  1.00  0.00    -0.025 C 
HETATM   10  C9  LIG X 999      43.588 131.679  16.363  1.00  0.00     0.012 C 
HETATM   11  C10 LIG X 999      44.865 131.325  15.932  1.00  0.00     0.001 C 
HETATM   12  C11 LIG X 999      45.867 131.076  16.865  1.00  0.00     0.001 C 
HETATM   13  C12 LIG X 999      45.586 131.123  18.233  1.00  0.00     0.013 C 
HETATM   14  C13 LIG X 999      44.275 131.373  18.702  1.00  0.00    -0.013 C 
HETATM   15  C14 LIG X 999      43.920 131.376  20.093  1.00  0.00     0.008 C 
HETATM   16  H7  LIG X 999      41.502 132.688  22.042  1.00  0.00     0.167 HD
ENDROOT
BRANCH   4  17
HETATM   17  N1  LIG X 999      42.852 132.006  24.149  1.00  0.00    -0.385 N 
HETATM   18  H5  LIG X 999      43.052 132.927  24.597  1.00  0.00     0.157 HD
HETATM   19  H6  LIG X 999      42.388 131.265  24.720  1.00  0.00     0.157 HD
ENDBRANCH   4  17
TORSDOF 1
ENDMDL
MODEL 2
REMARK VINA RESULT:      -7.2      2.161      4.827
REMARK  1 active torsions:
REMARK  status: ('A' for Active; 'I' for Inactive)
REMARK    1  A    between atoms: C4_4  and  N1_5 
ROOT
HETATM    1  C1  LIG X 999      46.410 130.735  20.001  1.00  0.00     0.049 C 
HETATM    2  C2  LIG X 999      45.120 131.020  19.272  1.00  0.00    -0.045 C 
HETATM    3  C3  LIG X 999      45.184 130.984  17.871  1.00  0.00     0.055 C 
HETATM    4  C4  LIG X 999      44.140 131.494  17.104  1.00  0.00     0.099 C 
HETATM    5  N2  LIG X 999      43.071 132.064  17.716  1.00  0.00    -0.342 N 
HETATM    6  C5  LIG X 999      42.941 132.084  19.074  1.00  0.00     0.045 C 
HETATM    7  C6  LIG X 999      41.848 132.751  19.641  1.00  0.00     0.031 C 
HETATM    8  C7  LIG X 999      41.682 132.797  21.017  1.00  0.00     0.014 C 
HETATM    9  C8  LIG X 999      42.540 132.083  21.856  1.00  0.00    -0.025 C 
HETATM   10  C9  LIG X 999      42.282 132.054  23.236  1.00  0.00     0.012 C 
HETATM   11  C10 LIG X 999      43.040 131.242  24.077  1.00  0.00     0.001 C 
HETATM   12  C11 LIG X 999      44.029 130.423  23.542  1.00  0.00     0.001 C 
HETATM   13  C12 LIG X 999      44.305 130.452  22.173  1.00  0.00     0.013 C 
HETATM   14  C13 LIG X 999      43.628 131.344  21.308  1.00  0.00    -0.013 C 
HETATM   15  C14 LIG X 999      43.913 131.456  19.906  1.00  0.00     0.008 C 
HETATM   16  H7  LIG X 999      42.328 132.498  17.119  1.00  0.00     0.167 HD
ENDROOT
BRANCH   4  17
HETATM   17  N1  LIG X 999      44.223 131.471  15.676  1.00  0.00    -0.385 N 
HETATM   18  H5  LIG X 999      43.481 131.014  15.102  1.00  0.00     0.157 HD
HETATM   19  H6  LIG X 999      45.029 131.917  15.184  1.00  0.00     0.157 HD
ENDBRANCH   4  17
TORSDOF 1
ENDMDL
MODEL 3
REMARK VINA RESULT:      -7.0      0.986      2.766
REMARK  1 active torsions:
REMARK  status: ('A' for Active; 'I' for Inactive)
REMARK    1  A    between atoms: C4_4  and  N1_5 
ROOT
HETATM    1  C1  LIG X 999      41.736 133.203  20.431  1.00  0.00     0.049 C 
HETATM    2  C2  LIG X 999      42.628 132.168  21.071  1.00  0.00    -0.045 C 
HETATM    3  C3  LIG X 999      42.420 131.936  22.439  1.00  0.00     0.055 C 
HETATM    4  C4  LIG X 999      43.351 131.217  23.183  1.00  0.00     0.099 C 
HETATM    5  N2  LIG X 999      44.486 130.769  22.589  1.00  0.00    -0.342 N 
HETATM    6  C5  LIG X 999      44.714 130.929  21.253  1.00  0.00     0.045 C 
HETATM    7  C6  LIG X 999      45.937 130.505  20.718  1.00  0.00     0.031 C 
HETATM    8  C7  LIG X 999      46.209 130.653  19.366  1.00  0.00     0.014 C 
HETATM    9  C8  LIG X 999      45.223 131.123  18.495  1.00  0.00    -0.025 C 
HETATM   10  C9  LIG X 999      45.487 131.156  17.116  1.00  0.00     0.012 C 
HETATM   11  C10 LIG X 999      44.479 131.491  16.215  1.00  0.00     0.001 C 
HETATM   12  C11 LIG X 999      43.194 131.753  16.679  1.00  0.00     0.001 C 
HETATM   13  C12 LIG X 999      42.921 131.737  18.050  1.00  0.00     0.013 C 
HETATM   14  C13 LIG X 999      43.947 131.507  18.997  1.00  0.00    -0.013 C 
HETATM   15  C14 LIG X 999      43.733 131.537  20.417  1.00  0.00     0.008 C 
HETATM   16  H7  LIG X 999      45.201 130.286  23.181  1.00  0.00     0.167 HD
ENDROOT
BRANCH   4  17
HETATM   17  N1  LIG X 999      43.140 131.005  24.582  1.00  0.00    -0.385 N 
HETATM   18  H5  LIG X 999      43.929 130.729  25.208  1.00  0.00     0.157 HD
HETATM   19  H6  LIG X 999      42.192 131.126  25.000  1.00  0.00     0.157 HD
ENDBRANCH   4  17
TORSDOF 1
ENDMDL
MODEL 4
REMARK VINA RESULT:      -6.3      2.368      5.484
REMARK  1 active torsions:
REMARK  status: ('A' for Active; 'I' for Inactive)
REMARK    1  A    between atoms: C4_4  and  N1_5 
ROOT
HETATM    1  C1  LIG X 999      41.638 131.913  18.268  1.00  0.00     0.049 C 
HETATM    2  C2  LIG X 999      43.137 131.771  18.161  1.00  0.00    -0.045 C 
HETATM    3  C3  LIG X 999      43.674 131.869  16.869  1.00  0.00     0.055 C 
HETATM    4  C4  LIG X 999      44.989 131.485  16.621  1.00  0.00     0.099 C 
HETATM    5  N2  LIG X 999      45.743 130.977  17.628  1.00  0.00    -0.342 N 
HETATM    6  C5  LIG X 999      45.283 130.902  18.910  1.00  0.00     0.045 C 
HETATM    7  C6  LIG X 999      46.087 130.302  19.887  1.00  0.00     0.031 C 
HETATM    8  C7  LIG X 999      45.653 130.204  21.200  1.00  0.00     0.014 C 
HETATM    9  C8  LIG X 999      44.455 130.804  21.595  1.00  0.00    -0.025 C 
HETATM   10  C9  LIG X 999      44.095 130.787  22.952  1.00  0.00     0.012 C 
HETATM   11  C10 LIG X 999      42.977 131.492  23.392  1.00  0.00     0.001 C 
HETATM   12  C11 LIG X 999      42.238 132.251  22.491  1.00  0.00     0.001 C 
HETATM   13  C12 LIG X 999      42.577 132.265  21.135  1.00  0.00     0.013 C 
HETATM   14  C13 LIG X 999      43.640 131.475  20.638  1.00  0.00    -0.013 C 
HETATM   15  C14 LIG X 999      43.993 131.407  19.248  1.00  0.00     0.008 C 
HETATM   16  H7  LIG X 999      46.707 130.635  17.405  1.00  0.00     0.167 HD
ENDROOT
BRANCH   4  17
HETATM   17  N1  LIG X 999      45.521 131.569  15.296  1.00  0.00    -0.385 N 
HETATM   18  H5  LIG X 999      45.063 132.162  14.570  1.00  0.00     0.157 HD
HETATM   19  H6  LIG X 999      46.382 131.039  15.035  1.00  0.00     0.157 HD
ENDBRANCH   4  17
TORSDOF 1
ENDMDL
MODEL 5
REMARK VINA RESULT:      -5.9      2.157      5.143
REMARK  1 active torsions:
REMARK  status: ('A' for Active; 'I' for Inactive)
REMARK    1  A    between atoms: C4_4  and  N1_5 
ROOT
HETATM    1  C1  LIG X 999      45.939 130.423  20.014  1.00  0.00     0.049 C 
HETATM    2  C2  LIG X 999      44.586 130.771  20.584  1.00  0.00    -0.045 C 
HETATM    3  C3  LIG X 999      43.863 131.756  19.895  1.00  0.00     0.055 C 
HETATM    4  C4  LIG X 999      42.742 132.344  20.476  1.00  0.00     0.099 C 
HETATM    5  N2  LIG X 999      42.370 131.988  21.732  1.00  0.00    -0.342 N 
HETATM    6  C5  LIG X 999      43.012 131.004  22.426  1.00  0.00     0.045 C 
HETATM    7  C6  LIG X 999      42.621 130.736  23.743  1.00  0.00     0.031 C 
HETATM    8  C7  LIG X 999      43.252 129.747  24.482  1.00  0.00     0.014 C 
HETATM    9  C8  LIG X 999      44.210 128.924  23.887  1.00  0.00    -0.025 C 
HETATM   10  C9  LIG X 999      44.750 127.858  24.625  1.00  0.00     0.012 C 
HETATM   11  C10 LIG X 999      45.605 126.942  24.015  1.00  0.00     0.001 C 
HETATM   12  C11 LIG X 999      45.892 127.059  22.658  1.00  0.00     0.001 C 
HETATM   13  C12 LIG X 999      45.373 128.124  21.916  1.00  0.00     0.013 C 
HETATM   14  C13 LIG X 999      44.590 129.130  22.530  1.00  0.00    -0.013 C 
HETATM   15  C14 LIG X 999      44.081 130.274  21.827  1.00  0.00     0.008 C 
HETATM   16  H7  LIG X 999      41.563 132.489  22.173  1.00  0.00     0.167 HD
ENDROOT
BRANCH   4  17
HETATM   17  N1  LIG X 999      42.024 133.363  19.775  1.00  0.00    -0.385 N 
HETATM   18  H5  LIG X 999      41.224 133.122  19.149  1.00  0.00     0.157 HD
HETATM   19  H6  LIG X 999      42.287 134.368  19.882  1.00  0.00     0.157 HD
ENDBRANCH   4  17
TORSDOF 1
ENDMDL
MODEL 6
REMARK VINA RESULT:      -5.5      3.432      6.185
REMARK  1 active torsions:
REMARK  status: ('A' for Active; 'I' for Inactive)
REMARK    1  A    between atoms: C4_4  and  N1_5 
ROOT
HETATM    1  C1  LIG X 999      43.102 131.308  14.361  1.00  0.00     0.049 C 
HETATM    2  C2  LIG X 999      44.509 131.211  14.898  1.00  0.00    -0.045 C 
HETATM    3  C3  LIG X 999      45.522 131.040  13.943  1.00  0.00     0.055 C 
HETATM    4  C4  LIG X 999      46.805 130.667  14.334  1.00  0.00     0.099 C 
HETATM    5  N2  LIG X 999      47.067 130.432  15.645  1.00  0.00    -0.342 N 
HETATM    6  C5  LIG X 999      46.130 130.628  16.617  1.00  0.00     0.045 C 
HETATM    7  C6  LIG X 999      46.445 130.299  17.941  1.00  0.00     0.031 C 
HETATM    8  C7  LIG X 999      45.519 130.480  18.957  1.00  0.00     0.014 C 
HETATM    9  C8  LIG X 999      44.295 131.100  18.694  1.00  0.00    -0.025 C 
HETATM   10  C9  LIG X 999      43.423 131.374  19.760  1.00  0.00     0.012 C 
HETATM   11  C10 LIG X 999      42.260 132.110  19.546  1.00  0.00     0.001 C 
HETATM   12  C11 LIG X 999      41.982 132.614  18.279  1.00  0.00     0.001 C 
HETATM   13  C12 LIG X 999      42.834 132.337  17.207  1.00  0.00     0.013 C 
HETATM   14  C13 LIG X 999      43.965 131.503  17.367  1.00  0.00    -0.013 C 
HETATM   15  C14 LIG X 999      44.840 131.140  16.288  1.00  0.00     0.008 C 
HETATM   16  H7  LIG X 999      48.021 130.092  15.909  1.00  0.00     0.167 HD
ENDROOT
BRANCH   4  17
HETATM   17  N1  LIG X 999      47.826 130.474  13.351  1.00  0.00    -0.385 N 
HETATM   18  H5  LIG X 999      48.828 130.390  13.628  1.00  0.00     0.157 HD
HETATM   19  H6  LIG X 999      47.582 130.411  12.338  1.00  0.00     0.157 HD
ENDBRANCH   4  17
TORSDOF 1
ENDMDL
MODEL 7
REMARK VINA RESULT:      -5.1      6.985      8.583
REMARK  1 active torsions:
REMARK  status: ('A' for Active; 'I' for Inactive)
REMARK    1  A    between atoms: C4_4  and  N1_5 
ROOT
HETATM    1  C1  LIG X 999      43.400 124.934  24.080  1.00  0.00     0.049 C 
HETATM    2  C2  LIG X 999      42.458 126.080  23.800  1.00  0.00    -0.045 C 
HETATM    3  C3  LIG X 999      43.058 127.323  23.552  1.00  0.00     0.055 C 
HETATM    4  C4  LIG X 999      42.295 128.488  23.555  1.00  0.00     0.099 C 
HETATM    5  N2  LIG X 999      40.969 128.423  23.836  1.00  0.00    -0.342 N 
HETATM    6  C5  LIG X 999      40.330 127.234  24.040  1.00  0.00     0.045 C 
HETATM    7  C6  LIG X 999      38.976 127.243  24.395  1.00  0.00     0.031 C 
HETATM    8  C7  LIG X 999      38.292 126.057  24.614  1.00  0.00     0.014 C 
HETATM    9  C8  LIG X 999      38.913 124.829  24.372  1.00  0.00    -0.025 C 
HETATM   10  C9  LIG X 999      38.163 123.648  24.492  1.00  0.00     0.012 C 
HETATM   11  C10 LIG X 999      38.718 122.423  24.127  1.00  0.00     0.001 C 
HETATM   12  C11 LIG X 999      40.005 122.375  23.600  1.00  0.00     0.001 C 
HETATM   13  C12 LIG X 999      40.767 123.541  23.489  1.00  0.00     0.013 C 
HETATM   14  C13 LIG X 999      40.273 124.784  23.951  1.00  0.00    -0.013 C 
HETATM   15  C14 LIG X 999      41.034 126.001  23.914  1.00  0.00     0.008 C 
HETATM   16  H7  LIG X 999      40.428 129.317  23.896  1.00  0.00     0.167 HD
ENDROOT
BRANCH   4  17
HETATM   17  N1  LIG X 999      42.919 129.754  23.323  1.00  0.00    -0.385 N 
HETATM   18  H5  LIG X 999      42.374 130.641  23.391  1.00  0.00     0.157 HD
HETATM   19  H6  LIG X 999      43.934 129.810  23.084  1.00  0.00     0.157 HD
ENDBRANCH   4  17
TORSDOF 1
ENDMDL
MODEL 8
REMARK VINA RESULT:      -5.0      1.901      3.323
REMARK  1 active torsions:
REMARK  status: ('A' for Active; 'I' for Inactive)
REMARK    1  A    between atoms: C4_4  and  N1_5 
ROOT
HETATM    1  C1  LIG X 999      45.948 129.712  19.009  1.00  0.00     0.049 C 
HETATM    2  C2  LIG X 999      44.974 130.777  18.568  1.00  0.00    -0.045 C 
HETATM    3  C3  LIG X 999      44.197 131.358  19.582  1.00  0.00     0.055 C 
HETATM    4  C4  LIG X 999      43.090 132.140  19.262  1.00  0.00     0.099 C 
HETATM    5  N2  LIG X 999      42.739 132.311  17.962  1.00  0.00    -0.342 N 
HETATM    6  C5  LIG X 999      43.487 131.805  16.939  1.00  0.00     0.045 C 
HETATM    7  C6  LIG X 999      43.030 131.957  15.624  1.00  0.00     0.031 C 
HETATM    8  C7  LIG X 999      43.759 131.455  14.557  1.00  0.00     0.014 C 
HETATM    9  C8  LIG X 999      45.018 130.887  14.767  1.00  0.00    -0.025 C 
HETATM   10  C9  LIG X 999      45.784 130.490  13.659  1.00  0.00     0.012 C 
HETATM   11  C10 LIG X 999      47.093 130.048  13.832  1.00  0.00     0.001 C 
HETATM   12  C11 LIG X 999      47.661 130.040  15.102  1.00  0.00     0.001 C 
HETATM   13  C12 LIG X 999      46.906 130.419  16.214  1.00  0.00     0.013 C 
HETATM   14  C13 LIG X 999      45.541 130.770  16.087  1.00  0.00    -0.013 C 
HETATM   15  C14 LIG X 999      44.705 131.112  17.204  1.00  0.00     0.008 C 
HETATM   16  H7  LIG X 999      41.868 132.849  17.748  1.00  0.00     0.167 HD
ENDROOT
BRANCH   4  17
HETATM   17  N1  LIG X 999      42.291 132.710  20.303  1.00  0.00    -0.385 N 
HETATM   18  H5  LIG X 999      42.026 133.719  20.284  1.00  0.00     0.157 HD
HETATM   19  H6  LIG X 999      41.958 132.123  21.098  1.00  0.00     0.157 HD
ENDBRANCH   4  17
TORSDOF 1
ENDMDL
MODEL 9
REMARK VINA RESULT:      -5.0      6.638      8.075
REMARK  1 active torsions:
REMARK  status: ('A' for Active; 'I' for Inactive)
REMARK    1  A    between atoms: C4_4  and  N1_5 
ROOT
HETATM    1  C1  LIG X 999      42.241 123.412  21.309  1.00  0.00     0.049 C 
HETATM    2  C2  LIG X 999      41.443 123.797  22.531  1.00  0.00    -0.045 C 
HETATM    3  C3  LIG X 999      40.401 122.927  22.884  1.00  0.00     0.055 C 
HETATM    4  C4  LIG X 999      39.440 123.318  23.813  1.00  0.00     0.099 C 
HETATM    5  N2  LIG X 999      39.492 124.563  24.353  1.00  0.00    -0.342 N 
HETATM    6  C5  LIG X 999      40.510 125.429  24.076  1.00  0.00     0.045 C 
HETATM    7  C6  LIG X 999      40.465 126.722  24.611  1.00  0.00     0.031 C 
HETATM    8  C7  LIG X 999      41.478 127.632  24.351  1.00  0.00     0.014 C 
HETATM    9  C8  LIG X 999      42.617 127.238  23.644  1.00  0.00    -0.025 C 
HETATM   10  C9  LIG X 999      43.677 128.147  23.492  1.00  0.00     0.012 C 
HETATM   11  C10 LIG X 999      44.875 127.738  22.912  1.00  0.00     0.001 C 
HETATM   12  C11 LIG X 999      45.039 126.414  22.519  1.00  0.00     0.001 C 
HETATM   13  C12 LIG X 999      43.987 125.503  22.651  1.00  0.00     0.013 C 
HETATM   14  C13 LIG X 999      42.723 125.912  23.136  1.00  0.00    -0.013 C 
HETATM   15  C14 LIG X 999      41.593 125.032  23.238  1.00  0.00     0.008 C 
HETATM   16  H7  LIG X 999      38.724 124.857  25.000  1.00  0.00     0.167 HD
ENDROOT
BRANCH   4  17
HETATM   17  N1  LIG X 999      38.368 122.433  24.151  1.00  0.00    -0.385 N 
HETATM   18  H5  LIG X 999      37.494 122.408  23.583  1.00  0.00     0.157 HD
HETATM   19  H6  LIG X 999      38.447 121.793  24.973  1.00  0.00     0.157 HD
ENDBRANCH   4  17
TORSDOF 1
ENDMDL
