REMARK VINA RESULT:      -8.8      0.000      0.000
REMARK  3 active torsions:
REMARK  status: ('A' for Active; 'I' for Inactive)
REMARK    1  A    between atoms: C3_3  and  O1_4 
REMARK    2  A    between atoms: O1_4  and  C4_5 
REMARK    3  A    between atoms: C5_7  and  C6_8 
ROOT
HETATM    1  C1  LIG X 999      47.625 131.004  13.001  1.00  0.00     0.014 C 
HETATM    2  C2  LIG X 999      46.993 130.422  13.846  1.00  0.00    -0.091 C 
HETATM    3  C3  LIG X 999      46.224 129.718  14.874  1.00  0.00     0.270 C 
ENDROOT
BRANCH   3   4
HETATM    4  O1  LIG X 999      45.791 130.652  15.854  1.00  0.00    -0.317 OA
BRANCH   4   5
HETATM    5  C4  LIG X 999      44.591 131.357  15.739  1.00  0.00     0.217 C 
HETATM    6  O2  LIG X 999      44.081 131.672  14.483  1.00  0.00    -0.164 OA
HETATM    7  C5  LIG X 999      43.915 131.726  16.830  1.00  0.00     0.079 C 
BRANCH   7   8
HETATM    8  C6  LIG X 999      44.368 131.390  18.199  1.00  0.00    -0.020 A 
HETATM    9  C7  LIG X 999      45.577 130.690  18.325  1.00  0.00     0.012 A 
HETATM   10  C8  LIG X 999      46.093 130.380  19.583  1.00  0.00     0.002 A 
HETATM   11  C9  LIG X 999      45.408 130.755  20.737  1.00  0.00     0.012 A 
HETATM   12  C10 LIG X 999      44.180 131.426  20.643  1.00  0.00    -0.025 A 
HETATM   13  C11 LIG X 999      43.481 131.777  21.809  1.00  0.00     0.012 A 
HETATM   14  C15 LIG X 999      43.638 131.738  19.366  1.00  0.00    -0.015 A 
HETATM   15  C12 LIG X 999      42.244 132.415  21.721  1.00  0.00     0.001 A 
HETATM   16  C13 LIG X 999      41.688 132.698  20.474  1.00  0.00     0.001 A 
HETATM   17  C14 LIG X 999      42.370 132.357  19.304  1.00  0.00     0.013 A 
ENDBRANCH   7   8
ENDBRANCH   4   5
ENDBRANCH   3   4
TORSDOF 3
