MODEL 1
REMARK VINA RESULT:      -7.8      0.000      0.000
REMARK  2 active torsions:
REMARK  status: ('A' for Active; 'I' for Inactive)
REMARK    1  A    between atoms: O1_2  and  C2_3 
REMARK    2  A    between atoms: C11_12  and  N1_13 
ROOT
HETATM    1  C2  LIG X 999      45.672 130.959  15.816  1.00  0.00     0.095 A 
HETATM    2  C3  LIG X 999      46.070 130.719  17.147  1.00  0.00     0.051 A 
HETATM    3  C4  LIG X 999      45.200 130.988  18.211  1.00  0.00    -0.023 A 
HETATM    4  C5  LIG X 999      45.600 130.750  19.542  1.00  0.00     0.021 A 
HETATM    5  C6  LIG X 999      44.700 131.029  20.571  1.00  0.00    -0.024 A 
HETATM    6  C7  LIG X 999      43.459 131.529  20.316  1.00  0.00    -0.024 A 
HETATM    7  C8  LIG X 999      43.028 131.785  19.014  1.00  0.00     0.021 A 
HETATM    8  C9  LIG X 999      43.904 131.510  17.947  1.00  0.00    -0.023 A 
HETATM    9  C10 LIG X 999      43.513 131.748  16.624  1.00  0.00     0.044 A 
HETATM   10  C11 LIG X 999      44.386 131.476  15.560  1.00  0.00     0.060 A 
HETATM   11  C12 LIG X 999      42.724 131.760  21.578  1.00  0.00     0.276 C 
HETATM   12  N2  LIG X 999      43.591 131.193  22.660  1.00  0.00    -0.067 N 
HETATM   13  C13 LIG X 999      42.980 129.955  23.202  1.00  0.00     0.272 C 
HETATM   14  C14 LIG X 999      43.757 132.168  23.761  1.00  0.00     0.272 C 
HETATM   15  C15 LIG X 999      44.911 130.879  22.027  1.00  0.00     0.276 C 
ENDROOT
BRANCH  10  16
HETATM   16  N1  LIG X 999      43.957 131.729  14.217  1.00  0.00    -0.397 N 
HETATM   17  H8  LIG X 999      44.604 132.170  13.526  1.00  0.00     0.156 HD
HETATM   18  H9  LIG X 999      42.996 131.481  13.895  1.00  0.00     0.156 HD
ENDBRANCH  10  16
BRANCH   1  19
HETATM   19  O1  LIG X 999      46.523 130.697  14.730  1.00  0.00    -0.354 OA
HETATM   20  C1  LIG X 999      47.190 129.459  14.505  1.00  0.00     0.210 C 
ENDBRANCH   1  19
TORSDOF 2
ENDMDL
MODEL 2
REMARK VINA RESULT:      -7.7      2.511      6.394
REMARK  2 active torsions:
REMARK  status: ('A' for Active; 'I' for Inactive)
REMARK    1  A    between atoms: O1_2  and  C2_3 
REMARK    2  A    between atoms: C11_12  and  N1_13 
ROOT
HETATM    1  C2  LIG X 999      44.080 131.087  22.638  1.00  0.00     0.095 A 
HETATM    2  C3  LIG X 999      44.999 130.677  21.651  1.00  0.00     0.051 A 
HETATM    3  C4  LIG X 999      44.747 130.925  20.296  1.00  0.00    -0.023 A 
HETATM    4  C5  LIG X 999      45.665 130.513  19.308  1.00  0.00     0.021 A 
HETATM    5  C6  LIG X 999      45.375 130.785  17.970  1.00  0.00    -0.024 A 
HETATM    6  C7  LIG X 999      44.231 131.427  17.606  1.00  0.00    -0.024 A 
HETATM    7  C8  LIG X 999      43.294 131.845  18.551  1.00  0.00     0.021 A 
HETATM    8  C9  LIG X 999      43.553 131.596  19.913  1.00  0.00    -0.023 A 
HETATM    9  C10 LIG X 999      42.643 132.001  20.897  1.00  0.00     0.044 A 
HETATM   10  C11 LIG X 999      42.899 131.752  22.253  1.00  0.00     0.060 A 
HETATM   11  C12 LIG X 999      44.159 131.561  16.135  1.00  0.00     0.276 C 
HETATM   12  N2  LIG X 999      45.475 131.068  15.619  1.00  0.00    -0.067 N 
HETATM   13  C13 LIG X 999      46.277 132.206  15.107  1.00  0.00     0.272 C 
HETATM   14  C14 LIG X 999      45.276 130.091  14.525  1.00  0.00     0.272 C 
HETATM   15  C15 LIG X 999      46.174 130.429  16.779  1.00  0.00     0.276 C 
ENDROOT
BRANCH  10  16
HETATM   16  N1  LIG X 999      41.950 132.178  23.237  1.00  0.00    -0.397 N 
HETATM   17  H8  LIG X 999      41.374 131.481  23.760  1.00  0.00     0.156 HD
HETATM   18  H9  LIG X 999      41.809 133.189  23.458  1.00  0.00     0.156 HD
ENDBRANCH  10  16
BRANCH   1  19
HETATM   19  O1  LIG X 999      44.309 130.851  24.004  1.00  0.00    -0.354 OA
HETATM   20  C1  LIG X 999      44.256 129.571  24.625  1.00  0.00     0.210 C 
ENDBRANCH   1  19
TORSDOF 2
ENDMDL
MODEL 3
REMARK VINA RESULT:      -7.3      1.391      2.473
REMARK  2 active torsions:
REMARK  status: ('A' for Active; 'I' for Inactive)
REMARK    1  A    between atoms: O1_2  and  C2_3 
REMARK    2  A    between atoms: C11_12  and  N1_13 
ROOT
HETATM    1  C2  LIG X 999      44.877 131.462  16.345  1.00  0.00     0.095 A 
HETATM    2  C3  LIG X 999      43.984 131.885  17.350  1.00  0.00     0.051 A 
HETATM    3  C4  LIG X 999      44.178 131.502  18.684  1.00  0.00    -0.023 A 
HETATM    4  C5  LIG X 999      43.283 131.924  19.688  1.00  0.00     0.021 A 
HETATM    5  C6  LIG X 999      43.517 131.521  21.004  1.00  0.00    -0.024 A 
HETATM    6  C7  LIG X 999      44.576 130.731  21.330  1.00  0.00    -0.024 A 
HETATM    7  C8  LIG X 999      45.480 130.286  20.364  1.00  0.00     0.021 A 
HETATM    8  C9  LIG X 999      45.284 130.677  19.025  1.00  0.00    -0.023 A 
HETATM    9  C10 LIG X 999      46.168 130.257  18.024  1.00  0.00     0.044 A 
HETATM   10  C11 LIG X 999      45.972 130.644  16.690  1.00  0.00     0.060 A 
HETATM   11  C12 LIG X 999      44.573 130.430  22.778  1.00  0.00     0.276 C 
HETATM   12  N2  LIG X 999      43.471 131.261  23.360  1.00  0.00    -0.067 N 
HETATM   13  C13 LIG X 999      44.042 132.361  24.174  1.00  0.00     0.272 C 
HETATM   14  C14 LIG X 999      42.592 130.435  24.217  1.00  0.00     0.272 C 
HETATM   15  C15 LIG X 999      42.705 131.823  22.203  1.00  0.00     0.276 C 
ENDROOT
BRANCH  10  16
HETATM   16  N1  LIG X 999      46.893 130.200  15.687  1.00  0.00    -0.397 N 
HETATM   17  H8  LIG X 999      47.557 130.871  15.239  1.00  0.00     0.156 HD
HETATM   18  H9  LIG X 999      46.927 129.203  15.380  1.00  0.00     0.156 HD
ENDBRANCH  10  16
BRANCH   1  19
HETATM   19  O1  LIG X 999      44.707 131.832  15.001  1.00  0.00    -0.354 OA
HETATM   20  C1  LIG X 999      43.567 131.511  14.211  1.00  0.00     0.210 C 
ENDBRANCH   1  19
TORSDOF 2
ENDMDL
MODEL 4
REMARK VINA RESULT:      -6.7      2.596      6.746
REMARK  2 active torsions:
REMARK  status: ('A' for Active; 'I' for Inactive)
REMARK    1  A    between atoms: O1_2  and  C2_3 
REMARK    2  A    between atoms: C11_12  and  N1_13 
ROOT
HETATM    1  C2  LIG X 999      43.164 131.389  22.468  1.00  0.00     0.095 A 
HETATM    2  C3  LIG X 999      42.929 131.813  21.144  1.00  0.00     0.051 A 
HETATM    3  C4  LIG X 999      43.791 131.427  20.109  1.00  0.00    -0.023 A 
HETATM    4  C5  LIG X 999      43.557 131.853  18.786  1.00  0.00     0.021 A 
HETATM    5  C6  LIG X 999      44.439 131.442  17.785  1.00  0.00    -0.024 A 
HETATM    6  C7  LIG X 999      45.513 130.653  18.063  1.00  0.00    -0.024 A 
HETATM    7  C8  LIG X 999      45.783 130.216  19.360  1.00  0.00     0.021 A 
HETATM    8  C9  LIG X 999      44.913 130.602  20.397  1.00  0.00    -0.023 A 
HETATM    9  C10 LIG X 999      45.143 130.184  21.714  1.00  0.00     0.044 A 
HETATM   10  C11 LIG X 999      44.278 130.571  22.747  1.00  0.00     0.060 A 
HETATM   11  C12 LIG X 999      46.295 130.390  16.835  1.00  0.00     0.276 C 
HETATM   12  N2  LIG X 999      45.494 130.978  15.714  1.00  0.00    -0.067 N 
HETATM   13  C13 LIG X 999      44.912 129.895  14.885  1.00  0.00     0.272 C 
HETATM   14  C14 LIG X 999      46.345 131.834  14.857  1.00  0.00     0.272 C 
HETATM   15  C15 LIG X 999      44.402 131.783  16.347  1.00  0.00     0.276 C 
ENDROOT
BRANCH  10  16
HETATM   16  N1  LIG X 999      44.538 130.128  24.084  1.00  0.00    -0.397 N 
HETATM   17  H8  LIG X 999      43.756 130.001  24.765  1.00  0.00     0.156 HD
HETATM   18  H9  LIG X 999      45.507 129.920  24.411  1.00  0.00     0.156 HD
ENDBRANCH  10  16
BRANCH   1  19
HETATM   19  O1  LIG X 999      42.316 131.759  23.525  1.00  0.00    -0.354 OA
HETATM   20  C1  LIG X 999      42.703 132.577  24.625  1.00  0.00     0.210 C 
ENDBRANCH   1  19
TORSDOF 2
ENDMDL
MODEL 5
REMARK VINA RESULT:      -5.0      1.693      2.748
REMARK  2 active torsions:
REMARK  status: ('A' for Active; 'I' for Inactive)
REMARK    1  A    between atoms: O1_2  and  C2_3 
REMARK    2  A    between atoms: C11_12  and  N1_13 
ROOT
HETATM    1  C2  LIG X 999      46.323 130.902  14.530  1.00  0.00     0.095 A 
HETATM    2  C3  LIG X 999      45.507 131.644  15.407  1.00  0.00     0.051 A 
HETATM    3  C4  LIG X 999      45.407 131.291  16.759  1.00  0.00    -0.023 A 
HETATM    4  C5  LIG X 999      44.589 132.032  17.636  1.00  0.00     0.021 A 
HETATM    5  C6  LIG X 999      44.523 131.646  18.975  1.00  0.00    -0.024 A 
HETATM    6  C7  LIG X 999      45.220 130.575  19.444  1.00  0.00    -0.024 A 
HETATM    7  C8  LIG X 999      46.035 129.811  18.607  1.00  0.00     0.021 A 
HETATM    8  C9  LIG X 999      46.135 130.172  17.250  1.00  0.00    -0.023 A 
HETATM    9  C10 LIG X 999      46.944 129.437  16.375  1.00  0.00     0.044 A 
HETATM   10  C11 LIG X 999      47.042 129.794  15.022  1.00  0.00     0.060 A 
HETATM   11  C12 LIG X 999      44.950 130.369  20.883  1.00  0.00     0.276 C 
HETATM   12  N2  LIG X 999      44.120 131.541  21.309  1.00  0.00    -0.067 N 
HETATM   13  C13 LIG X 999      44.919 132.440  22.176  1.00  0.00     0.272 C 
HETATM   14  C14 LIG X 999      42.925 131.090  22.057  1.00  0.00     0.272 C 
HETATM   15  C15 LIG X 999      43.721 132.257  20.057  1.00  0.00     0.276 C 
ENDROOT
BRANCH  10  16
HETATM   16  N1  LIG X 999      47.878 129.024  14.151  1.00  0.00    -0.397 N 
HETATM   17  H8  LIG X 999      47.735 127.994  14.048  1.00  0.00     0.156 HD
HETATM   18  H9  LIG X 999      48.647 129.466  13.599  1.00  0.00     0.156 HD
ENDBRANCH  10  16
BRANCH   1  19
HETATM   19  O1  LIG X 999      46.442 131.235  13.170  1.00  0.00    -0.354 OA
HETATM   20  C1  LIG X 999      47.667 131.243  12.443  1.00  0.00     0.210 C 
ENDBRANCH   1  19
TORSDOF 2
ENDMDL
MODEL 6
REMARK VINA RESULT:      -4.8      4.787      7.285
REMARK  2 active torsions:
REMARK  status: ('A' for Active; 'I' for Inactive)
REMARK    1  A    between atoms: O1_2  and  C2_3 
REMARK    2  A    between atoms: C11_12  and  N1_13 
ROOT
HETATM    1  C2  LIG X 999      44.206 130.294  22.385  1.00  0.00     0.095 A 
HETATM    2  C3  LIG X 999      44.976 129.134  22.165  1.00  0.00     0.051 A 
HETATM    3  C4  LIG X 999      44.584 127.905  22.710  1.00  0.00    -0.023 A 
HETATM    4  C5  LIG X 999      45.355 126.745  22.492  1.00  0.00     0.021 A 
HETATM    5  C6  LIG X 999      44.925 125.541  23.051  1.00  0.00    -0.024 A 
HETATM    6  C7  LIG X 999      43.791 125.468  23.801  1.00  0.00    -0.024 A 
HETATM    7  C8  LIG X 999      43.004 126.594  24.046  1.00  0.00     0.021 A 
HETATM    8  C9  LIG X 999      43.399 127.828  23.493  1.00  0.00    -0.023 A 
HETATM    9  C10 LIG X 999      42.638 128.982  23.710  1.00  0.00     0.044 A 
HETATM   10  C11 LIG X 999      43.033 130.211  23.161  1.00  0.00     0.060 A 
HETATM   11  C12 LIG X 999      43.583 124.090  24.294  1.00  0.00     0.276 C 
HETATM   12  N2  LIG X 999      44.638 123.260  23.630  1.00  0.00    -0.067 N 
HETATM   13  C13 LIG X 999      44.021 122.376  22.612  1.00  0.00     0.272 C 
HETATM   14  C14 LIG X 999      45.349 122.425  24.624  1.00  0.00     0.272 C 
HETATM   15  C15 LIG X 999      45.582 124.219  22.972  1.00  0.00     0.276 C 
ENDROOT
BRANCH  10  16
HETATM   16  N1  LIG X 999      42.234 131.376  23.399  1.00  0.00    -0.397 N 
HETATM   17  H8  LIG X 999      41.261 131.440  23.024  1.00  0.00     0.156 HD
HETATM   18  H9  LIG X 999      42.597 132.185  23.950  1.00  0.00     0.156 HD
ENDBRANCH  10  16
BRANCH   1  19
HETATM   19  O1  LIG X 999      44.575 131.539  21.849  1.00  0.00    -0.354 OA
HETATM   20  C1  LIG X 999      45.369 131.714  20.680  1.00  0.00     0.210 C 
ENDBRANCH   1  19
TORSDOF 2
ENDMDL
