REMARK VINA RESULT:      -6.7      1.285      2.003
REMARK  4 active torsions:
REMARK  status: ('A' for Active; 'I' for Inactive)
REMARK    1  A    between atoms: C3_3  and  C4_4 
REMARK    2  A    between atoms: C4_4  and  C5_5 
REMARK    3  A    between atoms: C5_5  and  N1_6 
REMARK    4  A    between atoms: N4_15  and  C12_16 
ROOT
HETATM    1  C12 LIG X 999      45.018 131.099  19.085  1.00  0.00     0.055 A 
HETATM    2  C13 LIG X 999      44.635 132.278  18.424  1.00  0.00     0.032 A 
HETATM    3  C14 LIG X 999      45.000 132.496  17.094  1.00  0.00     0.014 A 
HETATM    4  C15 LIG X 999      45.744 131.533  16.398  1.00  0.00    -0.024 A 
HETATM    5  C16 LIG X 999      46.116 131.744  15.061  1.00  0.00     0.034 A 
HETATM    6  C17 LIG X 999      46.853 130.770  14.375  1.00  0.00     0.045 A 
HETATM    7  C18 LIG X 999      47.233 130.991  13.003  1.00  0.00     0.099 C 
HETATM    8  N5  LIG X 999      47.540 131.167  11.901  1.00  0.00    -0.191 NA
HETATM    9  C19 LIG X 999      47.219 129.583  15.020  1.00  0.00     0.023 A 
HETATM   10  C20 LIG X 999      46.852 129.364  16.351  1.00  0.00     0.014 A 
HETATM   11  C21 LIG X 999      46.115 130.331  17.049  1.00  0.00    -0.024 A 
HETATM   12  C22 LIG X 999      45.743 130.122  18.386  1.00  0.00     0.043 A 
ENDROOT
BRANCH   1  13
HETATM   13  N4  LIG X 999      44.629 130.858  20.446  1.00  0.00    -0.241 N 
HETATM   14  C2  LIG X 999      43.500 131.241  21.081  1.00  0.00     0.055 A 
HETATM   15  C1  LIG X 999      42.383 132.051  20.491  1.00  0.00     0.072 C 
HETATM   16  C3  LIG X 999      43.587 130.739  22.368  1.00  0.00     0.078 A 
HETATM   17  N2  LIG X 999      44.757 130.078  22.478  1.00  0.00    -0.162 NA
HETATM   18  N3  LIG X 999      45.370 130.175  21.306  1.00  0.00     0.010 NA
BRANCH  16  19
HETATM   19  C4  LIG X 999      42.548 130.774  23.451  1.00  0.00     0.093 C 
BRANCH  19  20
HETATM   20  C5  LIG X 999      42.576 129.483  24.275  1.00  0.00     0.279 C 
BRANCH  20  21
HETATM   21  N1  LIG X 999      42.214 128.324  23.431  1.00  0.00     0.093 N 
HETATM   22  C6  LIG X 999      40.774 128.007  23.481  1.00  0.00     0.273 C 
HETATM   23  C7  LIG X 999      40.620 126.580  23.977  1.00  0.00     0.036 C 
HETATM   24  C8  LIG X 999      41.960 125.939  23.681  1.00  0.00     0.016 C 
HETATM   25  C9  LIG X 999      42.269 124.772  24.625  1.00  0.00     0.012 C 
HETATM   26  C10 LIG X 999      42.945 127.103  23.815  1.00  0.00     0.222 C 
HETATM   27  C11 LIG X 999      44.165 126.926  22.906  1.00  0.00     0.043 C 
ENDBRANCH  20  21
ENDBRANCH  19  20
ENDBRANCH  16  19
ENDBRANCH   1  13
TORSDOF 4
