REMARK VINA RESULT:      -5.8      3.118      7.764
REMARK  3 active torsions:
REMARK  status: ('A' for Active; 'I' for Inactive)
REMARK    1  A    between atoms: C1_2  and  C2_4 
REMARK       I    between atoms: N1_6  and  C4_7 
REMARK    2  A    between atoms: C4_7  and  C5_9 
REMARK    3  A    between atoms: C6_10  and  C7_11 
ROOT
HETATM    1  C5  LIG X 999      44.472 128.638  22.876  1.00  0.00     0.000 C 
HETATM    2  C6  LIG X 999      45.187 127.679  23.012  1.00  0.00    -0.057 C 
ENDROOT
BRANCH   1   3
HETATM    3  C4  LIG X 999      43.624 129.790  22.719  1.00  0.00     0.300 C 
HETATM    4  N1  LIG X 999      43.805 130.690  21.616  1.00  0.00    -0.317 N 
HETATM    5  C3  LIG X 999      44.805 130.557  20.596  1.00  0.00     0.172 C 
HETATM    6  C17 LIG X 999      42.988 131.857  21.369  1.00  0.00     0.298 C 
HETATM    7  C2  LIG X 999      44.612 131.818  19.766  1.00  0.00     0.242 C 
HETATM    8  O4  LIG X 999      43.399 132.439  20.149  1.00  0.00    -0.354 OA
HETATM    9  O3  LIG X 999      42.713 130.001  23.564  1.00  0.00    -0.258 OA
BRANCH   7  10
HETATM   10  C1  LIG X 999      44.585 131.512  18.299  1.00  0.00     0.204 C 
HETATM   11  O1  LIG X 999      43.519 131.651  17.643  1.00  0.00    -0.646 OA
HETATM   12  O2  LIG X 999      45.748 131.122  17.645  1.00  0.00    -0.646 OA
ENDBRANCH   7  10
ENDBRANCH   1   3
BRANCH   2  13
HETATM   13  C7  LIG X 999      46.048 126.536  23.176  1.00  0.00     0.019 A 
HETATM   14  C8  LIG X 999      46.498 126.178  24.453  1.00  0.00     0.021 A 
HETATM   15  C9  LIG X 999      47.333 125.070  24.620  1.00  0.00     0.013 A 
HETATM   16  C10 LIG X 999      47.726 124.309  23.509  1.00  0.00    -0.026 A 
HETATM   17  C11 LIG X 999      48.564 123.194  23.666  1.00  0.00     0.012 A 
HETATM   18  C15 LIG X 999      47.273 124.670  22.216  1.00  0.00    -0.025 A 
HETATM   19  C12 LIG X 999      48.948 122.444  22.550  1.00  0.00     0.001 A 
HETATM   20  C13 LIG X 999      48.502 122.800  21.275  1.00  0.00     0.001 A 
HETATM   21  C14 LIG X 999      47.666 123.908  21.105  1.00  0.00     0.012 A 
HETATM   22  C16 LIG X 999      46.434 125.785  22.059  1.00  0.00     0.032 A 
ENDBRANCH   2  13
TORSDOF 3
