REMARK VINA RESULT:      -6.8      1.218      2.210
REMARK  5 active torsions:
REMARK  status: ('A' for Active; 'I' for Inactive)
REMARK    1  A    between atoms: C3_3  and  O1_4 
REMARK    2  A    between atoms: O1_4  and  C4_5 
REMARK    3  A    between atoms: C4_5  and  C5_7 
REMARK    4  A    between atoms: C5_7  and  C6_8 
REMARK    5  A    between atoms: C11_13  and  O3_14 
ROOT
HETATM    1  C1  LIG X 999      48.277 129.218  13.801  1.00  0.00     0.014 C 
HETATM    2  C2  LIG X 999      47.642 130.239  13.716  1.00  0.00    -0.091 C 
HETATM    3  C3  LIG X 999      46.870 131.482  13.615  1.00  0.00     0.271 C 
ENDROOT
BRANCH   3   4
HETATM    4  O1  LIG X 999      46.572 131.987  14.914  1.00  0.00    -0.309 OA
BRANCH   4   5
HETATM    5  C4  LIG X 999      45.646 131.389  15.777  1.00  0.00     0.263 C 
HETATM    6  O2  LIG X 999      44.438 131.751  15.779  1.00  0.00    -0.265 OA
BRANCH   5   7
HETATM    7  C5  LIG X 999      46.111 130.348  16.743  1.00  0.00     0.149 C 
BRANCH   7   8
HETATM    8  C6  LIG X 999      45.579 130.648  18.117  1.00  0.00    -0.048 A 
HETATM    9  C7  LIG X 999      46.264 130.192  19.255  1.00  0.00     0.008 A 
HETATM   10  C8  LIG X 999      45.758 130.438  20.533  1.00  0.00     0.013 A 
HETATM   11  C9  LIG X 999      44.551 131.135  20.693  1.00  0.00    -0.023 A 
HETATM   12  C10 LIG X 999      44.034 131.386  21.974  1.00  0.00     0.049 A 
HETATM   13  C15 LIG X 999      43.848 131.586  19.551  1.00  0.00    -0.025 A 
HETATM   14  C11 LIG X 999      42.820 132.082  22.127  1.00  0.00     0.069 A 
HETATM   15  C13 LIG X 999      42.133 132.522  20.989  1.00  0.00     0.037 A 
HETATM   16  C14 LIG X 999      42.639 132.277  19.710  1.00  0.00     0.015 A 
HETATM   17  C16 LIG X 999      44.364 131.335  18.271  1.00  0.00     0.020 A 
BRANCH  14  18
HETATM   18  O3  LIG X 999      42.263 132.356  23.385  1.00  0.00    -0.356 OA
HETATM   19  C12 LIG X 999      42.844 131.965  24.625  1.00  0.00     0.210 C 
ENDBRANCH  14  18
ENDBRANCH   7   8
ENDBRANCH   5   7
ENDBRANCH   4   5
ENDBRANCH   3   4
TORSDOF 5
