REMARK VINA RESULT:      -7.9      0.000      0.000
REMARK  1 active torsions:
REMARK  status: ('A' for Active; 'I' for Inactive)
REMARK    1  A    between atoms: C3_3  and  N1_4 
ROOT
HETATM    1  N1  LIG X 999      47.340 129.664  15.238  1.00  0.00    -0.072 NA
HETATM    2  N2  LIG X 999      47.954 129.568  14.173  1.00  0.00    -0.162 NA
HETATM    3  N3  LIG X 999      48.565 129.468  13.110  1.00  0.00     0.068 N 
ENDROOT
BRANCH   1   4
HETATM    4  C3  LIG X 999      46.073 130.329  15.332  1.00  0.00     0.104 A 
HETATM    5  C2  LIG X 999      45.410 130.626  14.134  1.00  0.00     0.035 A 
HETATM    6  C1  LIG X 999      44.210 131.336  14.135  1.00  0.00     0.003 A 
HETATM    7  C10 LIG X 999      43.641 131.754  15.336  1.00  0.00     0.012 A 
HETATM    8  C9  LIG X 999      44.252 131.437  16.556  1.00  0.00    -0.023 A 
HETATM    9  C4  LIG X 999      45.476 130.696  16.570  1.00  0.00     0.006 A 
HETATM   10  C8  LIG X 999      43.647 131.827  17.766  1.00  0.00     0.021 A 
HETATM   11  C5  LIG X 999      46.023 130.311  17.818  1.00  0.00     0.024 A 
HETATM   12  C6  LIG X 999      45.393 130.725  18.991  1.00  0.00    -0.023 A 
HETATM   13  C7  LIG X 999      44.252 131.464  18.966  1.00  0.00    -0.024 A 
HETATM   14  C14 LIG X 999      45.779 130.416  20.385  1.00  0.00     0.276 C 
HETATM   15  C11 LIG X 999      43.770 131.723  20.341  1.00  0.00     0.276 C 
HETATM   16  N4  LIG X 999      44.840 131.200  21.248  1.00  0.00    -0.067 N 
HETATM   17  C12 LIG X 999      44.259 130.343  22.304  1.00  0.00     0.272 C 
HETATM   18  C13 LIG X 999      45.560 132.330  21.884  1.00  0.00     0.272 C 
ENDBRANCH   1   4
TORSDOF 1
