MODEL 1
REMARK VINA RESULT:      -8.0      0.000      0.000
REMARK  2 active torsions:
REMARK  status: ('A' for Active; 'I' for Inactive)
REMARK    1  A    between atoms: N1_1  and  C1_2 
REMARK    2  A    between atoms: C2_5  and  C3_6 
ROOT
HETATM    1  C3  LIG X 999      45.328 130.869  18.372  1.00  0.00     0.030 A 
HETATM    2  C4  LIG X 999      46.233 130.515  19.388  1.00  0.00     0.017 A 
HETATM    3  C5  LIG X 999      45.952 130.785  20.725  1.00  0.00     0.002 A 
HETATM    4  C6  LIG X 999      44.761 131.412  21.080  1.00  0.00     0.012 A 
HETATM    5  C7  LIG X 999      43.823 131.755  20.098  1.00  0.00    -0.025 A 
HETATM    6  C8  LIG X 999      42.615 132.363  20.472  1.00  0.00     0.012 A 
HETATM    7  C9  LIG X 999      41.656 132.676  19.510  1.00  0.00     0.001 A 
HETATM    8  C10 LIG X 999      41.887 132.372  18.169  1.00  0.00     0.001 A 
HETATM    9  C11 LIG X 999      43.086 131.769  17.778  1.00  0.00     0.013 A 
HETATM   10  C12 LIG X 999      44.088 131.472  18.728  1.00  0.00    -0.011 A 
ENDROOT
BRANCH   1  11
HETATM   11  C2  LIG X 999      45.741 130.626  16.969  1.00  0.00     0.203 A 
HETATM   12  N3  LIG X 999      45.756 129.403  16.391  1.00  0.00    -0.145 NA
HETATM   13  N2  LIG X 999      46.210 129.593  15.163  1.00  0.00    -0.240 N 
HETATM   14  C1  LIG X 999      46.461 130.904  15.036  1.00  0.00     0.240 A 
HETATM   15  H3  LIG X 999      46.343 128.845  14.448  1.00  0.00     0.193 HD
HETATM   16  O1  LIG X 999      46.181 131.550  16.140  1.00  0.00    -0.257 OA
BRANCH  14  17
HETATM   17  N1  LIG X 999      46.969 131.515  13.853  1.00  0.00    -0.364 N 
HETATM   18  H1  LIG X 999      46.747 132.512  13.642  1.00  0.00     0.159 HD
HETATM   19  H2  LIG X 999      47.565 130.970  13.191  1.00  0.00     0.159 HD
ENDBRANCH  14  17
ENDBRANCH   1  11
TORSDOF 2
ENDMDL
MODEL 2
REMARK VINA RESULT:      -8.0      0.737      2.665
REMARK  2 active torsions:
REMARK  status: ('A' for Active; 'I' for Inactive)
REMARK    1  A    between atoms: N1_1  and  C1_2 
REMARK    2  A    between atoms: C2_5  and  C3_6 
ROOT
HETATM    1  C3  LIG X 999      44.329 131.447  17.524  1.00  0.00     0.030 A 
HETATM    2  C4  LIG X 999      43.086 131.866  17.018  1.00  0.00     0.017 A 
HETATM    3  C5  LIG X 999      42.030 132.174  17.872  1.00  0.00     0.002 A 
HETATM    4  C6  LIG X 999      42.189 132.073  19.251  1.00  0.00     0.012 A 
HETATM    5  C7  LIG X 999      43.421 131.685  19.793  1.00  0.00    -0.025 A 
HETATM    6  C8  LIG X 999      43.576 131.612  21.186  1.00  0.00     0.012 A 
HETATM    7  C9  LIG X 999      44.807 131.264  21.741  1.00  0.00     0.001 A 
HETATM    8  C10 LIG X 999      45.896 130.999  20.913  1.00  0.00     0.001 A 
HETATM    9  C11 LIG X 999      45.760 131.064  19.523  1.00  0.00     0.013 A 
HETATM   10  C12 LIG X 999      44.515 131.382  18.934  1.00  0.00    -0.011 A 
ENDROOT
BRANCH   1  11
HETATM   11  C2  LIG X 999      45.372 131.055  16.547  1.00  0.00     0.203 A 
HETATM   12  N3  LIG X 999      46.128 129.940  16.660  1.00  0.00    -0.145 NA
HETATM   13  N2  LIG X 999      46.953 129.960  15.627  1.00  0.00    -0.240 N 
HETATM   14  C1  LIG X 999      46.684 131.074  14.931  1.00  0.00     0.240 A 
HETATM   15  H3  LIG X 999      47.674 129.235  15.417  1.00  0.00     0.193 HD
HETATM   16  O1  LIG X 999      45.716 131.758  15.487  1.00  0.00    -0.257 OA
BRANCH  14  17
HETATM   17  N1  LIG X 999      47.363 131.463  13.740  1.00  0.00    -0.364 N 
HETATM   18  H1  LIG X 999      46.854 131.981  12.992  1.00  0.00     0.159 HD
HETATM   19  H2  LIG X 999      48.373 131.232  13.609  1.00  0.00     0.159 HD
ENDBRANCH  14  17
ENDBRANCH   1  11
TORSDOF 2
ENDMDL
MODEL 3
REMARK VINA RESULT:      -6.6      2.484      5.600
REMARK  2 active torsions:
REMARK  status: ('A' for Active; 'I' for Inactive)
REMARK    1  A    between atoms: N1_1  and  C1_2 
REMARK    2  A    between atoms: C2_5  and  C3_6 
ROOT
HETATM    1  C3  LIG X 999      44.831 131.106  16.916  1.00  0.00     0.030 A 
HETATM    2  C4  LIG X 999      43.582 131.679  16.624  1.00  0.00     0.017 A 
HETATM    3  C5  LIG X 999      43.201 131.942  15.310  1.00  0.00     0.002 A 
HETATM    4  C6  LIG X 999      44.058 131.636  14.257  1.00  0.00     0.012 A 
HETATM    5  C7  LIG X 999      45.301 131.039  14.507  1.00  0.00    -0.025 A 
HETATM    6  C8  LIG X 999      46.144 130.712  13.434  1.00  0.00     0.012 A 
HETATM    7  C9  LIG X 999      47.367 130.083  13.665  1.00  0.00     0.001 A 
HETATM    8  C10 LIG X 999      47.752 129.762  14.966  1.00  0.00     0.001 A 
HETATM    9  C11 LIG X 999      46.926 130.083  16.047  1.00  0.00     0.013 A 
HETATM   10  C12 LIG X 999      45.697 130.750  15.843  1.00  0.00    -0.011 A 
ENDROOT
BRANCH   1  11
HETATM   11  C2  LIG X 999      45.194 130.939  18.344  1.00  0.00     0.203 A 
HETATM   12  N3  LIG X 999      46.061 130.005  18.795  1.00  0.00    -0.145 NA
HETATM   13  N2  LIG X 999      46.093 130.151  20.109  1.00  0.00    -0.240 N 
HETATM   14  C1  LIG X 999      45.251 131.149  20.414  1.00  0.00     0.240 A 
HETATM   15  H3  LIG X 999      46.670 129.581  20.765  1.00  0.00     0.193 HD
HETATM   16  O1  LIG X 999      44.689 131.640  19.338  1.00  0.00    -0.257 OA
BRANCH  14  17
HETATM   17  N1  LIG X 999      44.999 131.614  21.737  1.00  0.00    -0.364 N 
HETATM   18  H1  LIG X 999      44.137 132.163  21.944  1.00  0.00     0.159 HD
HETATM   19  H2  LIG X 999      45.675 131.410  22.506  1.00  0.00     0.159 HD
ENDBRANCH  14  17
ENDBRANCH   1  11
TORSDOF 2
ENDMDL
MODEL 4
REMARK VINA RESULT:      -5.8      1.831      3.378
REMARK  2 active torsions:
REMARK  status: ('A' for Active; 'I' for Inactive)
REMARK    1  A    between atoms: N1_1  and  C1_2 
REMARK    2  A    between atoms: C2_5  and  C3_6 
ROOT
HETATM    1  C3  LIG X 999      43.430 131.924  19.243  1.00  0.00     0.030 A 
HETATM    2  C4  LIG X 999      42.374 132.849  19.321  1.00  0.00     0.017 A 
HETATM    3  C5  LIG X 999      41.677 133.045  20.511  1.00  0.00     0.002 A 
HETATM    4  C6  LIG X 999      42.019 132.324  21.652  1.00  0.00     0.012 A 
HETATM    5  C7  LIG X 999      43.084 131.413  21.619  1.00  0.00    -0.025 A 
HETATM    6  C8  LIG X 999      43.434 130.712  22.783  1.00  0.00     0.012 A 
HETATM    7  C9  LIG X 999      44.515 129.831  22.776  1.00  0.00     0.001 A 
HETATM    8  C10 LIG X 999      45.262 129.652  21.613  1.00  0.00     0.001 A 
HETATM    9  C11 LIG X 999      44.926 130.340  20.444  1.00  0.00     0.013 A 
HETATM   10  C12 LIG X 999      43.815 131.213  20.415  1.00  0.00    -0.011 A 
ENDROOT
BRANCH   1  11
HETATM   11  C2  LIG X 999      44.061 131.714  17.919  1.00  0.00     0.203 A 
HETATM   12  N3  LIG X 999      45.398 131.655  17.724  1.00  0.00    -0.145 NA
HETATM   13  N2  LIG X 999      45.564 131.493  16.422  1.00  0.00    -0.240 N 
HETATM   14  C1  LIG X 999      44.342 131.467  15.871  1.00  0.00     0.240 A 
HETATM   15  H3  LIG X 999      46.485 131.409  15.938  1.00  0.00     0.193 HD
HETATM   16  O1  LIG X 999      43.410 131.606  16.780  1.00  0.00    -0.257 OA
BRANCH  14  17
HETATM   17  N1  LIG X 999      44.091 131.311  14.477  1.00  0.00    -0.364 N 
HETATM   18  H1  LIG X 999      43.772 130.391  14.103  1.00  0.00     0.159 HD
HETATM   19  H2  LIG X 999      44.226 132.113  13.823  1.00  0.00     0.159 HD
ENDBRANCH  14  17
ENDBRANCH   1  11
TORSDOF 2
ENDMDL
MODEL 5
REMARK VINA RESULT:      -5.6      9.073     10.051
REMARK  2 active torsions:
REMARK  status: ('A' for Active; 'I' for Inactive)
REMARK    1  A    between atoms: N1_1  and  C1_2 
REMARK    2  A    between atoms: C2_5  and  C3_6 
ROOT
HETATM    1  C3  LIG X 999      51.408 136.868  23.015  1.00  0.00     0.030 A 
HETATM    2  C4  LIG X 999      52.178 137.776  23.762  1.00  0.00     0.017 A 
HETATM    3  C5  LIG X 999      52.170 139.137  23.468  1.00  0.00     0.002 A 
HETATM    4  C6  LIG X 999      51.390 139.624  22.423  1.00  0.00     0.012 A 
HETATM    5  C7  LIG X 999      50.589 138.753  21.673  1.00  0.00    -0.025 A 
HETATM    6  C8  LIG X 999      49.788 139.262  20.638  1.00  0.00     0.012 A 
HETATM    7  C9  LIG X 999      48.957 138.412  19.909  1.00  0.00     0.001 A 
HETATM    8  C10 LIG X 999      48.907 137.053  20.214  1.00  0.00     0.001 A 
HETATM    9  C11 LIG X 999      49.700 136.529  21.238  1.00  0.00     0.013 A 
HETATM   10  C12 LIG X 999      50.575 137.361  21.971  1.00  0.00    -0.011 A 
ENDROOT
BRANCH   1  11
HETATM   11  C2  LIG X 999      51.541 135.427  23.337  1.00  0.00     0.203 A 
HETATM   12  N3  LIG X 999      52.649 134.697  23.075  1.00  0.00    -0.145 NA
HETATM   13  N2  LIG X 999      52.370 133.467  23.472  1.00  0.00    -0.240 N 
HETATM   14  C1  LIG X 999      51.117 133.483  23.949  1.00  0.00     0.240 A 
HETATM   15  H3  LIG X 999      53.019 132.652  23.411  1.00  0.00     0.193 HD
HETATM   16  O1  LIG X 999      50.595 134.681  23.868  1.00  0.00    -0.257 OA
BRANCH  14  17
HETATM   17  N1  LIG X 999      50.441 132.344  24.474  1.00  0.00    -0.364 N 
HETATM   18  H1  LIG X 999      49.938 132.408  25.386  1.00  0.00     0.159 HD
HETATM   19  H2  LIG X 999      50.445 131.440  23.952  1.00  0.00     0.159 HD
ENDBRANCH  14  17
ENDBRANCH   1  11
TORSDOF 2
ENDMDL
MODEL 6
REMARK VINA RESULT:      -5.5      4.272      6.004
REMARK  2 active torsions:
REMARK  status: ('A' for Active; 'I' for Inactive)
REMARK    1  A    between atoms: N1_1  and  C1_2 
REMARK    2  A    between atoms: C2_5  and  C3_6 
ROOT
HETATM    1  C3  LIG X 999      43.430 131.442  20.964  1.00  0.00     0.030 A 
HETATM    2  C4  LIG X 999      42.221 132.157  20.914  1.00  0.00     0.017 A 
HETATM    3  C5  LIG X 999      41.759 132.701  19.718  1.00  0.00     0.002 A 
HETATM    4  C6  LIG X 999      42.490 132.543  18.545  1.00  0.00     0.012 A 
HETATM    5  C7  LIG X 999      43.687 131.813  18.551  1.00  0.00    -0.025 A 
HETATM    6  C8  LIG X 999      44.401 131.640  17.356  1.00  0.00     0.012 A 
HETATM    7  C9  LIG X 999      45.573 130.884  17.339  1.00  0.00     0.001 A 
HETATM    8  C10 LIG X 999      46.034 130.285  18.510  1.00  0.00     0.001 A 
HETATM    9  C11 LIG X 999      45.337 130.450  19.710  1.00  0.00     0.013 A 
HETATM   10  C12 LIG X 999      44.165 131.237  19.762  1.00  0.00    -0.011 A 
ENDROOT
BRANCH   1  11
HETATM   11  C2  LIG X 999      43.894 130.970  22.291  1.00  0.00     0.203 A 
HETATM   12  N3  LIG X 999      44.226 131.796  23.309  1.00  0.00    -0.145 NA
HETATM   13  N2  LIG X 999      44.617 131.008  24.296  1.00  0.00    -0.240 N 
HETATM   14  C1  LIG X 999      44.521 129.746  23.854  1.00  0.00     0.240 A 
HETATM   15  H3  LIG X 999      44.940 131.333  25.234  1.00  0.00     0.193 HD
HETATM   16  O1  LIG X 999      44.082 129.709  22.621  1.00  0.00    -0.257 OA
BRANCH  14  17
HETATM   17  N1  LIG X 999      44.856 128.596  24.625  1.00  0.00    -0.364 N 
HETATM   18  H1  LIG X 999      45.802 128.511  25.054  1.00  0.00     0.159 HD
HETATM   19  H2  LIG X 999      44.158 127.832  24.764  1.00  0.00     0.159 HD
ENDBRANCH  14  17
ENDBRANCH   1  11
TORSDOF 2
ENDMDL
MODEL 7
REMARK VINA RESULT:      -5.4      3.306      4.977
REMARK  2 active torsions:
REMARK  status: ('A' for Active; 'I' for Inactive)
REMARK    1  A    between atoms: N1_1  and  C1_2 
REMARK    2  A    between atoms: C2_5  and  C3_6 
ROOT
HETATM    1  C3  LIG X 999      43.523 131.115  21.878  1.00  0.00     0.030 A 
HETATM    2  C4  LIG X 999      42.817 132.018  22.691  1.00  0.00     0.017 A 
HETATM    3  C5  LIG X 999      42.614 131.758  24.044  1.00  0.00     0.002 A 
HETATM    4  C6  LIG X 999      43.113 130.592  24.618  1.00  0.00     0.012 A 
HETATM    5  C7  LIG X 999      43.845 129.681  23.845  1.00  0.00    -0.025 A 
HETATM    6  C8  LIG X 999      44.364 128.522  24.442  1.00  0.00     0.012 A 
HETATM    7  C9  LIG X 999      45.126 127.626  23.693  1.00  0.00     0.001 A 
HETATM    8  C10 LIG X 999      45.388 127.884  22.349  1.00  0.00     0.001 A 
HETATM    9  C11 LIG X 999      44.876 129.032  21.737  1.00  0.00     0.013 A 
HETATM   10  C12 LIG X 999      44.074 129.940  22.464  1.00  0.00    -0.011 A 
ENDROOT
BRANCH   1  11
HETATM   11  C2  LIG X 999      43.619 131.424  20.431  1.00  0.00     0.203 A 
HETATM   12  N3  LIG X 999      42.560 131.766  19.663  1.00  0.00    -0.145 NA
HETATM   13  N2  LIG X 999      43.040 131.928  18.442  1.00  0.00    -0.240 N 
HETATM   14  C1  LIG X 999      44.356 131.675  18.501  1.00  0.00     0.240 A 
HETATM   15  H3  LIG X 999      42.478 132.197  17.604  1.00  0.00     0.193 HD
HETATM   16  O1  LIG X 999      44.724 131.361  19.717  1.00  0.00    -0.257 OA
BRANCH  14  17
HETATM   17  N1  LIG X 999      45.238 131.739  17.384  1.00  0.00    -0.364 N 
HETATM   18  H1  LIG X 999      44.867 131.970  16.436  1.00  0.00     0.159 HD
HETATM   19  H2  LIG X 999      46.258 131.555  17.505  1.00  0.00     0.159 HD
ENDBRANCH  14  17
ENDBRANCH   1  11
TORSDOF 2
ENDMDL
MODEL 8
REMARK VINA RESULT:      -5.4      7.905      8.944
REMARK  2 active torsions:
REMARK  status: ('A' for Active; 'I' for Inactive)
REMARK    1  A    between atoms: N1_1  and  C1_2 
REMARK    2  A    between atoms: C2_5  and  C3_6 
ROOT
HETATM    1  C3  LIG X 999      50.543 137.284  21.622  1.00  0.00     0.030 A 
HETATM    2  C4  LIG X 999      51.737 137.787  22.169  1.00  0.00     0.017 A 
HETATM    3  C5  LIG X 999      52.347 137.164  23.256  1.00  0.00     0.002 A 
HETATM    4  C6  LIG X 999      51.781 136.024  23.820  1.00  0.00     0.012 A 
HETATM    5  C7  LIG X 999      50.607 135.479  23.285  1.00  0.00    -0.025 A 
HETATM    6  C8  LIG X 999      50.062 134.314  23.848  1.00  0.00     0.012 A 
HETATM    7  C9  LIG X 999      48.915 133.739  23.302  1.00  0.00     0.001 A 
HETATM    8  C10 LIG X 999      48.311 134.311  22.184  1.00  0.00     0.001 A 
HETATM    9  C11 LIG X 999      48.838 135.472  21.612  1.00  0.00     0.013 A 
HETATM   10  C12 LIG X 999      49.980 136.094  22.165  1.00  0.00    -0.011 A 
ENDROOT
BRANCH   1  11
HETATM   11  C2  LIG X 999      49.914 138.055  20.524  1.00  0.00     0.203 A 
HETATM   12  N3  LIG X 999      49.394 139.294  20.677  1.00  0.00    -0.145 NA
HETATM   13  N2  LIG X 999      48.902 139.624  19.494  1.00  0.00    -0.240 N 
HETATM   14  C1  LIG X 999      49.126 138.589  18.673  1.00  0.00     0.240 A 
HETATM   15  H3  LIG X 999      48.429 140.527  19.269  1.00  0.00     0.193 HD
HETATM   16  O1  LIG X 999      49.744 137.616  19.294  1.00  0.00    -0.257 OA
BRANCH  14  17
HETATM   17  N1  LIG X 999      48.740 138.551  17.301  1.00  0.00    -0.364 N 
HETATM   18  H1  LIG X 999      48.658 139.437  16.757  1.00  0.00     0.159 HD
HETATM   19  H2  LIG X 999      48.537 137.640  16.834  1.00  0.00     0.159 HD
ENDBRANCH  14  17
ENDBRANCH   1  11
TORSDOF 2
ENDMDL
MODEL 9
REMARK VINA RESULT:      -5.4      3.241      5.142
REMARK  2 active torsions:
REMARK  status: ('A' for Active; 'I' for Inactive)
REMARK    1  A    between atoms: N1_1  and  C1_2 
REMARK    2  A    between atoms: C2_5  and  C3_6 
ROOT
HETATM    1  C3  LIG X 999      44.361 131.281  17.976  1.00  0.00     0.030 A 
HETATM    2  C4  LIG X 999      45.323 130.737  18.844  1.00  0.00     0.017 A 
HETATM    3  C5  LIG X 999      46.433 130.056  18.349  1.00  0.00     0.002 A 
HETATM    4  C6  LIG X 999      46.609 129.904  16.976  1.00  0.00     0.012 A 
HETATM    5  C7  LIG X 999      45.684 130.456  16.080  1.00  0.00    -0.025 A 
HETATM    6  C8  LIG X 999      45.887 130.317  14.698  1.00  0.00     0.012 A 
HETATM    7  C9  LIG X 999      44.996 130.894  13.794  1.00  0.00     0.001 A 
HETATM    8  C10 LIG X 999      43.904 131.624  14.259  1.00  0.00     0.001 A 
HETATM    9  C11 LIG X 999      43.684 131.770  15.632  1.00  0.00     0.013 A 
HETATM   10  C12 LIG X 999      44.553 131.169  16.570  1.00  0.00    -0.011 A 
ENDROOT
BRANCH   1  11
HETATM   11  C2  LIG X 999      43.167 131.915  18.585  1.00  0.00     0.203 A 
HETATM   12  N3  LIG X 999      42.096 132.338  17.876  1.00  0.00    -0.145 NA
HETATM   13  N2  LIG X 999      41.268 132.869  18.761  1.00  0.00    -0.240 N 
HETATM   14  C1  LIG X 999      41.856 132.762  19.962  1.00  0.00     0.240 A 
HETATM   15  H3  LIG X 999      40.339 133.291  18.539  1.00  0.00     0.193 HD
HETATM   16  O1  LIG X 999      43.025 132.181  19.867  1.00  0.00    -0.257 OA
BRANCH  14  17
HETATM   17  N1  LIG X 999      41.281 133.223  21.182  1.00  0.00    -0.364 N 
HETATM   18  H1  LIG X 999      40.697 132.582  21.760  1.00  0.00     0.159 HD
HETATM   19  H2  LIG X 999      41.440 134.204  21.503  1.00  0.00     0.159 HD
ENDBRANCH  14  17
ENDBRANCH   1  11
TORSDOF 2
ENDMDL
