REMARK VINA RESULT:      -6.0      2.320      3.114
REMARK  6 active torsions:
REMARK  status: ('A' for Active; 'I' for Inactive)
REMARK    1  A    between atoms: O1_2  and  C1_3 
REMARK    2  A    between atoms: C1_3  and  C4_10 
REMARK    3  A    between atoms: N1_4  and  C2_5 
REMARK    4  A    between atoms: C2_5  and  C3_6 
REMARK    5  A    between atoms: C3_6  and  N2_7 
REMARK    6  A    between atoms: C13_19  and  N5_20 
ROOT
HETATM    1  N2  LIG X 999      45.324 130.787  14.692  1.00  0.00    -0.114 NA
HETATM    2  N3  LIG X 999      44.226 131.316  14.529  1.00  0.00    -0.168 NA
HETATM    3  N4  LIG X 999      43.127 131.846  14.365  1.00  0.00     0.068 N 
ENDROOT
BRANCH   1   4
HETATM    4  C3  LIG X 999      45.496 129.725  15.672  1.00  0.00     0.211 C 
BRANCH   4   5
HETATM    5  C2  LIG X 999      46.461 130.180  16.760  1.00  0.00     0.176 C 
BRANCH   5   6
HETATM    6  N1  LIG X 999      45.761 130.243  18.039  1.00  0.00    -0.265 NA
HETATM    7  C1  LIG X 999      45.065 131.270  18.425  1.00  0.00     0.167 C 
BRANCH   7   8
HETATM    8  O1  LIG X 999      44.961 132.388  17.592  1.00  0.00    -0.344 OA
HETATM    9  H1  LIG X 999      45.351 132.409  16.658  1.00  0.00     0.219 HD
ENDBRANCH   7   8
BRANCH   7  10
HETATM   10  C4  LIG X 999      44.384 131.236  19.744  1.00  0.00     0.017 A 
HETATM   11  C5  LIG X 999      43.324 132.110  20.028  1.00  0.00     0.016 A 
HETATM   12  C6  LIG X 999      42.687 132.073  21.270  1.00  0.00     0.011 A 
HETATM   13  C7  LIG X 999      43.093 131.161  22.257  1.00  0.00    -0.024 A 
HETATM   14  C8  LIG X 999      44.182 130.297  21.993  1.00  0.00    -0.049 A 
HETATM   15  C13 LIG X 999      42.418 131.203  23.611  1.00  0.00     0.179 C 
HETATM   16  C9  LIG X 999      44.807 130.334  20.737  1.00  0.00     0.023 A 
HETATM   17  C10 LIG X 999      44.619 129.247  22.989  1.00  0.00     0.039 C 
HETATM   18  C11 LIG X 999      44.142 129.543  24.413  1.00  0.00     0.007 C 
HETATM   19  C12 LIG X 999      42.659 129.912  24.413  1.00  0.00     0.035 C 
BRANCH  15  20
HETATM   20  N5  LIG X 999      42.912 132.365  24.346  1.00  0.00    -0.105 NA
HETATM   21  N6  LIG X 999      44.119 132.566  24.486  1.00  0.00    -0.167 NA
HETATM   22  N7  LIG X 999      45.324 132.768  24.625  1.00  0.00     0.068 N 
ENDBRANCH  15  20
ENDBRANCH   7  10
ENDBRANCH   5   6
ENDBRANCH   4   5
ENDBRANCH   1   4
TORSDOF 6
