REMARK VINA RESULT:      -4.7      5.289      6.978
REMARK  1 active torsions:
REMARK  status: ('A' for Active; 'I' for Inactive)
REMARK    1  A    between atoms: C7_7  and  N1_8 
ROOT
HETATM    1  N1  LIG X 999      42.913 132.122  22.206  1.00  0.00    -0.110 NA
HETATM    2  N2  LIG X 999      42.853 131.902  23.416  1.00  0.00    -0.167 NA
HETATM    3  N3  LIG X 999      42.792 131.684  24.625  1.00  0.00     0.068 N 
ENDROOT
BRANCH   1   4
HETATM    4  C7  LIG X 999      44.111 131.794  21.438  1.00  0.00     0.153 C 
HETATM    5  C6  LIG X 999      44.450 130.308  21.625  1.00  0.00     0.031 C 
HETATM    6  C5  LIG X 999      45.718 129.939  20.848  1.00  0.00     0.003 C 
HETATM    7  C4  LIG X 999      45.552 130.242  19.354  1.00  0.00     0.009 C 
HETATM    8  C3  LIG X 999      45.187 131.722  19.113  1.00  0.00     0.018 C 
HETATM    9  C2  LIG X 999      44.936 131.943  17.639  1.00  0.00    -0.021 C 
HETATM   10  C8  LIG X 999      43.939 132.148  19.938  1.00  0.00     0.043 C 
HETATM   11  C1  LIG X 999      43.713 131.771  17.122  1.00  0.00    -0.004 C 
HETATM   12  C10 LIG X 999      42.565 131.461  17.996  1.00  0.00    -0.004 C 
HETATM   13  C9  LIG X 999      42.675 131.571  19.325  1.00  0.00    -0.019 C 
ENDBRANCH   1   4
TORSDOF 1
