REMARK VINA RESULT:      -7.5      1.388      2.674
REMARK  2 active torsions:
REMARK  status: ('A' for Active; 'I' for Inactive)
REMARK    1  A    between atoms: C6_6  and  C7_7 
REMARK    2  A    between atoms: C8_11  and  N3_12 
ROOT
HETATM    1  N3  LIG X 999      44.805 131.603  14.897  1.00  0.00    -0.025 NA
HETATM    2  N4  LIG X 999      45.689 131.300  14.096  1.00  0.00    -0.158 NA
HETATM    3  N5  LIG X 999      46.571 130.996  13.294  1.00  0.00     0.068 N 
ENDROOT
BRANCH   1   4
HETATM    4  C8  LIG X 999      44.952 131.341  16.294  1.00  0.00     0.302 A 
HETATM    5  N2  LIG X 999      45.966 130.654  16.847  1.00  0.00    -0.236 N 
HETATM    6  N1  LIG X 999      45.750 130.625  18.150  1.00  0.00    -0.145 NA
HETATM    7  H5  LIG X 999      46.782 130.217  16.365  1.00  0.00     0.193 HD
HETATM    8  C7  LIG X 999      44.597 131.304  18.345  1.00  0.00     0.202 A 
HETATM    9  O1  LIG X 999      44.103 131.745  17.207  1.00  0.00    -0.253 OA
BRANCH   8  10
HETATM   10  C6  LIG X 999      43.971 131.522  19.664  1.00  0.00     0.020 A 
HETATM   11  C5  LIG X 999      44.544 130.978  20.826  1.00  0.00     0.028 A 
HETATM   12  C4  LIG X 999      43.945 131.188  22.078  1.00  0.00    -0.025 A 
HETATM   13  C3  LIG X 999      44.513 130.647  23.242  1.00  0.00     0.012 A 
HETATM   14  C11 LIG X 999      42.757 131.952  22.170  1.00  0.00    -0.026 A 
HETATM   15  C2  LIG X 999      43.907 130.863  24.484  1.00  0.00     0.001 A 
HETATM   16  C1  LIG X 999      42.735 131.617  24.574  1.00  0.00     0.001 A 
HETATM   17  C12 LIG X 999      42.160 132.162  23.423  1.00  0.00     0.012 A 
HETATM   18  C10 LIG X 999      42.189 132.493  21.007  1.00  0.00     0.013 A 
HETATM   19  C9  LIG X 999      42.793 132.279  19.765  1.00  0.00     0.017 A 
ENDBRANCH   8  10
ENDBRANCH   1   4
TORSDOF 2
