MODEL 1
REMARK VINA RESULT:      -5.8      0.000      0.000
REMARK  3 active torsions:
REMARK  status: ('A' for Active; 'I' for Inactive)
REMARK    1  A    between atoms: C3_3  and  S1_4 
REMARK    2  A    between atoms: S1_4  and  C4_7 
REMARK    3  A    between atoms: C6_9  and  N1_10 
ROOT
HETATM    1  C1  LIG X 999      42.577 131.951  20.342  1.00  0.00     0.013 C 
HETATM    2  C2  LIG X 999      43.345 131.369  21.067  1.00  0.00    -0.102 C 
HETATM    3  C3  LIG X 999      44.275 130.660  21.948  1.00  0.00     0.238 C 
ENDROOT
BRANCH   3   4
HETATM    4  S1  LIG X 999      43.559 130.486  23.573  1.00  0.00     0.186 S 
HETATM    5  O1  LIG X 999      44.622 130.636  24.625  1.00  0.00    -0.222 OA
HETATM    6  O2  LIG X 999      42.554 131.587  23.769  1.00  0.00    -0.222 OA
BRANCH   4   7
HETATM    7  C4  LIG X 999      42.766 128.903  23.732  1.00  0.00     0.073 A 
HETATM    8  C5  LIG X 999      41.408 128.880  24.087  1.00  0.00     0.058 A 
HETATM    9  C6  LIG X 999      40.710 127.669  24.221  1.00  0.00     0.095 A 
HETATM   10  C7  LIG X 999      41.374 126.464  23.995  1.00  0.00     0.046 A 
HETATM   11  C8  LIG X 999      42.725 126.450  23.630  1.00  0.00    -0.021 A 
HETATM   12  C9  LIG X 999      43.370 125.219  23.395  1.00  0.00     0.022 A 
HETATM   13  C13 LIG X 999      43.442 127.678  23.488  1.00  0.00    -0.004 A 
HETATM   14  C10 LIG X 999      44.713 125.225  23.029  1.00  0.00    -0.024 A 
HETATM   15  C11 LIG X 999      45.404 126.386  22.887  1.00  0.00    -0.024 A 
HETATM   16  C17 LIG X 999      45.572 124.064  22.711  1.00  0.00     0.276 C 
HETATM   17  C12 LIG X 999      44.805 127.626  23.103  1.00  0.00     0.023 A 
HETATM   18  C14 LIG X 999      46.794 126.114  22.460  1.00  0.00     0.276 C 
HETATM   19  N4  LIG X 999      46.946 124.625  22.504  1.00  0.00    -0.067 N 
HETATM   20  C15 LIG X 999      47.826 124.237  23.632  1.00  0.00     0.272 C 
HETATM   21  C16 LIG X 999      47.532 124.121  21.241  1.00  0.00     0.272 C 
BRANCH   9  22
HETATM   22  N1  LIG X 999      39.324 127.632  24.585  1.00  0.00    -0.073 NA
HETATM   23  N2  LIG X 999      38.624 126.631  24.423  1.00  0.00    -0.162 NA
HETATM   24  N3  LIG X 999      37.925 125.632  24.261  1.00  0.00     0.068 N 
ENDBRANCH   9  22
ENDBRANCH   4   7
ENDBRANCH   3   4
TORSDOF 3
ENDMDL
MODEL 2
REMARK VINA RESULT:      -5.7      1.808      2.579
REMARK  3 active torsions:
REMARK  status: ('A' for Active; 'I' for Inactive)
REMARK    1  A    between atoms: C3_3  and  S1_4 
REMARK    2  A    between atoms: S1_4  and  C4_7 
REMARK    3  A    between atoms: C6_9  and  N1_10 
ROOT
HETATM    1  C1  LIG X 999      43.178 131.576  21.850  1.00  0.00     0.013 C 
HETATM    2  C2  LIG X 999      42.975 130.630  22.570  1.00  0.00    -0.102 C 
HETATM    3  C3  LIG X 999      42.734 129.482  23.446  1.00  0.00     0.238 C 
ENDROOT
BRANCH   3   4
HETATM    4  S1  LIG X 999      44.116 128.357  23.370  1.00  0.00     0.186 S 
HETATM    5  O1  LIG X 999      44.997 128.698  22.200  1.00  0.00    -0.222 OA
HETATM    6  O2  LIG X 999      44.930 128.519  24.625  1.00  0.00    -0.222 OA
BRANCH   4   7
HETATM    7  C4  LIG X 999      43.541 126.681  23.229  1.00  0.00     0.073 A 
HETATM    8  C5  LIG X 999      42.183 126.429  23.479  1.00  0.00     0.058 A 
HETATM    9  C6  LIG X 999      41.651 125.133  23.378  1.00  0.00     0.095 A 
HETATM   10  C7  LIG X 999      42.485 124.074  23.020  1.00  0.00     0.046 A 
HETATM   11  C8  LIG X 999      43.842 124.291  22.754  1.00  0.00    -0.021 A 
HETATM   12  C9  LIG X 999      44.661 123.206  22.382  1.00  0.00     0.022 A 
HETATM   13  C13 LIG X 999      44.390 125.607  22.853  1.00  0.00    -0.004 A 
HETATM   14  C10 LIG X 999      46.008 123.442  22.119  1.00  0.00    -0.024 A 
HETATM   15  C11 LIG X 999      46.539 124.689  22.204  1.00  0.00    -0.024 A 
HETATM   16  C17 LIG X 999      47.033 122.467  21.691  1.00  0.00     0.276 C 
HETATM   17  C12 LIG X 999      45.765 125.792  22.563  1.00  0.00     0.023 A 
HETATM   18  C14 LIG X 999      47.973 124.669  21.842  1.00  0.00     0.276 C 
HETATM   19  N4  LIG X 999      48.326 123.224  21.670  1.00  0.00    -0.067 N 
HETATM   20  C15 LIG X 999      49.192 122.776  22.787  1.00  0.00     0.272 C 
HETATM   21  C16 LIG X 999      49.039 123.007  20.391  1.00  0.00     0.272 C 
BRANCH   9  22
HETATM   22  N1  LIG X 999      40.266 124.862  23.631  1.00  0.00    -0.073 NA
HETATM   23  N2  LIG X 999      39.765 123.753  23.440  1.00  0.00    -0.162 NA
HETATM   24  N3  LIG X 999      39.262 122.647  23.248  1.00  0.00     0.068 N 
ENDBRANCH   9  22
ENDBRANCH   4   7
ENDBRANCH   3   4
TORSDOF 3
ENDMDL
MODEL 3
REMARK VINA RESULT:      -5.1      2.720      4.422
REMARK  3 active torsions:
REMARK  status: ('A' for Active; 'I' for Inactive)
REMARK    1  A    between atoms: C3_3  and  S1_4 
REMARK    2  A    between atoms: S1_4  and  C4_7 
REMARK    3  A    between atoms: C6_9  and  N1_10 
ROOT
HETATM    1  C1  LIG X 999      42.461 130.006  24.053  1.00  0.00     0.013 C 
HETATM    2  C2  LIG X 999      42.648 128.819  23.954  1.00  0.00    -0.102 C 
HETATM    3  C3  LIG X 999      42.879 127.378  23.835  1.00  0.00     0.238 C 
ENDROOT
BRANCH   3   4
HETATM    4  S1  LIG X 999      44.579 127.069  23.395  1.00  0.00     0.186 S 
HETATM    5  O1  LIG X 999      45.038 128.064  22.367  1.00  0.00    -0.222 OA
HETATM    6  O2  LIG X 999      45.428 127.248  24.625  1.00  0.00    -0.222 OA
BRANCH   4   7
HETATM    7  C4  LIG X 999      44.763 125.417  22.766  1.00  0.00     0.073 A 
HETATM    8  C5  LIG X 999      43.599 124.663  22.546  1.00  0.00     0.058 A 
HETATM    9  C6  LIG X 999      43.662 123.354  22.040  1.00  0.00     0.095 A 
HETATM   10  C7  LIG X 999      44.903 122.790  21.746  1.00  0.00     0.046 A 
HETATM   11  C8  LIG X 999      46.083 123.517  21.943  1.00  0.00    -0.021 A 
HETATM   12  C9  LIG X 999      47.324 122.928  21.625  1.00  0.00     0.022 A 
HETATM   13  C13 LIG X 999      46.027 124.850  22.455  1.00  0.00    -0.004 A 
HETATM   14  C10 LIG X 999      48.486 123.667  21.825  1.00  0.00    -0.024 A 
HETATM   15  C11 LIG X 999      48.446 124.937  22.306  1.00  0.00    -0.024 A 
HETATM   16  C17 LIG X 999      49.879 123.263  21.538  1.00  0.00     0.276 C 
HETATM   17  C12 LIG X 999      47.241 125.560  22.628  1.00  0.00     0.023 A 
HETATM   18  C14 LIG X 999      49.809 125.505  22.389  1.00  0.00     0.276 C 
HETATM   19  N4  LIG X 999      50.737 124.379  22.050  1.00  0.00    -0.067 N 
HETATM   20  C15 LIG X 999      51.467 123.940  23.263  1.00  0.00     0.272 C 
HETATM   21  C16 LIG X 999      51.717 124.799  21.023  1.00  0.00     0.272 C 
BRANCH   9  22
HETATM   22  N1  LIG X 999      42.481 122.574  21.814  1.00  0.00    -0.073 NA
HETATM   23  N2  LIG X 999      41.399 122.845  22.339  1.00  0.00    -0.162 NA
HETATM   24  N3  LIG X 999      40.320 123.114  22.863  1.00  0.00     0.068 N 
ENDBRANCH   9  22
ENDBRANCH   4   7
ENDBRANCH   3   4
TORSDOF 3
ENDMDL
MODEL 4
REMARK VINA RESULT:      -2.9      3.033      3.661
REMARK  3 active torsions:
REMARK  status: ('A' for Active; 'I' for Inactive)
REMARK    1  A    between atoms: C3_3  and  S1_4 
REMARK    2  A    between atoms: S1_4  and  C4_7 
REMARK    3  A    between atoms: C6_9  and  N1_10 
ROOT
HETATM    1  C1  LIG X 999      45.350 131.493  16.825  1.00  0.00     0.013 C 
HETATM    2  C2  LIG X 999      44.894 131.604  17.936  1.00  0.00    -0.102 C 
HETATM    3  C3  LIG X 999      44.345 131.740  19.286  1.00  0.00     0.238 C 
ENDROOT
BRANCH   3   4
HETATM    4  S1  LIG X 999      45.433 130.962  20.467  1.00  0.00     0.186 S 
HETATM    5  O1  LIG X 999      46.125 129.787  19.836  1.00  0.00    -0.222 OA
HETATM    6  O2  LIG X 999      46.486 131.958  20.870  1.00  0.00    -0.222 OA
BRANCH   4   7
HETATM    7  C4  LIG X 999      44.516 130.433  21.895  1.00  0.00     0.073 A 
HETATM    8  C5  LIG X 999      43.615 131.342  22.472  1.00  0.00     0.058 A 
HETATM    9  C6  LIG X 999      42.847 130.994  23.595  1.00  0.00     0.095 A 
HETATM   10  C7  LIG X 999      42.978 129.721  24.149  1.00  0.00     0.046 A 
HETATM   11  C8  LIG X 999      43.859 128.787  23.594  1.00  0.00    -0.021 A 
HETATM   12  C9  LIG X 999      43.963 127.502  24.165  1.00  0.00     0.022 A 
HETATM   13  C13 LIG X 999      44.642 129.132  22.449  1.00  0.00    -0.004 A 
HETATM   14  C10 LIG X 999      44.843 126.585  23.597  1.00  0.00    -0.024 A 
HETATM   15  C11 LIG X 999      45.589 126.901  22.506  1.00  0.00    -0.024 A 
HETATM   16  C17 LIG X 999      45.090 125.188  24.011  1.00  0.00     0.276 C 
HETATM   17  C12 LIG X 999      45.513 128.156  21.905  1.00  0.00     0.023 A 
HETATM   18  C14 LIG X 999      46.409 125.743  22.085  1.00  0.00     0.276 C 
HETATM   19  N4  LIG X 999      46.210 124.702  23.143  1.00  0.00    -0.067 N 
HETATM   20  C15 LIG X 999      47.446 124.553  23.947  1.00  0.00     0.272 C 
HETATM   21  C16 LIG X 999      45.871 123.395  22.534  1.00  0.00     0.272 C 
BRANCH   9  22
HETATM   22  N1  LIG X 999      41.925 131.914  24.194  1.00  0.00    -0.073 NA
HETATM   23  N2  LIG X 999      41.135 132.585  23.528  1.00  0.00    -0.162 NA
HETATM   24  N3  LIG X 999      40.347 133.257  22.864  1.00  0.00     0.068 N 
ENDBRANCH   9  22
ENDBRANCH   4   7
ENDBRANCH   3   4
TORSDOF 3
ENDMDL
