REMARK VINA RESULT:      -8.1      1.044      2.015
REMARK  3 active torsions:
REMARK  status: ('A' for Active; 'I' for Inactive)
REMARK    1  A    between atoms: N2_3  and  N3_4 
REMARK    2  A    between atoms: C1_5  and  C2_6 
REMARK    3  A    between atoms: C7_12  and  N5_13 
ROOT
HETATM    1  N5  LIG X 999      45.284 131.082  14.172  1.00  0.00    -0.073 NA
HETATM    2  N6  LIG X 999      46.310 131.045  13.491  1.00  0.00    -0.162 NA
HETATM    3  N7  LIG X 999      47.333 131.007  12.810  1.00  0.00     0.068 N 
ENDROOT
BRANCH   1   4
HETATM    4  C7  LIG X 999      45.305 130.953  15.601  1.00  0.00     0.094 A 
HETATM    5  C6  LIG X 999      44.292 131.503  16.408  1.00  0.00     0.046 A 
HETATM    6  C5  LIG X 999      44.342 131.360  17.803  1.00  0.00    -0.021 A 
HETATM    7  C4  LIG X 999      43.325 131.912  18.616  1.00  0.00     0.046 A 
HETATM    8  C10 LIG X 999      45.429 130.650  18.401  1.00  0.00    -0.024 A 
HETATM    9  C3  LIG X 999      43.429 131.737  19.992  1.00  0.00     0.086 A 
HETATM   10  N4  LIG X 999      42.581 132.175  20.941  1.00  0.00    -0.228 NA
HETATM   11  C12 LIG X 999      44.466 131.061  20.559  1.00  0.00     0.063 A 
HETATM   12  C2  LIG X 999      43.157 131.732  22.091  1.00  0.00     0.148 A 
HETATM   13  N8  LIG X 999      44.311 131.047  21.887  1.00  0.00    -0.338 N 
HETATM   14  H8  LIG X 999      44.935 130.610  22.602  1.00  0.00     0.167 HD
HETATM   15  C11 LIG X 999      45.491 130.499  19.804  1.00  0.00     0.044 A 
HETATM   16  C9  LIG X 999      46.430 130.108  17.584  1.00  0.00     0.014 A 
HETATM   17  C8  LIG X 999      46.366 130.260  16.196  1.00  0.00     0.035 A 
BRANCH  12  18
HETATM   18  C1  LIG X 999      42.603 131.958  23.443  1.00  0.00     0.193 C 
HETATM   19  N3  LIG X 999      42.302 131.005  24.273  1.00  0.00    -0.140 NA
BRANCH  19  20
HETATM   20  N2  LIG X 999      42.469 129.646  23.978  1.00  0.00    -0.051 NA
HETATM   21  N1  LIG X 999      41.486 128.961  23.560  1.00  0.00    -0.184 NA
HETATM   22  H1  LIG X 999      41.612 127.948  23.341  1.00  0.00     0.214 HD
ENDBRANCH  19  20
ENDBRANCH  12  18
ENDBRANCH   1   4
TORSDOF 3
