REMARK VINA RESULT:      -6.6      0.829      2.270
REMARK  7 active torsions:
REMARK  status: ('A' for Active; 'I' for Inactive)
REMARK    1  A    between atoms: N1_2  and  C2_3 
REMARK    2  A    between atoms: C2_3  and  C4_5 
REMARK    3  A    between atoms: C4_5  and  C5_6 
REMARK    4  A    between atoms: C5_6  and  C6_7 
REMARK    5  A    between atoms: C6_7  and  C7_8 
REMARK    6  A    between atoms: C7_8  and  N2_9 
REMARK    7  A    between atoms: N2_9  and  C8_10 
ROOT
HETATM    1  C8  LIG X 999      44.345 131.799  17.720  1.00  0.00     0.101 C 
HETATM    2  C9  LIG X 999      43.158 132.322  18.242  1.00  0.00     0.056 C 
HETATM    3  C10 LIG X 999      42.780 132.051  19.565  1.00  0.00    -0.045 C 
HETATM    4  C11 LIG X 999      41.359 132.401  19.934  1.00  0.00     0.049 C 
HETATM    5  C12 LIG X 999      43.684 131.348  20.420  1.00  0.00     0.008 C 
HETATM    6  C13 LIG X 999      44.798 130.718  19.796  1.00  0.00     0.045 C 
HETATM    7  C14 LIG X 999      45.589 129.810  20.511  1.00  0.00     0.031 C 
HETATM    8  C15 LIG X 999      45.316 129.524  21.842  1.00  0.00     0.014 C 
HETATM    9  C16 LIG X 999      44.317 130.224  22.521  1.00  0.00    -0.025 C 
HETATM   10  C17 LIG X 999      44.136 129.998  23.896  1.00  0.00     0.012 C 
HETATM   11  C18 LIG X 999      43.240 130.776  24.625  1.00  0.00     0.001 C 
HETATM   12  C19 LIG X 999      42.552 131.810  23.999  1.00  0.00     0.001 C 
HETATM   13  C20 LIG X 999      42.711 132.037  22.629  1.00  0.00     0.013 C 
HETATM   14  C21 LIG X 999      43.530 131.195  21.839  1.00  0.00    -0.013 C 
HETATM   15  N3  LIG X 999      45.100 130.973  18.491  1.00  0.00    -0.342 N 
HETATM   16  H28 LIG X 999      45.947 130.531  18.065  1.00  0.00     0.167 HD
ENDROOT
BRANCH   1  17
HETATM   17  N2  LIG X 999      44.750 132.055  16.360  1.00  0.00    -0.376 N 
HETATM   18  H17 LIG X 999      45.644 132.572  16.202  1.00  0.00     0.161 HD
BRANCH  17  19
HETATM   19  C7  LIG X 999      43.968 131.701  15.172  1.00  0.00     0.121 C 
BRANCH  19  20
HETATM   20  C6  LIG X 999      44.873 131.419  13.965  1.00  0.00     0.020 C 
BRANCH  20  21
HETATM   21  C5  LIG X 999      46.339 131.771  14.252  1.00  0.00     0.004 C 
BRANCH  21  22
HETATM   22  C4  LIG X 999      47.282 131.007  13.310  1.00  0.00     0.035 C 
BRANCH  22  23
HETATM   23  C2  LIG X 999      47.573 129.585  13.822  1.00  0.00     0.216 C 
HETATM   24  C3  LIG X 999      49.003 129.170  13.428  1.00  0.00     0.042 C 
BRANCH  23  25
HETATM   25  N1  LIG X 999      47.380 129.540  15.284  1.00  0.00     0.083 N 
HETATM   26  C1  LIG X 999      46.110 128.911  15.656  1.00  0.00     0.307 C 
HETATM   27  H4  LIG X 999      48.163 129.013  15.739  1.00  0.00     0.315 HD
ENDBRANCH  23  25
ENDBRANCH  22  23
ENDBRANCH  21  22
ENDBRANCH  20  21
ENDBRANCH  19  20
ENDBRANCH  17  19
ENDBRANCH   1  17
TORSDOF 7
