REMARK VINA RESULT:      -7.1      1.895      7.497
REMARK  6 active torsions:
REMARK  status: ('A' for Active; 'I' for Inactive)
REMARK    1  A    between atoms: O1_2  and  C1_3 
REMARK    2  A    between atoms: C1_3  and  C4_10 
REMARK    3  A    between atoms: N1_4  and  C2_5 
REMARK    4  A    between atoms: C2_5  and  C3_6 
REMARK    5  A    between atoms: C3_6  and  N2_7 
REMARK    6  A    between atoms: C13_19  and  N5_20 
ROOT
HETATM    1  N2  LIG X 999      43.800 130.366  24.107  1.00  0.00    -0.114 NA
HETATM    2  N3  LIG X 999      44.350 129.328  23.741  1.00  0.00    -0.168 NA
HETATM    3  N4  LIG X 999      44.901 128.290  23.376  1.00  0.00     0.068 N 
ENDROOT
BRANCH   1   4
HETATM    4  C3  LIG X 999      42.534 130.779  23.520  1.00  0.00     0.211 C 
BRANCH   4   5
HETATM    5  C2  LIG X 999      42.733 132.056  22.713  1.00  0.00     0.176 C 
BRANCH   5   6
HETATM    6  N1  LIG X 999      43.155 131.717  21.358  1.00  0.00    -0.265 NA
HETATM    7  C1  LIG X 999      44.399 131.589  21.006  1.00  0.00     0.167 C 
BRANCH   7   8
HETATM    8  O1  LIG X 999      45.409 131.778  21.955  1.00  0.00    -0.344 OA
HETATM    9  H1  LIG X 999      45.902 131.007  22.386  1.00  0.00     0.219 HD
ENDBRANCH   7   8
BRANCH   7  10
HETATM   10  C4  LIG X 999      44.728 131.236  19.602  1.00  0.00     0.017 A 
HETATM   11  C5  LIG X 999      45.867 130.473  19.301  1.00  0.00     0.016 A 
HETATM   12  C6  LIG X 999      46.170 130.144  17.979  1.00  0.00     0.011 A 
HETATM   13  C7  LIG X 999      45.344 130.568  16.926  1.00  0.00    -0.024 A 
HETATM   14  C8  LIG X 999      44.211 131.365  17.215  1.00  0.00    -0.049 A 
HETATM   15  C13 LIG X 999      45.749 130.245  15.504  1.00  0.00     0.179 C 
HETATM   16  C9  LIG X 999      43.908 131.680  18.549  1.00  0.00     0.023 A 
HETATM   17  C10 LIG X 999      43.246 131.792  16.133  1.00  0.00     0.039 C 
HETATM   18  C11 LIG X 999      43.857 131.726  14.731  1.00  0.00     0.007 C 
HETATM   19  C12 LIG X 999      44.572 130.391  14.524  1.00  0.00     0.035 C 
BRANCH  15  20
HETATM   20  N5  LIG X 999      46.852 131.122  15.119  1.00  0.00    -0.105 NA
HETATM   21  N6  LIG X 999      47.285 131.136  13.966  1.00  0.00    -0.167 NA
HETATM   22  N7  LIG X 999      47.716 131.152  12.815  1.00  0.00     0.068 N 
ENDBRANCH  15  20
ENDBRANCH   7  10
ENDBRANCH   5   6
ENDBRANCH   4   5
ENDBRANCH   1   4
TORSDOF 6
