REMARK VINA RESULT:      -6.8      3.130      6.983
REMARK  7 active torsions:
REMARK  status: ('A' for Active; 'I' for Inactive)
REMARK    1  A    between atoms: C14_14  and  N1_15 
REMARK    2  A    between atoms: N1_15  and  C15_17 
REMARK    3  A    between atoms: C15_17  and  C16_18 
REMARK    4  A    between atoms: C16_18  and  C17_19 
REMARK    5  A    between atoms: C17_19  and  C18_20 
REMARK    6  A    between atoms: C18_20  and  C19_21 
REMARK    7  A    between atoms: C19_21  and  N2_22 
ROOT
HETATM    1  C1  LIG X 999      42.984 131.811  24.625  1.00  0.00     0.001 C 
HETATM    2  C2  LIG X 999      44.271 131.458  24.230  1.00  0.00     0.001 C 
HETATM    3  C3  LIG X 999      44.605 131.409  22.875  1.00  0.00     0.013 C 
HETATM    4  C4  LIG X 999      43.639 131.664  21.873  1.00  0.00    -0.013 C 
HETATM    5  C5  LIG X 999      42.366 132.140  22.301  1.00  0.00    -0.025 C 
HETATM    6  C6  LIG X 999      42.039 132.171  23.666  1.00  0.00     0.012 C 
HETATM    7  C7  LIG X 999      41.452 132.636  21.369  1.00  0.00     0.014 C 
HETATM    8  C8  LIG X 999      41.796 132.721  20.028  1.00  0.00     0.031 C 
HETATM    9  C9  LIG X 999      43.016 132.210  19.566  1.00  0.00     0.045 C 
HETATM   10  C10 LIG X 999      43.913 131.572  20.468  1.00  0.00     0.008 C 
HETATM   11  C11 LIG X 999      45.002 130.852  19.888  1.00  0.00    -0.045 C 
HETATM   12  C12 LIG X 999      45.785 129.777  20.604  1.00  0.00     0.049 C 
HETATM   13  C13 LIG X 999      45.297 131.028  18.528  1.00  0.00     0.056 C 
HETATM   14  C14 LIG X 999      44.455 131.791  17.702  1.00  0.00     0.101 C 
HETATM   15  N3  LIG X 999      43.318 132.316  18.240  1.00  0.00    -0.342 N 
HETATM   16  H28 LIG X 999      42.653 132.829  17.615  1.00  0.00     0.167 HD
ENDROOT
BRANCH  14  17
HETATM   17  N1  LIG X 999      44.706 131.978  16.426  1.00  0.00    -0.376 N 
HETATM   18  H11 LIG X 999      45.587 132.473  16.155  1.00  0.00     0.161 HD
BRANCH  17  19
HETATM   19  C15 LIG X 999      43.854 131.559  15.306  1.00  0.00     0.121 C 
BRANCH  19  20
HETATM   20  C16 LIG X 999      44.671 131.451  14.012  1.00  0.00     0.020 C 
BRANCH  20  21
HETATM   21  C17 LIG X 999      46.146 131.801  14.262  1.00  0.00     0.004 C 
BRANCH  21  22
HETATM   22  C18 LIG X 999      47.111 130.989  13.379  1.00  0.00     0.035 C 
BRANCH  22  23
HETATM   23  C19 LIG X 999      47.454 129.596  13.948  1.00  0.00     0.216 C 
HETATM   24  C21 LIG X 999      48.914 129.242  13.613  1.00  0.00     0.042 C 
BRANCH  23  25
HETATM   25  N2  LIG X 999      47.215 129.583  15.404  1.00  0.00     0.083 N 
HETATM   26  H21 LIG X 999      48.013 129.121  15.900  1.00  0.00     0.315 HD
HETATM   27  C20 LIG X 999      45.975 128.887  15.755  1.00  0.00     0.307 C 
ENDBRANCH  23  25
ENDBRANCH  22  23
ENDBRANCH  21  22
ENDBRANCH  20  21
ENDBRANCH  19  20
ENDBRANCH  17  19
ENDBRANCH  14  17
TORSDOF 7
