REMARK VINA RESULT:      -7.1      0.000      0.000
REMARK  4 active torsions:
REMARK  status: ('A' for Active; 'I' for Inactive)
REMARK    1  A    between atoms: C3_3  and  O1_4 
REMARK    2  A    between atoms: O1_4  and  C4_5 
REMARK    3  A    between atoms: C4_5  and  O2_6 
REMARK    4  A    between atoms: C5_8  and  C6_9 
ROOT
HETATM    1  C1  LIG X 999      45.376 127.214  22.381  1.00  0.00     0.014 C 
HETATM    2  C2  LIG X 999      44.636 127.998  22.919  1.00  0.00    -0.091 C 
HETATM    3  C3  LIG X 999      43.734 128.947  23.571  1.00  0.00     0.266 C 
ENDROOT
BRANCH   3   4
HETATM    4  O1  LIG X 999      42.969 129.600  22.584  1.00  0.00    -0.319 OA
BRANCH   4   5
HETATM    5  C4  LIG X 999      42.838 130.959  22.931  1.00  0.00     0.314 A 
HETATM    6  O3  LIG X 999      44.095 131.497  23.268  1.00  0.00    -0.312 OA
HETATM    7  C5  LIG X 999      43.479 132.024  22.113  1.00  0.00     0.254 A 
BRANCH   5   8
HETATM    8  O2  LIG X 999      41.892 131.300  23.904  1.00  0.00    -0.341 OA
HETATM    9  H4  LIG X 999      41.510 132.165  23.608  1.00  0.00     0.215 HD
ENDBRANCH   5   8
BRANCH   7  10
HETATM   10  C6  LIG X 999      44.151 131.574  20.846  1.00  0.00    -0.021 A 
HETATM   11  C7  LIG X 999      45.390 130.912  20.879  1.00  0.00     0.011 A 
HETATM   12  C8  LIG X 999      46.007 130.506  19.693  1.00  0.00     0.013 A 
HETATM   13  C9  LIG X 999      45.400 130.767  18.457  1.00  0.00    -0.026 A 
HETATM   14  C10 LIG X 999      46.008 130.359  17.259  1.00  0.00     0.012 A 
HETATM   15  C14 LIG X 999      44.163 131.455  18.415  1.00  0.00    -0.025 A 
HETATM   16  C11 LIG X 999      45.394 130.630  16.033  1.00  0.00     0.001 A 
HETATM   17  C12 LIG X 999      44.174 131.309  15.992  1.00  0.00     0.001 A 
HETATM   18  C13 LIG X 999      43.558 131.722  17.176  1.00  0.00     0.012 A 
HETATM   19  C15 LIG X 999      43.553 131.863  19.611  1.00  0.00     0.022 A 
ENDBRANCH   7  10
ENDBRANCH   4   5
ENDBRANCH   3   4
TORSDOF 4
