REMARK VINA RESULT:      -6.1      2.359      7.588
REMARK  4 active torsions:
REMARK  status: ('A' for Active; 'I' for Inactive)
REMARK    1  A    between atoms: C2_2  and  N1_3 
REMARK    2  A    between atoms: C3_6  and  O1_7 
REMARK    3  A    between atoms: O1_7  and  C4_8 
REMARK    4  A    between atoms: C4_8  and  C5_9 
ROOT
HETATM    1  N1  LIG X 999      42.409 131.758  22.559  1.00  0.00    -0.070 NA
HETATM    2  N2  LIG X 999      42.781 132.317  23.593  1.00  0.00    -0.162 NA
HETATM    3  N3  LIG X 999      43.150 132.875  24.625  1.00  0.00     0.068 N 
ENDROOT
BRANCH   1   4
HETATM    4  C2  LIG X 999      43.324 131.371  21.521  1.00  0.00     0.127 A 
HETATM    5  C1  LIG X 999      43.119 131.762  20.185  1.00  0.00     0.049 A 
HETATM    6  C14 LIG X 999      44.022 131.377  19.186  1.00  0.00    -0.023 A 
HETATM    7  C9  LIG X 999      45.151 130.584  19.527  1.00  0.00    -0.022 A 
HETATM    8  C13 LIG X 999      43.819 131.768  17.848  1.00  0.00     0.021 A 
HETATM    9  C8  LIG X 999      45.348 130.195  20.859  1.00  0.00     0.051 A 
HETATM   10  C10 LIG X 999      46.060 130.192  18.525  1.00  0.00     0.021 A 
HETATM   11  C3  LIG X 999      44.439 130.588  21.862  1.00  0.00     0.102 A 
HETATM   12  C11 LIG X 999      45.828 130.605  17.212  1.00  0.00    -0.024 A 
HETATM   13  C12 LIG X 999      44.746 131.366  16.886  1.00  0.00    -0.024 A 
HETATM   14  C18 LIG X 999      46.629 130.298  16.009  1.00  0.00     0.276 C 
HETATM   15  C15 LIG X 999      44.722 131.638  15.432  1.00  0.00     0.276 C 
HETATM   16  N4  LIG X 999      46.012 131.094  14.900  1.00  0.00    -0.067 N 
HETATM   17  C16 LIG X 999      45.769 130.238  13.715  1.00  0.00     0.272 C 
HETATM   18  C17 LIG X 999      46.912 132.206  14.512  1.00  0.00     0.272 C 
BRANCH  11  19
HETATM   19  O1  LIG X 999      44.608 130.221  23.210  1.00  0.00    -0.337 OA
BRANCH  19  20
HETATM   20  C4  LIG X 999      44.104 129.031  23.814  1.00  0.00     0.269 C 
BRANCH  20  21
HETATM   21  C5  LIG X 999      44.821 127.856  23.308  1.00  0.00    -0.080 C 
HETATM   22  C6  LIG X 999      45.414 126.893  22.890  1.00  0.00    -0.109 C 
HETATM   23  C7  LIG X 999      46.136 125.729  22.378  1.00  0.00     0.112 C 
ENDBRANCH  20  21
ENDBRANCH  19  20
ENDBRANCH  11  19
ENDBRANCH   1   4
TORSDOF 4
