REMARK VINA RESULT:      -6.0      2.414      3.224
REMARK  5 active torsions:
REMARK  status: ('A' for Active; 'I' for Inactive)
REMARK    1  A    between atoms: C6_6  and  C7_7 
REMARK    2  A    between atoms: C7_7  and  N1_8 
REMARK    3  A    between atoms: N4_11  and  C8_12 
REMARK    4  A    between atoms: C8_12  and  C9_13 
REMARK    5  A    between atoms: C9_13  and  N5_14 
ROOT
HETATM    1  N1  LIG X 999      46.772 131.809  20.966  1.00  0.00    -0.052 NA
HETATM    2  N2  LIG X 999      47.129 132.885  21.446  1.00  0.00    -0.160 NA
HETATM    3  N3  LIG X 999      47.486 133.961  21.924  1.00  0.00     0.068 N 
ENDROOT
BRANCH   1   4
HETATM    4  C7  LIG X 999      45.398 131.538  20.671  1.00  0.00     0.191 C 
HETATM    5  N4  LIG X 999      44.563 131.297  21.645  1.00  0.00    -0.267 NA
BRANCH   4   6
HETATM    6  C6  LIG X 999      44.990 131.504  19.253  1.00  0.00     0.015 A 
HETATM    7  C5  LIG X 999      45.863 131.014  18.269  1.00  0.00     0.027 A 
HETATM    8  C4  LIG X 999      45.462 130.971  16.925  1.00  0.00    -0.025 A 
HETATM    9  C3  LIG X 999      46.334 130.496  15.933  1.00  0.00     0.012 A 
HETATM   10  C12 LIG X 999      44.164 131.407  16.566  1.00  0.00    -0.026 A 
HETATM   11  C2  LIG X 999      45.923 130.458  14.597  1.00  0.00     0.001 A 
HETATM   12  C1  LIG X 999      44.643 130.892  14.242  1.00  0.00     0.001 A 
HETATM   13  C13 LIG X 999      43.763 131.364  15.220  1.00  0.00     0.012 A 
HETATM   14  C11 LIG X 999      43.288 131.871  17.558  1.00  0.00     0.013 A 
HETATM   15  C10 LIG X 999      43.697 131.911  18.894  1.00  0.00     0.016 A 
ENDBRANCH   4   6
BRANCH   5  16
HETATM   16  C8  LIG X 999      43.151 130.925  21.529  1.00  0.00     0.178 C 
BRANCH  16  17
HETATM   17  C9  LIG X 999      42.648 130.200  22.787  1.00  0.00     0.251 C 
BRANCH  17  18
HETATM   18  N5  LIG X 999      42.038 131.130  23.738  1.00  0.00    -0.078 N 
HETATM   19  H9  LIG X 999      42.565 131.089  24.640  1.00  0.00     0.274 HD
HETATM   20  H10 LIG X 999      42.082 132.107  23.369  1.00  0.00     0.274 HD
HETATM   21  H11 LIG X 999      41.042 130.863  23.916  1.00  0.00     0.274 HD
ENDBRANCH  17  18
ENDBRANCH  16  17
ENDBRANCH   5  16
ENDBRANCH   1   4
TORSDOF 5
