REMARK VINA RESULT:      -8.2      1.072      2.584
REMARK  4 active torsions:
REMARK  status: ('A' for Active; 'I' for Inactive)
REMARK    1  A    between atoms: C3_3  and  O1_4 
REMARK    2  A    between atoms: O1_4  and  C4_5 
REMARK    3  A    between atoms: C4_5  and  O2_6 
REMARK    4  A    between atoms: C5_8  and  C6_9 
ROOT
HETATM    1  C1  LIG X 999      48.438 129.511  13.388  1.00  0.00     0.014 C 
HETATM    2  C2  LIG X 999      47.466 130.203  13.557  1.00  0.00    -0.091 C 
HETATM    3  C3  LIG X 999      46.285 131.043  13.762  1.00  0.00     0.270 C 
ENDROOT
BRANCH   3   4
HETATM    4  O1  LIG X 999      45.301 130.301  14.477  1.00  0.00    -0.319 OA
BRANCH   4   5
HETATM    5  C4  LIG X 999      45.238 130.183  15.876  1.00  0.00     0.179 C 
HETATM    6  C5  LIG X 999      45.051 131.246  16.678  1.00  0.00     0.075 C 
BRANCH   5   7
HETATM    7  O2  LIG X 999      45.354 128.910  16.429  1.00  0.00    -0.341 OA
HETATM    8  H4  LIG X 999      45.637 128.790  17.394  1.00  0.00     0.220 HD
ENDBRANCH   5   7
BRANCH   6   9
HETATM    9  C6  LIG X 999      44.996 131.142  18.157  1.00  0.00    -0.021 A 
HETATM   10  C7  LIG X 999      46.093 130.596  18.848  1.00  0.00     0.012 A 
HETATM   11  C8  LIG X 999      46.100 130.529  20.241  1.00  0.00     0.002 A 
HETATM   12  C9  LIG X 999      45.019 131.015  20.973  1.00  0.00     0.012 A 
HETATM   13  C10 LIG X 999      43.915 131.574  20.316  1.00  0.00    -0.025 A 
HETATM   14  C11 LIG X 999      42.831 132.064  21.062  1.00  0.00     0.012 A 
HETATM   15  C15 LIG X 999      43.892 131.645  18.896  1.00  0.00    -0.015 A 
HETATM   16  C12 LIG X 999      41.723 132.614  20.415  1.00  0.00     0.001 A 
HETATM   17  C13 LIG X 999      41.686 132.677  19.022  1.00  0.00     0.001 A 
HETATM   18  C14 LIG X 999      42.756 132.195  18.265  1.00  0.00     0.013 A 
ENDBRANCH   6   9
ENDBRANCH   4   5
ENDBRANCH   3   4
TORSDOF 4
