REMARK VINA RESULT:      -7.5      0.000      0.000
REMARK  2 active torsions:
REMARK  status: ('A' for Active; 'I' for Inactive)
REMARK    1  A    between atoms: C2_5  and  C3_6 
REMARK    2  A    between atoms: N3_18  and  C13_19 
ROOT
HETATM    1  H1  LIG X 999      41.525 132.426  17.775  1.00  0.00     0.190 HD
HETATM    2  N1  LIG X 999      42.500 132.125  17.552  1.00  0.00    -0.260 NA
HETATM    3  C1  LIG X 999      43.293 131.705  18.484  1.00  0.00     0.268 A 
HETATM    4  O1  LIG X 999      42.962 131.632  19.753  1.00  0.00    -0.257 OA
HETATM    5  C2  LIG X 999      44.041 131.180  20.363  1.00  0.00     0.177 A 
HETATM    6  N2  LIG X 999      45.041 130.983  19.477  1.00  0.00    -0.269 N 
HETATM    7  H9  LIG X 999      45.995 130.606  19.672  1.00  0.00     0.190 HD
HETATM    8  N3  LIG X 999      44.567 131.309  18.285  1.00  0.00    -0.212 N 
ENDROOT
BRANCH   5   9
HETATM    9  C3  LIG X 999      44.157 130.956  21.823  1.00  0.00     0.028 A 
HETATM   10  C4  LIG X 999      43.832 132.023  22.678  1.00  0.00     0.017 A 
HETATM   11  C5  LIG X 999      43.849 131.863  24.062  1.00  0.00     0.002 A 
HETATM   12  C6  LIG X 999      44.193 130.635  24.623  1.00  0.00     0.012 A 
HETATM   13  C7  LIG X 999      44.543 129.556  23.801  1.00  0.00    -0.025 A 
HETATM   14  C8  LIG X 999      44.909 128.329  24.377  1.00  0.00     0.012 A 
HETATM   15  C12 LIG X 999      44.542 129.708  22.385  1.00  0.00    -0.011 A 
HETATM   16  C9  LIG X 999      45.291 127.259  23.570  1.00  0.00     0.001 A 
HETATM   17  C10 LIG X 999      45.325 127.404  22.185  1.00  0.00     0.001 A 
HETATM   18  C11 LIG X 999      44.962 128.617  21.593  1.00  0.00     0.013 A 
ENDBRANCH   5   9
BRANCH   8  19
HETATM   19  C13 LIG X 999      45.302 131.226  17.051  1.00  0.00     0.105 A 
HETATM   20  C14 LIG X 999      45.625 132.389  16.334  1.00  0.00     0.054 A 
HETATM   21  C15 LIG X 999      46.326 132.287  15.131  1.00  0.00     0.122 A 
HETATM   22  N4  LIG X 999      46.695 131.068  14.658  1.00  0.00    -0.230 NA
HETATM   23  C16 LIG X 999      46.397 129.923  15.327  1.00  0.00     0.251 A 
HETATM   24  F1  LIG X 999      46.788 128.727  14.822  1.00  0.00    -0.181 F 
HETATM   25  C17 LIG X 999      45.693 129.978  16.534  1.00  0.00     0.202 A 
HETATM   26  F2  LIG X 999      45.430 128.831  17.210  1.00  0.00    -0.199 F 
ENDBRANCH   8  19
TORSDOF 2
