REMARK VINA RESULT:      -8.7      2.076      2.351
REMARK  5 active torsions:
REMARK  status: ('A' for Active; 'I' for Inactive)
REMARK    1  A    between atoms: C2_2  and  C3_3 
REMARK    2  A    between atoms: C2_2  and  N1_13 
REMARK    3  A    between atoms: C14_15  and  C15_16 
REMARK    4  A    between atoms: C15_16  and  C16_17 
REMARK       I    between atoms: C16_17  and  N2_19 
REMARK    5  A    between atoms: N2_19  and  C17_20 
ROOT
HETATM    1  N1  LIG X 999      43.693 131.760  20.456  1.00  0.00    -0.274 N 
HETATM    2  C13 LIG X 999      42.809 131.333  21.377  1.00  0.00     0.137 A 
HETATM    3  C14 LIG X 999      43.548 130.997  22.489  1.00  0.00     0.078 A 
HETATM    4  N4  LIG X 999      44.853 131.200  22.214  1.00  0.00    -0.163 NA
HETATM    5  N5  LIG X 999      44.909 131.667  20.975  1.00  0.00     0.005 NA
ENDROOT
BRANCH   1   6
HETATM    6  C2  LIG X 999      43.424 132.178  19.078  1.00  0.00     0.134 C 
HETATM    7  C1  LIG X 999      41.947 131.966  18.715  1.00  0.00     0.039 C 
BRANCH   6   8
HETATM    8  C3  LIG X 999      44.377 131.485  18.120  1.00  0.00    -0.033 A 
HETATM    9  C4  LIG X 999      45.359 130.588  18.581  1.00  0.00     0.010 A 
HETATM   10  C5  LIG X 999      46.255 129.991  17.689  1.00  0.00     0.013 A 
HETATM   11  C6  LIG X 999      46.195 130.289  16.321  1.00  0.00    -0.026 A 
HETATM   12  C7  LIG X 999      47.092 129.694  15.419  1.00  0.00     0.012 A 
HETATM   13  C11 LIG X 999      45.226 131.206  15.847  1.00  0.00    -0.025 A 
HETATM   14  C8  LIG X 999      47.028 130.008  14.058  1.00  0.00     0.001 A 
HETATM   15  C9  LIG X 999      46.073 130.916  13.589  1.00  0.00     0.001 A 
HETATM   16  C10 LIG X 999      45.174 131.513  14.478  1.00  0.00     0.012 A 
HETATM   17  C12 LIG X 999      44.330 131.800  16.749  1.00  0.00     0.021 A 
ENDBRANCH   6   8
ENDBRANCH   1   6
BRANCH   3  18
HETATM   18  C15 LIG X 999      43.034 130.381  23.750  1.00  0.00     0.167 C 
BRANCH  18  19
HETATM   19  C16 LIG X 999      42.689 128.947  23.508  1.00  0.00     0.251 C 
HETATM   20  O1  LIG X 999      43.589 128.142  23.147  1.00  0.00    -0.271 OA
HETATM   21  N2  LIG X 999      41.337 128.509  23.693  1.00  0.00    -0.189 NA
BRANCH  21  22
HETATM   22  C17 LIG X 999      40.888 127.150  23.771  1.00  0.00     0.173 A 
HETATM   23  N3  LIG X 999      41.694 126.065  23.837  1.00  0.00    -0.344 N 
HETATM   24  C18 LIG X 999      40.988 124.911  23.965  1.00  0.00     0.097 A 
HETATM   25  H15 LIG X 999      42.737 126.086  23.826  1.00  0.00     0.167 HD
HETATM   26  C19 LIG X 999      39.607 125.073  24.023  1.00  0.00     0.070 A 
HETATM   27  S1  LIG X 999      39.271 126.720  23.912  1.00  0.00    -0.062 SA
ENDBRANCH  21  22
ENDBRANCH  18  19
ENDBRANCH   3  18
TORSDOF 5
