REMARK VINA RESULT:      -5.5      1.550      3.026
REMARK  1 active torsions:
REMARK  status: ('A' for Active; 'I' for Inactive)
REMARK    1  A    between atoms: C10_11  and  N2_12 
ROOT
HETATM    1  N2  LIG X 999      47.066 129.127  14.891  1.00  0.00    -0.214 NA
HETATM    2  C11 LIG X 999      47.650 129.644  13.885  1.00  0.00     0.165 C 
HETATM    3  S1  LIG X 999      48.390 130.298  12.612  1.00  0.00    -0.055 SA
ENDROOT
BRANCH   1   4
HETATM    4  C10 LIG X 999      46.178 129.845  15.761  1.00  0.00     0.152 C 
HETATM    5  N1  LIG X 999      46.479 129.915  17.079  1.00  0.00    -0.229 NA
HETATM    6  C9  LIG X 999      45.685 130.549  17.980  1.00  0.00     0.070 C 
HETATM    7  C8  LIG X 999      46.115 130.622  19.305  1.00  0.00     0.033 C 
HETATM    8  C15 LIG X 999      44.456 131.143  17.576  1.00  0.00     0.010 C 
HETATM    9  C7  LIG X 999      45.344 131.265  20.263  1.00  0.00     0.014 C 
HETATM   10  C5  LIG X 999      44.074 131.751  19.936  1.00  0.00    -0.025 C 
HETATM   11  C4  LIG X 999      43.583 131.637  18.602  1.00  0.00    -0.013 C 
HETATM   12  C6  LIG X 999      43.270 132.300  20.947  1.00  0.00     0.012 C 
HETATM   13  C3  LIG X 999      42.212 131.923  18.390  1.00  0.00     0.013 C 
HETATM   14  C2  LIG X 999      41.420 132.455  19.411  1.00  0.00     0.001 C 
HETATM   15  C1  LIG X 999      41.955 132.669  20.677  1.00  0.00     0.001 C 
HETATM   16  C13 LIG X 999      44.218 131.231  16.166  1.00  0.00    -0.045 C 
HETATM   17  C12 LIG X 999      45.047 130.521  15.283  1.00  0.00     0.060 C 
HETATM   18  C14 LIG X 999      43.218 132.165  15.530  1.00  0.00     0.049 C 
ENDBRANCH   1   4
TORSDOF 1
