MODEL 1
REMARK VINA RESULT:      -7.6      0.000      0.000
REMARK  7 active torsions:
REMARK  status: ('A' for Active; 'I' for Inactive)
REMARK    1  A    between atoms: O1_2  and  C1_3 
REMARK    2  A    between atoms: C1_3  and  C2_4 
REMARK    3  A    between atoms: C1_3  and  C3_8 
REMARK    4  A    between atoms: C2_4  and  N1_5 
REMARK    5  A    between atoms: C3_8  and  O2_9 
REMARK    6  A    between atoms: O2_9  and  C4_10 
REMARK    7  A    between atoms: C9_15  and  N4_16 
ROOT
HETATM    1  N1  LIG X 999      44.939 128.531  22.384  1.00  0.00    -0.113 NA
HETATM    2  N2  LIG X 999      45.050 127.305  22.393  1.00  0.00    -0.168 NA
HETATM    3  N3  LIG X 999      45.162 126.080  22.402  1.00  0.00     0.068 N 
ENDROOT
BRANCH   1   4
HETATM    4  C2  LIG X 999      44.092 129.206  23.358  1.00  0.00     0.223 C 
BRANCH   4   5
HETATM    5  C1  LIG X 999      43.106 130.164  22.665  1.00  0.00     0.165 C 
BRANCH   5   6
HETATM    6  O1  LIG X 999      42.033 130.479  23.518  1.00  0.00    -0.392 OA
HETATM    7  H1  LIG X 999      41.837 129.675  24.067  1.00  0.00     0.210 HD
ENDBRANCH   5   6
BRANCH   5   8
HETATM    8  C3  LIG X 999      43.785 131.442  22.145  1.00  0.00     0.209 C 
BRANCH   8   9
HETATM    9  O2  LIG X 999      43.291 131.763  20.847  1.00  0.00    -0.349 OA
BRANCH   9  10
HETATM   10  C4  LIG X 999      43.972 131.502  19.649  1.00  0.00     0.069 A 
HETATM   11  C5  LIG X 999      45.256 130.952  19.724  1.00  0.00     0.037 A 
HETATM   12  C6  LIG X 999      45.982 130.673  18.564  1.00  0.00     0.015 A 
HETATM   13  C7  LIG X 999      45.429 130.942  17.304  1.00  0.00    -0.024 A 
HETATM   14  C8  LIG X 999      46.151 130.665  16.132  1.00  0.00     0.046 A 
HETATM   15  C12 LIG X 999      44.131 131.499  17.215  1.00  0.00    -0.023 A 
HETATM   16  C9  LIG X 999      45.589 130.939  14.870  1.00  0.00     0.094 A 
HETATM   17  C10 LIG X 999      44.304 131.489  14.793  1.00  0.00     0.035 A 
HETATM   18  C11 LIG X 999      43.578 131.768  15.954  1.00  0.00     0.014 A 
HETATM   19  C13 LIG X 999      43.410 131.776  18.387  1.00  0.00     0.049 A 
BRANCH  16  20
HETATM   20  N4  LIG X 999      46.298 130.668  13.653  1.00  0.00    -0.073 NA
HETATM   21  N5  LIG X 999      47.362 130.049  13.634  1.00  0.00    -0.162 NA
HETATM   22  N6  LIG X 999      48.425 129.429  13.613  1.00  0.00     0.068 N 
ENDBRANCH  16  20
ENDBRANCH   9  10
ENDBRANCH   8   9
ENDBRANCH   5   8
ENDBRANCH   4   5
ENDBRANCH   1   4
TORSDOF 7
ENDMDL
MODEL 2
REMARK VINA RESULT:      -7.5      0.791      1.804
REMARK  7 active torsions:
REMARK  status: ('A' for Active; 'I' for Inactive)
REMARK    1  A    between atoms: O1_2  and  C1_3 
REMARK    2  A    between atoms: C1_3  and  C2_4 
REMARK    3  A    between atoms: C1_3  and  C3_8 
REMARK    4  A    between atoms: C2_4  and  N1_5 
REMARK    5  A    between atoms: C3_8  and  O2_9 
REMARK    6  A    between atoms: O2_9  and  C4_10 
REMARK    7  A    between atoms: C9_15  and  N4_16 
ROOT
HETATM    1  N1  LIG X 999      45.000 128.396  22.376  1.00  0.00    -0.113 NA
HETATM    2  N2  LIG X 999      45.134 127.174  22.441  1.00  0.00    -0.168 NA
HETATM    3  N3  LIG X 999      45.267 125.953  22.507  1.00  0.00     0.068 N 
ENDROOT
BRANCH   1   4
HETATM    4  C2  LIG X 999      44.268 129.119  23.407  1.00  0.00     0.223 C 
BRANCH   4   5
HETATM    5  C1  LIG X 999      43.143 129.973  22.792  1.00  0.00     0.165 C 
BRANCH   5   6
HETATM    6  O1  LIG X 999      41.973 129.888  23.567  1.00  0.00    -0.392 OA
HETATM    7  H1  LIG X 999      41.564 130.792  23.598  1.00  0.00     0.210 HD
ENDBRANCH   5   6
BRANCH   5   8
HETATM    8  C3  LIG X 999      43.557 131.438  22.583  1.00  0.00     0.209 C 
BRANCH   8   9
HETATM    9  O2  LIG X 999      42.780 132.020  21.539  1.00  0.00    -0.349 OA
BRANCH   9  10
HETATM   10  C4  LIG X 999      43.059 131.891  20.171  1.00  0.00     0.069 A 
HETATM   11  C5  LIG X 999      42.052 132.214  19.256  1.00  0.00     0.037 A 
HETATM   12  C6  LIG X 999      42.273 132.103  17.882  1.00  0.00     0.015 A 
HETATM   13  C7  LIG X 999      43.515 131.663  17.400  1.00  0.00    -0.024 A 
HETATM   14  C8  LIG X 999      43.747 131.548  16.021  1.00  0.00     0.046 A 
HETATM   15  C12 LIG X 999      44.541 131.334  18.316  1.00  0.00    -0.023 A 
HETATM   16  C9  LIG X 999      44.996 131.106  15.545  1.00  0.00     0.094 A 
HETATM   17  C10 LIG X 999      46.006 130.783  16.459  1.00  0.00     0.035 A 
HETATM   18  C11 LIG X 999      45.784 130.894  17.834  1.00  0.00     0.014 A 
HETATM   19  C13 LIG X 999      44.309 131.448  19.695  1.00  0.00     0.049 A 
BRANCH  16  20
HETATM   20  N4  LIG X 999      45.267 130.977  14.142  1.00  0.00    -0.073 NA
HETATM   21  N5  LIG X 999      46.413 130.943  13.693  1.00  0.00    -0.162 NA
HETATM   22  N6  LIG X 999      47.558 130.909  13.242  1.00  0.00     0.068 N 
ENDBRANCH  16  20
ENDBRANCH   9  10
ENDBRANCH   8   9
ENDBRANCH   5   8
ENDBRANCH   4   5
ENDBRANCH   1   4
TORSDOF 7
ENDMDL
MODEL 3
REMARK VINA RESULT:      -7.3      2.850      7.589
REMARK  7 active torsions:
REMARK  status: ('A' for Active; 'I' for Inactive)
REMARK    1  A    between atoms: O1_2  and  C1_3 
REMARK    2  A    between atoms: C1_3  and  C2_4 
REMARK    3  A    between atoms: C1_3  and  C3_8 
REMARK    4  A    between atoms: C2_4  and  N1_5 
REMARK    5  A    between atoms: C3_8  and  O2_9 
REMARK    6  A    between atoms: O2_9  and  C4_10 
REMARK    7  A    between atoms: C9_15  and  N4_16 
ROOT
HETATM    1  N1  LIG X 999      47.954 129.457  13.981  1.00  0.00    -0.113 NA
HETATM    2  N2  LIG X 999      47.981 130.407  13.198  1.00  0.00    -0.168 NA
HETATM    3  N3  LIG X 999      48.008 131.356  12.417  1.00  0.00     0.068 N 
ENDROOT
BRANCH   1   4
HETATM    4  C2  LIG X 999      47.177 129.531  15.211  1.00  0.00     0.223 C 
BRANCH   4   5
HETATM    5  C1  LIG X 999      45.667 129.451  14.920  1.00  0.00     0.165 C 
BRANCH   5   6
HETATM    6  O1  LIG X 999      45.077 128.395  15.637  1.00  0.00    -0.392 OA
HETATM    7  H1  LIG X 999      44.259 128.116  15.148  1.00  0.00     0.210 HD
ENDBRANCH   5   6
BRANCH   5   8
HETATM    8  C3  LIG X 999      44.938 130.775  15.195  1.00  0.00     0.209 C 
BRANCH   8   9
HETATM    9  O2  LIG X 999      45.581 131.474  16.259  1.00  0.00    -0.349 OA
BRANCH   9  10
HETATM   10  C4  LIG X 999      45.225 131.367  17.612  1.00  0.00     0.069 A 
HETATM   11  C5  LIG X 999      46.071 130.650  18.464  1.00  0.00     0.037 A 
HETATM   12  C6  LIG X 999      45.767 130.509  19.820  1.00  0.00     0.015 A 
HETATM   13  C7  LIG X 999      44.603 131.089  20.345  1.00  0.00    -0.024 A 
HETATM   14  C8  LIG X 999      44.289 130.953  21.706  1.00  0.00     0.046 A 
HETATM   15  C12 LIG X 999      43.740 131.817  19.493  1.00  0.00    -0.023 A 
HETATM   16  C9  LIG X 999      43.118 131.538  22.227  1.00  0.00     0.094 A 
HETATM   17  C10 LIG X 999      42.270 132.257  21.375  1.00  0.00     0.035 A 
HETATM   18  C11 LIG X 999      42.575 132.397  20.019  1.00  0.00     0.014 A 
HETATM   19  C13 LIG X 999      44.055 131.952  18.132  1.00  0.00     0.049 A 
BRANCH  16  20
HETATM   20  N4  LIG X 999      42.766 131.419  23.612  1.00  0.00    -0.073 NA
HETATM   21  N5  LIG X 999      42.409 130.352  24.112  1.00  0.00    -0.162 NA
HETATM   22  N6  LIG X 999      42.052 129.286  24.614  1.00  0.00     0.068 N 
ENDBRANCH  16  20
ENDBRANCH   9  10
ENDBRANCH   8   9
ENDBRANCH   5   8
ENDBRANCH   4   5
ENDBRANCH   1   4
TORSDOF 7
ENDMDL
MODEL 4
REMARK VINA RESULT:      -6.6      2.322      2.819
REMARK  7 active torsions:
REMARK  status: ('A' for Active; 'I' for Inactive)
REMARK    1  A    between atoms: O1_2  and  C1_3 
REMARK    2  A    between atoms: C1_3  and  C2_4 
REMARK    3  A    between atoms: C1_3  and  C3_8 
REMARK    4  A    between atoms: C2_4  and  N1_5 
REMARK    5  A    between atoms: C3_8  and  O2_9 
REMARK    6  A    between atoms: O2_9  and  C4_10 
REMARK    7  A    between atoms: C9_15  and  N4_16 
ROOT
HETATM    1  N1  LIG X 999      45.186 132.469  24.622  1.00  0.00    -0.113 NA
HETATM    2  N2  LIG X 999      45.970 133.418  24.604  1.00  0.00    -0.168 NA
HETATM    3  N3  LIG X 999      46.753 134.366  24.585  1.00  0.00     0.068 N 
ENDROOT
BRANCH   1   4
HETATM    4  C2  LIG X 999      43.747 132.695  24.593  1.00  0.00     0.223 C 
BRANCH   4   5
HETATM    5  C1  LIG X 999      43.018 131.530  23.899  1.00  0.00     0.165 C 
BRANCH   5   6
HETATM    6  O1  LIG X 999      41.755 131.939  23.434  1.00  0.00    -0.392 OA
HETATM    7  H1  LIG X 999      41.846 132.175  22.474  1.00  0.00     0.210 HD
ENDBRANCH   5   6
BRANCH   5   8
HETATM    8  C3  LIG X 999      43.843 130.906  22.762  1.00  0.00     0.209 C 
BRANCH   8   9
HETATM    9  O2  LIG X 999      43.881 131.790  21.645  1.00  0.00    -0.349 OA
BRANCH   9  10
HETATM   10  C4  LIG X 999      44.385 131.454  20.380  1.00  0.00     0.069 A 
HETATM   11  C5  LIG X 999      45.603 130.769  20.314  1.00  0.00     0.037 A 
HETATM   12  C6  LIG X 999      46.154 130.409  19.082  1.00  0.00     0.015 A 
HETATM   13  C7  LIG X 999      45.489 130.732  17.890  1.00  0.00    -0.024 A 
HETATM   14  C8  LIG X 999      46.035 130.375  16.647  1.00  0.00     0.046 A 
HETATM   15  C12 LIG X 999      44.257 131.425  17.944  1.00  0.00    -0.023 A 
HETATM   16  C9  LIG X 999      45.361 130.703  15.455  1.00  0.00     0.094 A 
HETATM   17  C10 LIG X 999      44.142 131.389  15.519  1.00  0.00     0.035 A 
HETATM   18  C11 LIG X 999      43.592 131.748  16.752  1.00  0.00     0.014 A 
HETATM   19  C13 LIG X 999      43.712 131.782  19.187  1.00  0.00     0.049 A 
BRANCH  16  20
HETATM   20  N4  LIG X 999      45.890 130.354  14.168  1.00  0.00    -0.073 NA
HETATM   21  N5  LIG X 999      47.042 129.947  14.017  1.00  0.00    -0.162 NA
HETATM   22  N6  LIG X 999      48.194 129.539  13.865  1.00  0.00     0.068 N 
ENDBRANCH  16  20
ENDBRANCH   9  10
ENDBRANCH   8   9
ENDBRANCH   5   8
ENDBRANCH   4   5
ENDBRANCH   1   4
TORSDOF 7
ENDMDL
MODEL 5
REMARK VINA RESULT:      -6.6      2.229      3.220
REMARK  7 active torsions:
REMARK  status: ('A' for Active; 'I' for Inactive)
REMARK    1  A    between atoms: O1_2  and  C1_3 
REMARK    2  A    between atoms: C1_3  and  C2_4 
REMARK    3  A    between atoms: C1_3  and  C3_8 
REMARK    4  A    between atoms: C2_4  and  N1_5 
REMARK    5  A    between atoms: C3_8  and  O2_9 
REMARK    6  A    between atoms: O2_9  and  C4_10 
REMARK    7  A    between atoms: C9_15  and  N4_16 
ROOT
HETATM    1  N1  LIG X 999      42.104 128.867  23.569  1.00  0.00    -0.113 NA
HETATM    2  N2  LIG X 999      41.301 127.961  23.792  1.00  0.00    -0.168 NA
HETATM    3  N3  LIG X 999      40.499 127.055  24.014  1.00  0.00     0.068 N 
ENDROOT
BRANCH   1   4
HETATM    4  C2  LIG X 999      42.361 129.893  24.570  1.00  0.00     0.223 C 
BRANCH   4   5
HETATM    5  C1  LIG X 999      43.843 130.309  24.570  1.00  0.00     0.165 C 
BRANCH   5   6
HETATM    6  O1  LIG X 999      44.643 129.301  24.002  1.00  0.00    -0.392 OA
HETATM    7  H1  LIG X 999      44.892 128.667  24.724  1.00  0.00     0.210 HD
ENDBRANCH   5   6
BRANCH   5   8
HETATM    8  C3  LIG X 999      44.082 131.657  23.871  1.00  0.00     0.209 C 
BRANCH   8   9
HETATM    9  O2  LIG X 999      43.057 131.895  22.909  1.00  0.00    -0.349 OA
BRANCH   9  10
HETATM   10  C4  LIG X 999      43.239 131.835  21.520  1.00  0.00     0.069 A 
HETATM   11  C5  LIG X 999      42.230 132.349  20.697  1.00  0.00     0.037 A 
HETATM   12  C6  LIG X 999      42.357 132.315  19.307  1.00  0.00     0.015 A 
HETATM   13  C7  LIG X 999      43.502 131.762  18.716  1.00  0.00    -0.024 A 
HETATM   14  C8  LIG X 999      43.638 131.723  17.319  1.00  0.00     0.046 A 
HETATM   15  C12 LIG X 999      44.528 131.239  19.537  1.00  0.00    -0.023 A 
HETATM   16  C9  LIG X 999      44.791 131.166  16.733  1.00  0.00     0.094 A 
HETATM   17  C10 LIG X 999      45.801 130.652  17.555  1.00  0.00     0.035 A 
HETATM   18  C11 LIG X 999      45.674 130.686  18.946  1.00  0.00     0.014 A 
HETATM   19  C13 LIG X 999      44.392 131.278  20.933  1.00  0.00     0.049 A 
BRANCH  16  20
HETATM   20  N4  LIG X 999      44.963 131.110  15.310  1.00  0.00    -0.073 NA
HETATM   21  N5  LIG X 999      44.049 131.367  14.525  1.00  0.00    -0.162 NA
HETATM   22  N6  LIG X 999      43.138 131.625  13.740  1.00  0.00     0.068 N 
ENDBRANCH  16  20
ENDBRANCH   9  10
ENDBRANCH   8   9
ENDBRANCH   5   8
ENDBRANCH   4   5
ENDBRANCH   1   4
TORSDOF 7
ENDMDL
MODEL 6
REMARK VINA RESULT:      -6.6      2.451      3.172
REMARK  7 active torsions:
REMARK  status: ('A' for Active; 'I' for Inactive)
REMARK    1  A    between atoms: O1_2  and  C1_3 
REMARK    2  A    between atoms: C1_3  and  C2_4 
REMARK    3  A    between atoms: C1_3  and  C3_8 
REMARK    4  A    between atoms: C2_4  and  N1_5 
REMARK    5  A    between atoms: C3_8  and  O2_9 
REMARK    6  A    between atoms: O2_9  and  C4_10 
REMARK    7  A    between atoms: C9_15  and  N4_16 
ROOT
HETATM    1  N1  LIG X 999      44.191 132.544  24.622  1.00  0.00    -0.113 NA
HETATM    2  N2  LIG X 999      45.233 133.199  24.622  1.00  0.00    -0.168 NA
HETATM    3  N3  LIG X 999      46.275 133.853  24.622  1.00  0.00     0.068 N 
ENDROOT
BRANCH   1   4
HETATM    4  C2  LIG X 999      44.226 131.093  24.494  1.00  0.00     0.223 C 
BRANCH   4   5
HETATM    5  C1  LIG X 999      43.849 130.654  23.068  1.00  0.00     0.165 C 
BRANCH   5   6
HETATM    6  O1  LIG X 999      43.777 129.252  22.981  1.00  0.00    -0.392 OA
HETATM    7  H1  LIG X 999      42.888 129.016  22.607  1.00  0.00     0.210 HD
ENDBRANCH   5   6
BRANCH   5   8
HETATM    8  C3  LIG X 999      42.547 131.301  22.571  1.00  0.00     0.209 C 
BRANCH   8   9
HETATM    9  O2  LIG X 999      42.839 132.305  21.602  1.00  0.00    -0.349 OA
BRANCH   9  10
HETATM   10  C4  LIG X 999      43.123 132.051  20.252  1.00  0.00     0.069 A 
HETATM   11  C5  LIG X 999      42.140 132.348  19.302  1.00  0.00     0.037 A 
HETATM   12  C6  LIG X 999      42.366 132.114  17.944  1.00  0.00     0.015 A 
HETATM   13  C7  LIG X 999      43.587 131.576  17.515  1.00  0.00    -0.024 A 
HETATM   14  C8  LIG X 999      43.823 131.338  16.151  1.00  0.00     0.046 A 
HETATM   15  C12 LIG X 999      44.589 131.271  18.466  1.00  0.00    -0.023 A 
HETATM   16  C9  LIG X 999      45.052 130.797  15.728  1.00  0.00     0.094 A 
HETATM   17  C10 LIG X 999      46.038 130.499  16.677  1.00  0.00     0.035 A 
HETATM   18  C11 LIG X 999      45.811 130.733  18.035  1.00  0.00     0.014 A 
HETATM   19  C13 LIG X 999      44.352 131.510  19.828  1.00  0.00     0.049 A 
BRANCH  16  20
HETATM   20  N4  LIG X 999      45.327 130.541  14.344  1.00  0.00    -0.073 NA
HETATM   21  N5  LIG X 999      46.381 130.885  13.806  1.00  0.00    -0.162 NA
HETATM   22  N6  LIG X 999      47.433 131.227  13.267  1.00  0.00     0.068 N 
ENDBRANCH  16  20
ENDBRANCH   9  10
ENDBRANCH   8   9
ENDBRANCH   5   8
ENDBRANCH   4   5
ENDBRANCH   1   4
TORSDOF 7
ENDMDL
MODEL 7
REMARK VINA RESULT:      -6.2      2.381      2.933
REMARK  7 active torsions:
REMARK  status: ('A' for Active; 'I' for Inactive)
REMARK    1  A    between atoms: O1_2  and  C1_3 
REMARK    2  A    between atoms: C1_3  and  C2_4 
REMARK    3  A    between atoms: C1_3  and  C3_8 
REMARK    4  A    between atoms: C2_4  and  N1_5 
REMARK    5  A    between atoms: C3_8  and  O2_9 
REMARK    6  A    between atoms: O2_9  and  C4_10 
REMARK    7  A    between atoms: C9_15  and  N4_16 
ROOT
HETATM    1  N1  LIG X 999      42.547 131.877  24.073  1.00  0.00    -0.113 NA
HETATM    2  N2  LIG X 999      43.606 132.444  24.344  1.00  0.00    -0.168 NA
HETATM    3  N3  LIG X 999      44.664 133.010  24.615  1.00  0.00     0.068 N 
ENDROOT
BRANCH   1   4
HETATM    4  C2  LIG X 999      42.493 130.871  23.020  1.00  0.00     0.223 C 
BRANCH   4   5
HETATM    5  C1  LIG X 999      43.425 129.688  23.336  1.00  0.00     0.165 C 
BRANCH   5   6
HETATM    6  O1  LIG X 999      42.711 128.476  23.337  1.00  0.00    -0.392 OA
HETATM    7  H1  LIG X 999      42.924 127.999  24.181  1.00  0.00     0.210 HD
ENDBRANCH   5   6
BRANCH   5   8
HETATM    8  C3  LIG X 999      44.631 129.612  22.386  1.00  0.00     0.209 C 
BRANCH   8   9
HETATM    9  O2  LIG X 999      44.804 130.859  21.717  1.00  0.00    -0.349 OA
BRANCH   9  10
HETATM   10  C4  LIG X 999      44.812 131.022  20.324  1.00  0.00     0.069 A 
HETATM   11  C5  LIG X 999      43.911 131.932  19.759  1.00  0.00     0.037 A 
HETATM   12  C6  LIG X 999      43.874 132.134  18.378  1.00  0.00     0.015 A 
HETATM   13  C7  LIG X 999      44.742 131.424  17.537  1.00  0.00    -0.024 A 
HETATM   14  C8  LIG X 999      44.711 131.620  16.147  1.00  0.00     0.046 A 
HETATM   15  C12 LIG X 999      45.657 130.501  18.096  1.00  0.00    -0.023 A 
HETATM   16  C9  LIG X 999      45.586 130.903  15.309  1.00  0.00     0.094 A 
HETATM   17  C10 LIG X 999      46.488 129.992  15.872  1.00  0.00     0.035 A 
HETATM   18  C11 LIG X 999      46.525 129.790  17.254  1.00  0.00     0.014 A 
HETATM   19  C13 LIG X 999      45.687 130.305  19.485  1.00  0.00     0.049 A 
BRANCH  16  20
HETATM   20  N4  LIG X 999      45.582 131.078  13.885  1.00  0.00    -0.073 NA
HETATM   21  N5  LIG X 999      46.615 131.067  13.216  1.00  0.00    -0.162 NA
HETATM   22  N6  LIG X 999      47.648 131.055  12.546  1.00  0.00     0.068 N 
ENDBRANCH  16  20
ENDBRANCH   9  10
ENDBRANCH   8   9
ENDBRANCH   5   8
ENDBRANCH   4   5
ENDBRANCH   1   4
TORSDOF 7
ENDMDL
MODEL 8
REMARK VINA RESULT:      -6.1      3.034      7.924
REMARK  7 active torsions:
REMARK  status: ('A' for Active; 'I' for Inactive)
REMARK    1  A    between atoms: O1_2  and  C1_3 
REMARK    2  A    between atoms: C1_3  and  C2_4 
REMARK    3  A    between atoms: C1_3  and  C3_8 
REMARK    4  A    between atoms: C2_4  and  N1_5 
REMARK    5  A    between atoms: C3_8  and  O2_9 
REMARK    6  A    between atoms: O2_9  and  C4_10 
REMARK    7  A    between atoms: C9_15  and  N4_16 
ROOT
HETATM    1  N1  LIG X 999      45.655 131.361  13.377  1.00  0.00    -0.113 NA
HETATM    2  N2  LIG X 999      44.560 131.387  13.939  1.00  0.00    -0.168 NA
HETATM    3  N3  LIG X 999      43.466 131.413  14.501  1.00  0.00     0.068 N 
ENDROOT
BRANCH   1   4
HETATM    4  C2  LIG X 999      46.873 131.118  14.137  1.00  0.00     0.223 C 
BRANCH   4   5
HETATM    5  C1  LIG X 999      46.925 129.668  14.653  1.00  0.00     0.165 C 
BRANCH   5   6
HETATM    6  O1  LIG X 999      48.166 129.078  14.357  1.00  0.00    -0.392 OA
HETATM    7  H1  LIG X 999      48.392 129.301  13.416  1.00  0.00     0.210 HD
ENDBRANCH   5   6
BRANCH   5   8
HETATM    8  C3  LIG X 999      46.612 129.561  16.154  1.00  0.00     0.209 C 
BRANCH   8   9
HETATM    9  O2  LIG X 999      46.119 130.807  16.640  1.00  0.00    -0.349 OA
BRANCH   9  10
HETATM   10  C4  LIG X 999      45.362 130.963  17.810  1.00  0.00     0.069 A 
HETATM   11  C5  LIG X 999      44.186 131.719  17.743  1.00  0.00     0.037 A 
HETATM   12  C6  LIG X 999      43.394 131.908  18.877  1.00  0.00     0.015 A 
HETATM   13  C7  LIG X 999      43.769 131.339  20.103  1.00  0.00    -0.024 A 
HETATM   14  C8  LIG X 999      42.978 131.525  21.248  1.00  0.00     0.046 A 
HETATM   15  C12 LIG X 999      44.955 130.573  20.183  1.00  0.00    -0.023 A 
HETATM   16  C9  LIG X 999      43.361 130.951  22.476  1.00  0.00     0.094 A 
HETATM   17  C10 LIG X 999      44.537 130.194  22.545  1.00  0.00     0.035 A 
HETATM   18  C11 LIG X 999      45.330 130.005  21.410  1.00  0.00     0.014 A 
HETATM   19  C13 LIG X 999      45.745 130.389  19.038  1.00  0.00     0.049 A 
BRANCH  16  20
HETATM   20  N4  LIG X 999      42.578 131.120  23.665  1.00  0.00    -0.073 NA
HETATM   21  N5  LIG X 999      41.902 130.209  24.145  1.00  0.00    -0.162 NA
HETATM   22  N6  LIG X 999      41.227 129.299  24.625  1.00  0.00     0.068 N 
ENDBRANCH  16  20
ENDBRANCH   9  10
ENDBRANCH   8   9
ENDBRANCH   5   8
ENDBRANCH   4   5
ENDBRANCH   1   4
TORSDOF 7
ENDMDL
MODEL 9
REMARK VINA RESULT:      -5.7      2.043      2.555
REMARK  7 active torsions:
REMARK  status: ('A' for Active; 'I' for Inactive)
REMARK    1  A    between atoms: O1_2  and  C1_3 
REMARK    2  A    between atoms: C1_3  and  C2_4 
REMARK    3  A    between atoms: C1_3  and  C3_8 
REMARK    4  A    between atoms: C2_4  and  N1_5 
REMARK    5  A    between atoms: C3_8  and  O2_9 
REMARK    6  A    between atoms: O2_9  and  C4_10 
REMARK    7  A    between atoms: C9_15  and  N4_16 
ROOT
HETATM    1  N1  LIG X 999      44.657 127.770  24.500  1.00  0.00    -0.113 NA
HETATM    2  N2  LIG X 999      44.425 126.625  24.112  1.00  0.00    -0.168 NA
HETATM    3  N3  LIG X 999      44.193 125.481  23.724  1.00  0.00     0.068 N 
ENDROOT
BRANCH   1   4
HETATM    4  C2  LIG X 999      44.353 128.916  23.654  1.00  0.00     0.223 C 
BRANCH   4   5
HETATM    5  C1  LIG X 999      42.836 129.173  23.594  1.00  0.00     0.165 C 
BRANCH   5   6
HETATM    6  O1  LIG X 999      42.159 128.388  24.545  1.00  0.00    -0.392 OA
HETATM    7  H1  LIG X 999      42.497 128.641  25.443  1.00  0.00     0.210 HD
ENDBRANCH   5   6
BRANCH   5   8
HETATM    8  C3  LIG X 999      42.479 130.659  23.757  1.00  0.00     0.209 C 
BRANCH   8   9
HETATM    9  O2  LIG X 999      43.528 131.473  23.236  1.00  0.00    -0.349 OA
BRANCH   9  10
HETATM   10  C4  LIG X 999      43.914 131.507  21.888  1.00  0.00     0.069 A 
HETATM   11  C5  LIG X 999      45.275 131.387  21.587  1.00  0.00     0.037 A 
HETATM   12  C6  LIG X 999      45.718 131.416  20.263  1.00  0.00     0.015 A 
HETATM   13  C7  LIG X 999      44.799 131.567  19.214  1.00  0.00    -0.024 A 
HETATM   14  C8  LIG X 999      45.235 131.598  17.880  1.00  0.00     0.046 A 
HETATM   15  C12 LIG X 999      43.420 131.690  19.507  1.00  0.00    -0.023 A 
HETATM   16  C9  LIG X 999      44.306 131.750  16.833  1.00  0.00     0.094 A 
HETATM   17  C10 LIG X 999      42.943 131.871  17.133  1.00  0.00     0.035 A 
HETATM   18  C11 LIG X 999      42.501 131.841  18.458  1.00  0.00     0.014 A 
HETATM   19  C13 LIG X 999      42.985 131.660  20.841  1.00  0.00     0.049 A 
BRANCH  16  20
HETATM   20  N4  LIG X 999      44.716 131.786  15.459  1.00  0.00    -0.073 NA
HETATM   21  N5  LIG X 999      43.950 131.508  14.535  1.00  0.00    -0.162 NA
HETATM   22  N6  LIG X 999      43.186 131.231  13.611  1.00  0.00     0.068 N 
ENDBRANCH  16  20
ENDBRANCH   9  10
ENDBRANCH   8   9
ENDBRANCH   5   8
ENDBRANCH   4   5
ENDBRANCH   1   4
TORSDOF 7
ENDMDL
