REMARK VINA RESULT:      -5.3      2.490      6.064
REMARK  4 active torsions:
REMARK  status: ('A' for Active; 'I' for Inactive)
REMARK    1  A    between atoms: C3_3  and  O1_4 
REMARK    2  A    between atoms: O1_4  and  C4_5 
REMARK    3  A    between atoms: C4_5  and  O2_6 
REMARK    4  A    between atoms: C5_8  and  C6_9 
ROOT
HETATM    1  C1  LIG X 999      42.388 132.166  19.483  1.00  0.00     0.014 C 
HETATM    2  C2  LIG X 999      43.204 131.808  20.295  1.00  0.00    -0.091 C 
HETATM    3  C3  LIG X 999      44.195 131.370  21.277  1.00  0.00     0.266 C 
ENDROOT
BRANCH   3   4
HETATM    4  O1  LIG X 999      43.605 130.408  22.120  1.00  0.00    -0.319 OA
BRANCH   4   5
HETATM    5  C4  LIG X 999      44.105 130.575  23.427  1.00  0.00     0.314 A 
HETATM    6  O3  LIG X 999      43.126 130.210  24.371  1.00  0.00    -0.312 OA
HETATM    7  C5  LIG X 999      44.287 129.409  24.333  1.00  0.00     0.254 A 
BRANCH   5   8
HETATM    8  O2  LIG X 999      44.660 131.815  23.764  1.00  0.00    -0.341 OA
HETATM    9  H4  LIG X 999      44.192 132.096  24.590  1.00  0.00     0.215 HD
ENDBRANCH   5   8
BRANCH   7  10
HETATM   10  C6  LIG X 999      44.032 128.055  23.732  1.00  0.00    -0.021 A 
HETATM   11  C7  LIG X 999      45.037 127.379  23.020  1.00  0.00     0.011 A 
HETATM   12  C8  LIG X 999      44.785 126.124  22.460  1.00  0.00     0.013 A 
HETATM   13  C9  LIG X 999      43.520 125.533  22.593  1.00  0.00    -0.026 A 
HETATM   14  C10 LIG X 999      43.257 124.270  22.039  1.00  0.00     0.012 A 
HETATM   15  C14 LIG X 999      42.496 126.220  23.288  1.00  0.00    -0.025 A 
HETATM   16  C11 LIG X 999      41.991 123.695  22.174  1.00  0.00     0.001 A 
HETATM   17  C12 LIG X 999      40.980 124.373  22.860  1.00  0.00     0.001 A 
HETATM   18  C13 LIG X 999      41.228 125.631  23.416  1.00  0.00     0.012 A 
HETATM   19  C15 LIG X 999      42.757 127.481  23.843  1.00  0.00     0.022 A 
ENDBRANCH   7  10
ENDBRANCH   4   5
ENDBRANCH   3   4
TORSDOF 4
