REMARK VINA RESULT:      -7.8      0.000      0.000
REMARK  1 active torsions:
REMARK  status: ('A' for Active; 'I' for Inactive)
REMARK    1  A    between atoms: C10_11  and  N2_12 
ROOT
HETATM    1  N2  LIG X 999      44.490 131.329  15.639  1.00  0.00    -0.052 NA
HETATM    2  N3  LIG X 999      45.578 131.363  15.061  1.00  0.00    -0.160 NA
HETATM    3  N4  LIG X 999      46.663 131.397  14.483  1.00  0.00     0.068 N 
ENDROOT
BRANCH   1   4
HETATM    4  C10 LIG X 999      44.378 131.380  17.067  1.00  0.00     0.186 C 
HETATM    5  N1  LIG X 999      43.271 131.934  17.615  1.00  0.00    -0.226 NA
HETATM    6  C9  LIG X 999      43.072 132.001  18.957  1.00  0.00     0.071 C 
HETATM    7  C8  LIG X 999      41.931 132.650  19.425  1.00  0.00     0.033 C 
HETATM    8  C14 LIG X 999      44.019 131.442  19.860  1.00  0.00     0.010 C 
HETATM    9  C7  LIG X 999      41.685 132.751  20.787  1.00  0.00     0.014 C 
HETATM   10  C5  LIG X 999      42.522 132.108  21.703  1.00  0.00    -0.025 C 
HETATM   11  C4  LIG X 999      43.665 131.386  21.251  1.00  0.00    -0.013 C 
HETATM   12  C6  LIG X 999      42.192 132.135  23.069  1.00  0.00     0.012 C 
HETATM   13  C3  LIG X 999      44.326 130.563  22.193  1.00  0.00     0.013 C 
HETATM   14  C2  LIG X 999      43.977 130.589  23.545  1.00  0.00     0.001 C 
HETATM   15  C1  LIG X 999      42.932 131.394  23.986  1.00  0.00     0.001 C 
HETATM   16  C12 LIG X 999      45.267 131.017  19.302  1.00  0.00    -0.045 C 
HETATM   17  C11 LIG X 999      45.402 130.929  17.907  1.00  0.00     0.063 C 
HETATM   18  C13 LIG X 999      46.526 130.793  20.105  1.00  0.00     0.049 C 
ENDBRANCH   1   4
TORSDOF 1
