REMARK VINA RESULT:      -4.2      2.950      4.350
REMARK  5 active torsions:
REMARK  status: ('A' for Active; 'I' for Inactive)
REMARK    1  A    between atoms: C3_3  and  N1_4 
REMARK    2  A    between atoms: N1_4  and  C6_7 
REMARK    3  A    between atoms: C6_7  and  C7_8 
REMARK    4  A    between atoms: C9_10  and  C10_11 
REMARK    5  A    between atoms: C11_14  and  N4_15 
ROOT
HETATM    1  C1  LIG X 999      46.112 130.412  14.217  1.00  0.00     0.013 C 
HETATM    2  C2  LIG X 999      45.847 131.191  15.098  1.00  0.00    -0.089 C 
HETATM    3  C3  LIG X 999      45.524 132.146  16.177  1.00  0.00     0.329 C 
ENDROOT
BRANCH   3   4
HETATM    4  N1  LIG X 999      44.997 131.491  17.413  1.00  0.00    -0.061 N 
HETATM    5  C4  LIG X 999      45.540 130.112  17.518  1.00  0.00     0.273 C 
HETATM    6  C5  LIG X 999      43.521 131.383  17.290  1.00  0.00     0.273 C 
BRANCH   4   7
HETATM    7  C6  LIG X 999      45.362 132.237  18.663  1.00  0.00     0.275 C 
BRANCH   7   8
HETATM    8  C7  LIG X 999      44.574 131.826  19.892  1.00  0.00    -0.035 C 
HETATM    9  C8  LIG X 999      45.070 130.914  20.755  1.00  0.00     0.001 C 
HETATM   10  C9  LIG X 999      44.371 130.647  22.071  1.00  0.00     0.054 C 
HETATM   11  C12 LIG X 999      44.742 129.247  22.620  1.00  0.00     0.023 C 
HETATM   12  C16 LIG X 999      42.834 130.670  21.816  1.00  0.00     0.028 C 
HETATM   13  C13 LIG X 999      43.952 128.923  23.905  1.00  0.00     0.002 C 
HETATM   14  C14 LIG X 999      42.433 129.043  23.692  1.00  0.00     0.001 C 
HETATM   15  C15 LIG X 999      42.039 130.408  23.105  1.00  0.00     0.010 C 
HETATM   16  C17 LIG X 999      42.428 131.929  21.094  1.00  0.00    -0.020 C 
HETATM   17  C18 LIG X 999      43.231 132.424  20.144  1.00  0.00     0.005 C 
BRANCH  10  18
HETATM   18  C10 LIG X 999      44.840 131.724  23.040  1.00  0.00     0.184 A 
HETATM   19  N2  LIG X 999      44.109 132.219  24.060  1.00  0.00    -0.124 NA
HETATM   20  N3  LIG X 999      44.836 133.171  24.625  1.00  0.00    -0.099 NA
HETATM   21  C11 LIG X 999      45.978 133.224  23.919  1.00  0.00     0.326 A 
HETATM   22  O1  LIG X 999      45.992 132.348  22.944  1.00  0.00    -0.255 OA
BRANCH  21  23
HETATM   23  N4  LIG X 999      47.039 134.132  24.203  1.00  0.00    -0.023 NA
HETATM   24  N5  LIG X 999      47.874 134.412  23.342  1.00  0.00    -0.158 NA
HETATM   25  N6  LIG X 999      48.708 134.691  22.481  1.00  0.00     0.068 N 
ENDBRANCH  21  23
ENDBRANCH  10  18
ENDBRANCH   7   8
ENDBRANCH   4   7
ENDBRANCH   3   4
TORSDOF 5
