REMARK VINA RESULT:      -7.8      1.589      3.069
REMARK  2 active torsions:
REMARK  status: ('A' for Active; 'I' for Inactive)
REMARK    1  A    between atoms: N1_1  and  C1_2 
REMARK    2  A    between atoms: C2_5  and  C3_6 
ROOT
HETATM    1  C3  LIG X 999      44.811 131.352  18.488  1.00  0.00     0.030 A 
HETATM    2  C4  LIG X 999      45.925 130.645  18.975  1.00  0.00     0.017 A 
HETATM    3  C5  LIG X 999      46.032 130.315  20.324  1.00  0.00     0.002 A 
HETATM    4  C6  LIG X 999      45.032 130.685  21.219  1.00  0.00     0.012 A 
HETATM    5  C7  LIG X 999      43.921 131.414  20.776  1.00  0.00    -0.025 A 
HETATM    6  C8  LIG X 999      42.933 131.803  21.694  1.00  0.00     0.012 A 
HETATM    7  C9  LIG X 999      41.841 132.561  21.274  1.00  0.00     0.001 A 
HETATM    8  C10 LIG X 999      41.732 132.950  19.939  1.00  0.00     0.001 A 
HETATM    9  C11 LIG X 999      42.705 132.569  19.011  1.00  0.00     0.013 A 
HETATM   10  C12 LIG X 999      43.803 131.773  19.403  1.00  0.00    -0.011 A 
ENDROOT
BRANCH   1  11
HETATM   11  C2  LIG X 999      44.734 131.588  17.027  1.00  0.00     0.203 A 
HETATM   12  N3  LIG X 999      45.741 132.114  16.295  1.00  0.00    -0.145 NA
HETATM   13  N2  LIG X 999      45.305 132.132  15.048  1.00  0.00    -0.240 N 
HETATM   14  C1  LIG X 999      44.067 131.618  15.056  1.00  0.00     0.240 A 
HETATM   15  H3  LIG X 999      45.846 132.483  14.226  1.00  0.00     0.193 HD
HETATM   16  O1  LIG X 999      43.704 131.275  16.267  1.00  0.00    -0.257 OA
BRANCH  14  17
HETATM   17  N1  LIG X 999      43.252 131.464  13.897  1.00  0.00    -0.364 N 
HETATM   18  H1  LIG X 999      43.246 132.204  13.160  1.00  0.00     0.159 HD
HETATM   19  H2  LIG X 999      42.660 130.614  13.777  1.00  0.00     0.159 HD
ENDBRANCH  14  17
ENDBRANCH   1  11
TORSDOF 2
