REMARK VINA RESULT:      -7.8      0.000      0.000
REMARK  2 active torsions:
REMARK  status: ('A' for Active; 'I' for Inactive)
REMARK    1  A    between atoms: O1_2  and  C2_3 
REMARK    2  A    between atoms: C11_12  and  N1_13 
ROOT
HETATM    1  C2  LIG X 999      45.621 130.940  15.844  1.00  0.00     0.095 A 
HETATM    2  C3  LIG X 999      46.026 130.705  17.173  1.00  0.00     0.051 A 
HETATM    3  C4  LIG X 999      45.162 130.984  18.241  1.00  0.00    -0.023 A 
HETATM    4  C5  LIG X 999      45.567 130.751  19.570  1.00  0.00     0.021 A 
HETATM    5  C6  LIG X 999      44.673 131.039  20.601  1.00  0.00    -0.024 A 
HETATM    6  C7  LIG X 999      43.433 131.543  20.351  1.00  0.00    -0.024 A 
HETATM    7  C8  LIG X 999      42.997 131.795  19.049  1.00  0.00     0.021 A 
HETATM    8  C9  LIG X 999      43.868 131.510  17.979  1.00  0.00    -0.023 A 
HETATM    9  C10 LIG X 999      43.471 131.743  16.657  1.00  0.00     0.044 A 
HETATM   10  C11 LIG X 999      44.337 131.461  15.590  1.00  0.00     0.060 A 
HETATM   11  C12 LIG X 999      42.705 131.784  21.614  1.00  0.00     0.276 C 
HETATM   12  N2  LIG X 999      43.575 131.220  22.696  1.00  0.00    -0.067 N 
HETATM   13  C13 LIG X 999      43.752 132.200  23.791  1.00  0.00     0.272 C 
HETATM   14  C14 LIG X 999      42.963 129.987  23.247  1.00  0.00     0.272 C 
HETATM   15  C15 LIG X 999      44.891 130.896  22.057  1.00  0.00     0.276 C 
ENDROOT
BRANCH  10  16
HETATM   16  N1  LIG X 999      43.903 131.709  14.248  1.00  0.00    -0.397 N 
HETATM   17  H8  LIG X 999      44.571 132.011  13.506  1.00  0.00     0.156 HD
HETATM   18  H9  LIG X 999      42.900 131.591  13.982  1.00  0.00     0.156 HD
ENDBRANCH  10  16
BRANCH   1  19
HETATM   19  O1  LIG X 999      46.467 130.668  14.755  1.00  0.00    -0.354 OA
HETATM   20  C1  LIG X 999      47.107 129.419  14.518  1.00  0.00     0.210 C 
ENDBRANCH   1  19
TORSDOF 2
