REMARK VINA RESULT:      -4.9      6.454      8.675
REMARK  3 active torsions:
REMARK  status: ('A' for Active; 'I' for Inactive)
REMARK    1  A    between atoms: C3_3  and  S1_4 
REMARK    2  A    between atoms: S1_4  and  N1_7 
REMARK    3  A    between atoms: C10_16  and  N4_17 
ROOT
HETATM    1  N1  LIG X 999      44.581 130.330  22.025  1.00  0.00     0.026 NA
HETATM    2  N2  LIG X 999      43.844 131.052  21.355  1.00  0.00    -0.150 NA
HETATM    3  N3  LIG X 999      43.108 131.776  20.686  1.00  0.00     0.069 N 
ENDROOT
BRANCH   1   4
HETATM    4  S1  LIG X 999      43.933 129.402  23.330  1.00  0.00     0.311 S 
HETATM    5  O1  LIG X 999      42.450 129.631  23.408  1.00  0.00    -0.196 OA
HETATM    6  O2  LIG X 999      44.554 129.847  24.625  1.00  0.00    -0.196 OA
BRANCH   4   7
HETATM    7  C3  LIG X 999      44.255 127.692  23.059  1.00  0.00     0.084 A 
HETATM    8  C2  LIG X 999      45.452 127.284  22.461  1.00  0.00     0.026 A 
HETATM    9  C1  LIG X 999      45.710 125.926  22.261  1.00  0.00     0.009 A 
HETATM   10  C6  LIG X 999      44.772 124.957  22.647  1.00  0.00    -0.050 A 
HETATM   11  C5  LIG X 999      43.566 125.363  23.268  1.00  0.00    -0.023 A 
HETATM   12  C7  LIG X 999      45.141 123.498  22.508  1.00  0.00     0.039 C 
HETATM   13  C4  LIG X 999      43.322 126.733  23.466  1.00  0.00     0.035 A 
HETATM   14  C10 LIG X 999      42.494 124.360  23.654  1.00  0.00     0.179 C 
HETATM   15  C9  LIG X 999      43.076 122.951  23.837  1.00  0.00     0.035 C 
HETATM   16  C8  LIG X 999      43.937 122.561  22.634  1.00  0.00     0.007 C 
BRANCH  14  17
HETATM   17  N4  LIG X 999      41.450 124.322  22.633  1.00  0.00    -0.105 NA
HETATM   18  N5  LIG X 999      40.426 123.654  22.786  1.00  0.00    -0.167 NA
HETATM   19  N6  LIG X 999      39.404 122.988  22.940  1.00  0.00     0.068 N 
ENDBRANCH  14  17
ENDBRANCH   4   7
ENDBRANCH   1   4
TORSDOF 3
