REMARK VINA RESULT:      -7.6      1.775      8.273
REMARK  8 active torsions:
REMARK  status: ('A' for Active; 'I' for Inactive)
REMARK    1  A    between atoms: O1_2  and  C1_3 
REMARK    2  A    between atoms: C1_3  and  C15_19 
REMARK    3  A    between atoms: N1_4  and  C2_5 
REMARK    4  A    between atoms: C2_5  and  C3_6 
REMARK    5  A    between atoms: C3_6  and  C4_7 
REMARK    6  A    between atoms: C4_7  and  O2_8 
REMARK    7  A    between atoms: O2_8  and  C5_9 
REMARK    8  A    between atoms: C15_19  and  C16_20 
ROOT
HETATM    1  C4  LIG X 999      43.567 131.695  20.908  1.00  0.00     0.177 C 
ENDROOT
BRANCH   1   2
HETATM    2  C3  LIG X 999      44.598 132.020  19.821  1.00  0.00     0.048 C 
BRANCH   2   3
HETATM    3  C2  LIG X 999      44.136 131.556  18.432  1.00  0.00     0.153 C 
BRANCH   3   4
HETATM    4  N1  LIG X 999      45.199 131.691  17.435  1.00  0.00    -0.271 NA
HETATM    5  C1  LIG X 999      45.036 131.715  16.141  1.00  0.00     0.132 C 
BRANCH   5   6
HETATM    6  O1  LIG X 999      43.776 131.584  15.547  1.00  0.00    -0.348 OA
HETATM    7  H1  LIG X 999      42.914 131.865  15.995  1.00  0.00     0.219 HD
ENDBRANCH   5   6
BRANCH   5   8
HETATM    8  C15 LIG X 999      46.231 131.905  15.251  1.00  0.00     0.089 C 
BRANCH   8   9
HETATM    9  C16 LIG X 999      46.354 130.842  14.137  1.00  0.00    -0.015 C 
HETATM   10  C17 LIG X 999      47.504 131.153  13.173  1.00  0.00     0.010 C 
HETATM   11  C18 LIG X 999      46.480 129.421  14.704  1.00  0.00     0.010 C 
ENDBRANCH   8   9
ENDBRANCH   5   8
ENDBRANCH   3   4
ENDBRANCH   2   3
ENDBRANCH   1   2
BRANCH   1  12
HETATM   12  O2  LIG X 999      44.207 131.134  22.054  1.00  0.00    -0.351 OA
BRANCH  12  13
HETATM   13  C5  LIG X 999      44.065 129.814  22.514  1.00  0.00     0.069 A 
HETATM   14  C6  LIG X 999      42.959 129.516  23.317  1.00  0.00     0.037 A 
HETATM   15  C7  LIG X 999      42.761 128.225  23.813  1.00  0.00     0.015 A 
HETATM   16  C8  LIG X 999      43.679 127.209  23.518  1.00  0.00    -0.026 A 
HETATM   17  C9  LIG X 999      43.493 125.910  24.015  1.00  0.00     0.012 A 
HETATM   18  C13 LIG X 999      44.806 127.497  22.711  1.00  0.00    -0.023 A 
HETATM   19  C10 LIG X 999      44.419 124.906  23.718  1.00  0.00     0.001 A 
HETATM   20  C11 LIG X 999      45.535 125.191  22.926  1.00  0.00     0.001 A 
HETATM   21  C12 LIG X 999      45.731 126.480  22.425  1.00  0.00     0.012 A 
HETATM   22  C14 LIG X 999      44.991 128.796  22.211  1.00  0.00     0.049 A 
ENDBRANCH  12  13
ENDBRANCH   1  12
TORSDOF 8
