MODEL 1
REMARK VINA RESULT:      -7.6      0.000      0.000
REMARK  2 active torsions:
REMARK  status: ('A' for Active; 'I' for Inactive)
REMARK    1  A    between atoms: O1_2  and  C2_3 
REMARK    2  A    between atoms: C11_12  and  N1_13 
ROOT
HETATM    1  C2  LIG X 999      44.923 131.330  16.248  1.00  0.00     0.095 A 
HETATM    2  C3  LIG X 999      44.015 131.796  17.220  1.00  0.00     0.051 A 
HETATM    3  C4  LIG X 999      44.198 131.483  18.574  1.00  0.00    -0.023 A 
HETATM    4  C5  LIG X 999      43.293 131.951  19.546  1.00  0.00     0.021 A 
HETATM    5  C6  LIG X 999      43.511 131.612  20.883  1.00  0.00    -0.024 A 
HETATM    6  C7  LIG X 999      44.576 130.852  21.260  1.00  0.00    -0.024 A 
HETATM    7  C8  LIG X 999      45.501 130.375  20.328  1.00  0.00     0.021 A 
HETATM    8  C9  LIG X 999      45.310 130.690  18.968  1.00  0.00    -0.023 A 
HETATM    9  C10 LIG X 999      46.209 130.230  17.998  1.00  0.00     0.044 A 
HETATM   10  C11 LIG X 999      46.022 130.545  16.644  1.00  0.00     0.060 A 
HETATM   11  C12 LIG X 999      44.589 130.667  22.726  1.00  0.00     0.276 C 
HETATM   12  N2  LIG X 999      43.309 131.267  23.220  1.00  0.00    -0.067 N 
HETATM   13  C13 LIG X 999      42.386 130.197  23.668  1.00  0.00     0.272 C 
HETATM   14  C14 LIG X 999      43.565 132.188  24.351  1.00  0.00     0.272 C 
HETATM   15  C15 LIG X 999      42.711 132.006  22.061  1.00  0.00     0.276 C 
ENDROOT
BRANCH  10  16
HETATM   16  N1  LIG X 999      46.958 130.059  15.674  1.00  0.00    -0.397 N 
HETATM   17  H8  LIG X 999      46.806 130.199  14.651  1.00  0.00     0.156 HD
HETATM   18  H9  LIG X 999      47.821 129.552  15.974  1.00  0.00     0.156 HD
ENDBRANCH  10  16
BRANCH   1  19
HETATM   19  O1  LIG X 999      44.762 131.629  14.884  1.00  0.00    -0.354 OA
HETATM   20  C1  LIG X 999      43.551 131.455  14.154  1.00  0.00     0.210 C 
ENDBRANCH   1  19
TORSDOF 2
ENDMDL
MODEL 2
REMARK VINA RESULT:      -7.3      1.222      2.338
REMARK  2 active torsions:
REMARK  status: ('A' for Active; 'I' for Inactive)
REMARK    1  A    between atoms: O1_2  and  C2_3 
REMARK    2  A    between atoms: C11_12  and  N1_13 
ROOT
HETATM    1  C2  LIG X 999      45.610 130.962  16.754  1.00  0.00     0.095 A 
HETATM    2  C3  LIG X 999      45.952 130.651  18.084  1.00  0.00     0.051 A 
HETATM    3  C4  LIG X 999      45.069 130.937  19.134  1.00  0.00    -0.023 A 
HETATM    4  C5  LIG X 999      45.411 130.623  20.464  1.00  0.00     0.021 A 
HETATM    5  C6  LIG X 999      44.503 130.931  21.479  1.00  0.00    -0.024 A 
HETATM    6  C7  LIG X 999      43.304 131.516  21.208  1.00  0.00    -0.024 A 
HETATM    7  C8  LIG X 999      42.924 131.837  19.903  1.00  0.00     0.021 A 
HETATM    8  C9  LIG X 999      43.817 131.549  18.852  1.00  0.00    -0.023 A 
HETATM    9  C10 LIG X 999      43.481 131.856  17.528  1.00  0.00     0.044 A 
HETATM   10  C11 LIG X 999      44.368 131.568  16.481  1.00  0.00     0.060 A 
HETATM   11  C12 LIG X 999      42.526 131.705  22.451  1.00  0.00     0.276 C 
HETATM   12  N2  LIG X 999      43.446 131.316  23.566  1.00  0.00    -0.067 N 
HETATM   13  C13 LIG X 999      43.863 132.520  24.323  1.00  0.00     0.272 C 
HETATM   14  C14 LIG X 999      42.777 130.372  24.491  1.00  0.00     0.272 C 
HETATM   15  C15 LIG X 999      44.640 130.674  22.928  1.00  0.00     0.276 C 
ENDROOT
BRANCH  10  16
HETATM   16  N1  LIG X 999      43.997 131.895  15.136  1.00  0.00    -0.397 N 
HETATM   17  H8  LIG X 999      43.186 131.437  14.667  1.00  0.00     0.156 HD
HETATM   18  H9  LIG X 999      44.536 132.608  14.594  1.00  0.00     0.156 HD
ENDBRANCH  10  16
BRANCH   1  19
HETATM   19  O1  LIG X 999      46.477 130.686  15.683  1.00  0.00    -0.354 OA
HETATM   20  C1  LIG X 999      46.441 129.498  14.898  1.00  0.00     0.210 C 
ENDBRANCH   1  19
TORSDOF 2
ENDMDL
MODEL 3
REMARK VINA RESULT:      -6.6      2.390      6.403
REMARK  2 active torsions:
REMARK  status: ('A' for Active; 'I' for Inactive)
REMARK    1  A    between atoms: O1_2  and  C2_3 
REMARK    2  A    between atoms: C11_12  and  N1_13 
ROOT
HETATM    1  C2  LIG X 999      43.145 131.390  22.443  1.00  0.00     0.095 A 
HETATM    2  C3  LIG X 999      42.853 131.773  21.120  1.00  0.00     0.051 A 
HETATM    3  C4  LIG X 999      43.704 131.409  20.067  1.00  0.00    -0.023 A 
HETATM    4  C5  LIG X 999      43.411 131.791  18.743  1.00  0.00     0.021 A 
HETATM    5  C6  LIG X 999      44.289 131.410  17.726  1.00  0.00    -0.024 A 
HETATM    6  C7  LIG X 999      45.407 130.679  17.988  1.00  0.00    -0.024 A 
HETATM    7  C8  LIG X 999      45.730 130.275  19.285  1.00  0.00     0.021 A 
HETATM    8  C9  LIG X 999      44.873 130.646  20.339  1.00  0.00    -0.023 A 
HETATM    9  C10 LIG X 999      45.158 130.267  21.657  1.00  0.00     0.044 A 
HETATM   10  C11 LIG X 999      44.304 130.633  22.707  1.00  0.00     0.060 A 
HETATM   11  C12 LIG X 999      46.141 130.389  16.739  1.00  0.00     0.276 C 
HETATM   12  N2  LIG X 999      45.438 131.164  15.668  1.00  0.00    -0.067 N 
HETATM   13  C13 LIG X 999      46.283 132.298  15.225  1.00  0.00     0.272 C 
HETATM   14  C14 LIG X 999      45.144 130.298  14.503  1.00  0.00     0.272 C 
HETATM   15  C15 LIG X 999      44.170 131.677  16.278  1.00  0.00     0.276 C 
ENDROOT
BRANCH  10  16
HETATM   16  N1  LIG X 999      44.623 130.232  24.044  1.00  0.00    -0.397 N 
HETATM   17  H8  LIG X 999      45.204 129.386  24.237  1.00  0.00     0.156 HD
HETATM   18  H9  LIG X 999      44.281 130.785  24.862  1.00  0.00     0.156 HD
ENDBRANCH  10  16
BRANCH   1  19
HETATM   19  O1  LIG X 999      42.310 131.742  23.516  1.00  0.00    -0.354 OA
HETATM   20  C1  LIG X 999      42.708 132.542  24.625  1.00  0.00     0.210 C 
ENDBRANCH   1  19
TORSDOF 2
ENDMDL
MODEL 4
REMARK VINA RESULT:      -5.2      1.459      1.788
REMARK  2 active torsions:
REMARK  status: ('A' for Active; 'I' for Inactive)
REMARK    1  A    between atoms: O1_2  and  C2_3 
REMARK    2  A    between atoms: C11_12  and  N1_13 
ROOT
HETATM    1  C2  LIG X 999      45.848 130.814  14.902  1.00  0.00     0.095 A 
HETATM    2  C3  LIG X 999      44.937 131.447  15.769  1.00  0.00     0.051 A 
HETATM    3  C4  LIG X 999      44.979 131.203  17.149  1.00  0.00    -0.023 A 
HETATM    4  C5  LIG X 999      44.069 131.838  18.017  1.00  0.00     0.021 A 
HETATM    5  C6  LIG X 999      44.145 131.562  19.384  1.00  0.00    -0.024 A 
HETATM    6  C7  LIG X 999      45.076 130.706  19.888  1.00  0.00    -0.024 A 
HETATM    7  C8  LIG X 999      46.000 130.062  19.062  1.00  0.00     0.021 A 
HETATM    8  C9  LIG X 999      45.951 130.309  17.676  1.00  0.00    -0.023 A 
HETATM    9  C10 LIG X 999      46.855 129.683  16.809  1.00  0.00     0.044 A 
HETATM   10  C11 LIG X 999      46.809 129.930  15.429  1.00  0.00     0.060 A 
HETATM   11  C12 LIG X 999      44.957 130.616  21.358  1.00  0.00     0.276 C 
HETATM   12  N2  LIG X 999      43.729 131.396  21.712  1.00  0.00    -0.067 N 
HETATM   13  C13 LIG X 999      42.649 130.476  22.142  1.00  0.00     0.272 C 
HETATM   14  C14 LIG X 999      44.013 132.351  22.808  1.00  0.00     0.272 C 
HETATM   15  C15 LIG X 999      43.315 132.125  20.470  1.00  0.00     0.276 C 
ENDROOT
BRANCH  10  16
HETATM   16  N1  LIG X 999      47.746 129.273  14.567  1.00  0.00    -0.397 N 
HETATM   17  H8  LIG X 999      48.279 129.799  13.839  1.00  0.00     0.156 HD
HETATM   18  H9  LIG X 999      47.918 128.246  14.650  1.00  0.00     0.156 HD
ENDBRANCH  10  16
BRANCH   1  19
HETATM   19  O1  LIG X 999      45.827 131.041  13.515  1.00  0.00    -0.354 OA
HETATM   20  C1  LIG X 999      46.987 131.176  12.699  1.00  0.00     0.210 C 
ENDBRANCH   1  19
TORSDOF 2
ENDMDL
MODEL 5
REMARK VINA RESULT:      -4.7      7.562      9.209
REMARK  2 active torsions:
REMARK  status: ('A' for Active; 'I' for Inactive)
REMARK    1  A    between atoms: O1_2  and  C2_3 
REMARK    2  A    between atoms: C11_12  and  N1_13 
ROOT
HETATM    1  C2  LIG X 999      41.432 125.296  23.002  1.00  0.00     0.095 A 
HETATM    2  C3  LIG X 999      42.754 125.695  23.282  1.00  0.00     0.051 A 
HETATM    3  C4  LIG X 999      43.839 124.907  22.872  1.00  0.00    -0.023 A 
HETATM    4  C5  LIG X 999      45.161 125.308  23.149  1.00  0.00     0.021 A 
HETATM    5  C6  LIG X 999      46.210 124.490  22.727  1.00  0.00    -0.024 A 
HETATM    6  C7  LIG X 999      45.982 123.329  22.053  1.00  0.00    -0.024 A 
HETATM    7  C8  LIG X 999      44.688 122.901  21.752  1.00  0.00     0.021 A 
HETATM    8  C9  LIG X 999      43.601 123.695  22.168  1.00  0.00    -0.023 A 
HETATM    9  C10 LIG X 999      42.286 123.303  21.893  1.00  0.00     0.044 A 
HETATM   10  C11 LIG X 999      41.203 124.094  22.304  1.00  0.00     0.060 A 
HETATM   11  C12 LIG X 999      47.259 122.675  21.698  1.00  0.00     0.276 C 
HETATM   12  N2  LIG X 999      48.326 123.480  22.373  1.00  0.00    -0.067 N 
HETATM   13  C13 LIG X 999      48.906 122.712  23.500  1.00  0.00     0.272 C 
HETATM   14  C14 LIG X 999      49.405 123.823  21.418  1.00  0.00     0.272 C 
HETATM   15  C15 LIG X 999      47.662 124.720  22.887  1.00  0.00     0.276 C 
ENDROOT
BRANCH  10  16
HETATM   16  N1  LIG X 999      39.868 123.667  22.009  1.00  0.00    -0.397 N 
HETATM   17  H8  LIG X 999      39.680 122.889  21.339  1.00  0.00     0.156 HD
HETATM   18  H9  LIG X 999      39.048 124.127  22.464  1.00  0.00     0.156 HD
ENDBRANCH  10  16
BRANCH   1  19
HETATM   19  O1  LIG X 999      40.328 126.067  23.402  1.00  0.00    -0.354 OA
HETATM   20  C1  LIG X 999      40.351 127.478  23.590  1.00  0.00     0.210 C 
ENDBRANCH   1  19
TORSDOF 2
ENDMDL
