REMARK VINA RESULT:      -5.5      9.177     10.428
REMARK  2 active torsions:
REMARK  status: ('A' for Active; 'I' for Inactive)
REMARK    1  A    between atoms: N1_1  and  C1_2 
REMARK    2  A    between atoms: C2_5  and  C3_6 
ROOT
HETATM    1  C3  LIG X 999      51.481 136.858  22.966  1.00  0.00     0.030 A 
HETATM    2  C4  LIG X 999      52.335 137.746  23.644  1.00  0.00     0.017 A 
HETATM    3  C5  LIG X 999      52.311 139.113  23.374  1.00  0.00     0.002 A 
HETATM    4  C6  LIG X 999      51.436 139.624  22.419  1.00  0.00     0.012 A 
HETATM    5  C7  LIG X 999      50.591 138.767  21.704  1.00  0.00    -0.025 A 
HETATM    6  C8  LIG X 999      49.732 139.293  20.726  1.00  0.00     0.012 A 
HETATM    7  C9  LIG X 999      48.912 138.448  19.980  1.00  0.00     0.001 A 
HETATM    8  C10 LIG X 999      48.950 137.071  20.193  1.00  0.00     0.001 A 
HETATM    9  C11 LIG X 999      49.796 136.529  21.164  1.00  0.00     0.013 A 
HETATM   10  C12 LIG X 999      50.613 137.366  21.957  1.00  0.00    -0.011 A 
ENDROOT
BRANCH   1  11
HETATM   11  C2  LIG X 999      51.509 135.433  23.374  1.00  0.00     0.205 A 
HETATM   12  N3  LIG X 999      52.626 134.675  23.385  1.00  0.00    -0.119 NA
HETATM   13  N2  LIG X 999      52.269 133.482  23.835  1.00  0.00    -0.103 NA
HETATM   14  C1  LIG X 999      50.951 133.565  24.086  1.00  0.00     0.265 A 
HETATM   15  O1  LIG X 999      50.475 134.754  23.813  1.00  0.00    -0.255 OA
BRANCH  14  16
HETATM   16  N1  LIG X 999      50.169 132.488  24.592  1.00  0.00    -0.362 N 
HETATM   17  H1  LIG X 999      50.502 131.940  25.416  1.00  0.00     0.159 HD
HETATM   18  H2  LIG X 999      49.259 132.241  24.144  1.00  0.00     0.159 HD
ENDBRANCH  14  16
ENDBRANCH   1  11
TORSDOF 2
