REMARK VINA RESULT:      -7.8      4.244      6.186
REMARK  2 active torsions:
REMARK  status: ('A' for Active; 'I' for Inactive)
REMARK    1  A    between atoms: C1_1  and  N1_2 
REMARK    2  A    between atoms: C2_5  and  C3_7 
ROOT
HETATM    1  N1  LIG X 999      44.640 131.241  21.673  1.00  0.00    -0.082 NA
HETATM    2  N2  LIG X 999      44.442 130.243  22.366  1.00  0.00    -0.163 NA
HETATM    3  N3  LIG X 999      44.244 129.247  23.058  1.00  0.00     0.068 N 
ENDROOT
BRANCH   1   4
HETATM    4  C1  LIG X 999      45.056 131.110  20.314  1.00  0.00     0.196 C 
HETATM    5  C2  LIG X 999      44.193 131.348  19.318  1.00  0.00     0.137 C 
HETATM    6  O1  LIG X 999      42.883 131.697  19.632  1.00  0.00    -0.190 OA
BRANCH   5   7
HETATM    7  C3  LIG X 999      44.580 131.230  17.888  1.00  0.00     0.003 A 
HETATM    8  C4  LIG X 999      43.737 131.772  16.903  1.00  0.00     0.015 A 
HETATM    9  C5  LIG X 999      44.071 131.688  15.550  1.00  0.00     0.013 A 
HETATM   10  C6  LIG X 999      45.263 131.067  15.154  1.00  0.00    -0.026 A 
HETATM   11  C7  LIG X 999      45.609 130.978  13.797  1.00  0.00     0.012 A 
HETATM   12  C11 LIG X 999      46.130 130.529  16.135  1.00  0.00    -0.025 A 
HETATM   13  C8  LIG X 999      46.804 130.362  13.416  1.00  0.00     0.001 A 
HETATM   14  C9  LIG X 999      47.662 129.833  14.383  1.00  0.00     0.001 A 
HETATM   15  C10 LIG X 999      47.330 129.916  15.739  1.00  0.00     0.012 A 
HETATM   16  C12 LIG X 999      45.786 130.617  17.493  1.00  0.00     0.026 A 
ENDBRANCH   5   7
ENDBRANCH   1   4
TORSDOF 2
