REMARK VINA RESULT:      -5.9      2.065      6.658
REMARK  1 active torsions:
REMARK  status: ('A' for Active; 'I' for Inactive)
REMARK    1  A    between atoms: C3_3  and  N1_4 
ROOT
HETATM    1  N1  LIG X 999      41.816 132.918  20.082  1.00  0.00    -0.072 NA
HETATM    2  N2  LIG X 999      41.042 133.327  20.949  1.00  0.00    -0.162 NA
HETATM    3  N3  LIG X 999      40.270 133.739  21.814  1.00  0.00     0.068 N 
ENDROOT
BRANCH   1   4
HETATM    4  C3  LIG X 999      43.007 132.184  20.405  1.00  0.00     0.104 A 
HETATM    5  C2  LIG X 999      43.292 131.986  21.762  1.00  0.00     0.035 A 
HETATM    6  C1  LIG X 999      44.388 131.221  22.160  1.00  0.00     0.003 A 
HETATM    7  C10 LIG X 999      45.229 130.648  21.208  1.00  0.00     0.012 A 
HETATM    8  C9  LIG X 999      45.000 130.861  19.842  1.00  0.00    -0.023 A 
HETATM    9  C4  LIG X 999      43.887 131.657  19.422  1.00  0.00     0.006 A 
HETATM   10  C8  LIG X 999      45.878 130.309  18.890  1.00  0.00     0.021 A 
HETATM   11  C5  LIG X 999      43.730 131.926  18.041  1.00  0.00     0.024 A 
HETATM   12  C6  LIG X 999      44.629 131.365  17.133  1.00  0.00    -0.023 A 
HETATM   13  C7  LIG X 999      45.659 130.579  17.541  1.00  0.00    -0.024 A 
HETATM   14  C14 LIG X 999      44.633 131.503  15.660  1.00  0.00     0.276 C 
HETATM   15  C11 LIG X 999      46.449 130.111  16.383  1.00  0.00     0.276 C 
HETATM   16  N4  LIG X 999      45.881 130.821  15.193  1.00  0.00    -0.067 N 
HETATM   17  C12 LIG X 999      45.577 129.860  14.108  1.00  0.00     0.272 C 
HETATM   18  C13 LIG X 999      46.850 131.824  14.690  1.00  0.00     0.272 C 
ENDBRANCH   1   4
TORSDOF 1
