REMARK VINA RESULT:      -5.6      6.499      8.411
REMARK  7 active torsions:
REMARK  status: ('A' for Active; 'I' for Inactive)
REMARK    1  A    between atoms: O1_2  and  C1_3 
REMARK    2  A    between atoms: C1_3  and  O2_18 
REMARK    3  A    between atoms: N1_4  and  C2_5 
REMARK    4  A    between atoms: C3_6  and  N2_7 
REMARK    5  A    between atoms: O2_18  and  C12_19 
REMARK    6  A    between atoms: C12_19  and  C14_21 
REMARK    7  A    between atoms: C14_21  and  O3_22 
ROOT
HETATM    1  N2  LIG X 999      44.300 128.067  23.997  1.00  0.00    -0.070 NA
HETATM    2  N3  LIG X 999      44.326 129.169  23.447  1.00  0.00    -0.162 NA
HETATM    3  N4  LIG X 999      44.360 130.270  22.900  1.00  0.00     0.068 N 
ENDROOT
BRANCH   1   4
HETATM    4  C3  LIG X 999      43.522 126.967  23.504  1.00  0.00     0.122 A 
HETATM    5  C2  LIG X 999      44.064 125.935  22.693  1.00  0.00     0.094 A 
HETATM    6  C11 LIG X 999      43.272 124.830  22.357  1.00  0.00     0.046 A 
HETATM    7  C10 LIG X 999      41.931 124.763  22.756  1.00  0.00    -0.024 A 
HETATM    8  C5  LIG X 999      41.373 125.818  23.512  1.00  0.00    -0.024 A 
HETATM    9  C9  LIG X 999      41.133 123.663  22.402  1.00  0.00     0.012 A 
HETATM   10  C4  LIG X 999      42.172 126.911  23.875  1.00  0.00     0.049 A 
HETATM   11  C6  LIG X 999      40.025 125.756  23.901  1.00  0.00     0.012 A 
HETATM   12  C7  LIG X 999      39.240 124.656  23.543  1.00  0.00     0.001 A 
HETATM   13  C8  LIG X 999      39.793 123.612  22.796  1.00  0.00     0.001 A 
BRANCH   5  14
HETATM   14  N1  LIG X 999      45.397 125.985  22.167  1.00  0.00    -0.200 NA
HETATM   15  C1  LIG X 999      46.470 125.762  22.866  1.00  0.00     0.285 C 
BRANCH  15  16
HETATM   16  O1  LIG X 999      46.372 125.450  24.219  1.00  0.00    -0.325 OA
HETATM   17  H1  LIG X 999      46.739 126.080  24.922  1.00  0.00     0.221 HD
ENDBRANCH  15  16
BRANCH  15  18
HETATM   18  O2  LIG X 999      47.745 125.841  22.284  1.00  0.00    -0.308 OA
BRANCH  18  19
HETATM   19  C12 LIG X 999      48.681 124.766  22.106  1.00  0.00     0.152 C 
HETATM   20  C13 LIG X 999      49.515 124.501  23.366  1.00  0.00     0.042 C 
BRANCH  19  21
HETATM   21  C14 LIG X 999      48.009 123.500  21.547  1.00  0.00     0.199 C 
BRANCH  21  22
HETATM   22  O3  LIG X 999      48.072 123.474  20.137  1.00  0.00    -0.393 OA
HETATM   23  C15 LIG X 999      49.381 123.143  19.731  1.00  0.00     0.201 C 
ENDBRANCH  21  22
ENDBRANCH  19  21
ENDBRANCH  18  19
ENDBRANCH  15  18
ENDBRANCH   5  14
ENDBRANCH   1   4
TORSDOF 7
