REMARK VINA RESULT:      -6.4      1.488      2.047
REMARK  5 active torsions:
REMARK  status: ('A' for Active; 'I' for Inactive)
REMARK    1  A    between atoms: C1_1  and  N1_2 
REMARK    2  A    between atoms: C2_5  and  O1_6 
REMARK    3  A    between atoms: C2_5  and  C5_12 
REMARK    4  A    between atoms: O1_6  and  C3_7 
REMARK    5  A    between atoms: C3_7  and  C4_9 
ROOT
HETATM    1  N1  LIG X 999      45.393 130.457  21.047  1.00  0.00    -0.082 NA
HETATM    2  N2  LIG X 999      45.410 131.412  21.823  1.00  0.00    -0.163 NA
HETATM    3  N3  LIG X 999      45.428 132.366  22.599  1.00  0.00     0.068 N 
ENDROOT
BRANCH   1   4
HETATM    4  C1  LIG X 999      45.911 130.589  19.723  1.00  0.00     0.193 C 
HETATM    5  C2  LIG X 999      45.086 130.809  18.693  1.00  0.00     0.101 C 
BRANCH   5   6
HETATM    6  O1  LIG X 999      43.712 130.947  18.940  1.00  0.00    -0.324 OA
BRANCH   6   7
HETATM    7  C3  LIG X 999      43.035 132.193  19.152  1.00  0.00     0.273 C 
HETATM    8 CL1  LIG X 999      41.713 132.477  17.980  1.00  0.00    -0.090 Cl
BRANCH   7   9
HETATM    9  C4  LIG X 999      42.551 132.352  20.602  1.00  0.00     0.309 C 
HETATM   10  F1  LIG X 999      42.332 131.108  21.162  1.00  0.00    -0.229 F 
HETATM   11 CL2  LIG X 999      41.058 133.325  20.736  1.00  0.00    -0.086 Cl
ENDBRANCH   7   9
ENDBRANCH   6   7
ENDBRANCH   5   6
BRANCH   5  12
HETATM   12  C5  LIG X 999      45.626 130.973  17.324  1.00  0.00    -0.000 A 
HETATM   13  C6  LIG X 999      45.383 132.165  16.622  1.00  0.00     0.015 A 
HETATM   14  C7  LIG X 999      45.882 132.342  15.329  1.00  0.00     0.013 A 
HETATM   15  C8  LIG X 999      46.634 131.329  14.718  1.00  0.00    -0.026 A 
HETATM   16  C9  LIG X 999      47.137 131.496  13.418  1.00  0.00     0.012 A 
HETATM   17  C13 LIG X 999      46.888 130.125  15.419  1.00  0.00    -0.025 A 
HETATM   18  C10 LIG X 999      47.885 130.478  12.820  1.00  0.00     0.001 A 
HETATM   19  C11 LIG X 999      48.135 129.290  13.512  1.00  0.00     0.001 A 
HETATM   20  C12 LIG X 999      47.641 129.111  14.806  1.00  0.00     0.012 A 
HETATM   21  C14 LIG X 999      46.385 129.957  16.718  1.00  0.00     0.026 A 
ENDBRANCH   5  12
ENDBRANCH   1   4
TORSDOF 5
