REMARK VINA RESULT:      -8.7      0.000      0.000
REMARK  3 active torsions:
REMARK  status: ('A' for Active; 'I' for Inactive)
REMARK    1  A    between atoms: C6_6  and  C7_7 
REMARK    2  A    between atoms: C7_7  and  N1_8 
REMARK    3  A    between atoms: C8_12  and  N4_13 
ROOT
HETATM    1  N1  LIG X 999      45.037 131.832  15.208  1.00  0.00    -0.065 NA
HETATM    2  N2  LIG X 999      44.041 131.726  14.490  1.00  0.00    -0.164 NA
HETATM    3  N3  LIG X 999      43.048 131.621  13.774  1.00  0.00     0.068 N 
ENDROOT
BRANCH   1   4
HETATM    4  C7  LIG X 999      45.242 130.926  16.331  1.00  0.00     0.267 A 
HETATM    5  O1  LIG X 999      46.605 130.619  16.514  1.00  0.00    -0.314 OA
HETATM    6  C8  LIG X 999      45.780 129.570  16.052  1.00  0.00     0.349 A 
BRANCH   4   7
HETATM    7  C6  LIG X 999      44.519 131.200  17.616  1.00  0.00     0.007 A 
HETATM    8  C5  LIG X 999      45.167 131.014  18.846  1.00  0.00     0.024 A 
HETATM    9  C4  LIG X 999      44.496 131.295  20.047  1.00  0.00    -0.025 A 
HETATM   10  C3  LIG X 999      45.134 131.107  21.284  1.00  0.00     0.012 A 
HETATM   11  C11 LIG X 999      43.165 131.776  20.011  1.00  0.00    -0.026 A 
HETATM   12  C2  LIG X 999      44.456 131.390  22.473  1.00  0.00     0.001 A 
HETATM   13  C1  LIG X 999      43.142 131.864  22.437  1.00  0.00     0.001 A 
HETATM   14  C12 LIG X 999      42.496 132.058  21.213  1.00  0.00     0.012 A 
HETATM   15  C10 LIG X 999      42.529 131.970  18.776  1.00  0.00     0.013 A 
HETATM   16  C9  LIG X 999      43.206 131.687  17.586  1.00  0.00     0.013 A 
ENDBRANCH   4   7
BRANCH   6  17
HETATM   17  N4  LIG X 999      46.078 129.267  14.660  1.00  0.00    -0.077 NA
HETATM   18  N5  LIG X 999      47.226 129.363  14.229  1.00  0.00    -0.165 NA
HETATM   19  N6  LIG X 999      48.374 129.461  13.799  1.00  0.00     0.068 N 
ENDBRANCH   6  17
ENDBRANCH   1   4
TORSDOF 3
