REMARK VINA RESULT:      -7.7      1.812      6.065
REMARK  2 active torsions:
REMARK  status: ('A' for Active; 'I' for Inactive)
REMARK    1  A    between atoms: C3_3  and  S1_4 
REMARK    2  A    between atoms: S1_4  and  C4_5 
ROOT
HETATM    1  C1  LIG X 999      42.492 131.903  23.787  1.00  0.00     0.013 C 
HETATM    2  C2  LIG X 999      42.893 131.547  22.707  1.00  0.00    -0.107 C 
HETATM    3  C3  LIG X 999      43.383 131.117  21.395  1.00  0.00     0.172 C 
ENDROOT
BRANCH   3   4
HETATM    4  S1  LIG X 999      42.762 132.233  20.092  1.00  0.00    -0.118 SA
BRANCH   4   5
HETATM    5  C4  LIG X 999      43.887 131.635  18.826  1.00  0.00     0.002 A 
HETATM    6  C5  LIG X 999      45.074 130.991  19.194  1.00  0.00     0.019 A 
HETATM    7  C6  LIG X 999      45.955 130.522  18.216  1.00  0.00     0.013 A 
HETATM    8  C7  LIG X 999      45.653 130.690  16.857  1.00  0.00    -0.026 A 
HETATM    9  C8  LIG X 999      46.530 130.226  15.865  1.00  0.00     0.012 A 
HETATM   10  C12 LIG X 999      44.448 131.335  16.481  1.00  0.00    -0.025 A 
HETATM   11  C9  LIG X 999      46.217 130.399  14.513  1.00  0.00     0.001 A 
HETATM   12  C10 LIG X 999      45.029 131.036  14.144  1.00  0.00     0.001 A 
HETATM   13  C11 LIG X 999      44.145 131.504  15.121  1.00  0.00     0.012 A 
HETATM   14  C13 LIG X 999      43.571 131.800  17.473  1.00  0.00     0.030 A 
ENDBRANCH   4   5
ENDBRANCH   3   4
TORSDOF 2
