REMARK VINA RESULT:      -5.2      7.674     10.116
REMARK  4 active torsions:
REMARK  status: ('A' for Active; 'I' for Inactive)
REMARK    1  A    between atoms: C2_2  and  C3_3 
REMARK    2  A    between atoms: C3_3  and  C5_5 
REMARK       I    between atoms: C5_5  and  N1_7 
REMARK    3  A    between atoms: N1_7  and  C6_8 
REMARK    4  A    between atoms: C7_9  and  O2_10 
ROOT
HETATM    1  C6  LIG X 999      42.544 124.762  23.482  1.00  0.00     0.104 A 
HETATM    2  C7  LIG X 999      43.513 124.144  22.663  1.00  0.00     0.098 A 
HETATM    3  C9  LIG X 999      43.184 122.970  21.961  1.00  0.00     0.040 A 
HETATM    4  C10 LIG X 999      41.922 122.393  22.096  1.00  0.00     0.015 A 
HETATM    5  C11 LIG X 999      40.966 122.970  22.939  1.00  0.00    -0.024 A 
HETATM    6  C12 LIG X 999      39.702 122.375  23.086  1.00  0.00     0.012 A 
HETATM    7  C13 LIG X 999      38.749 122.951  23.927  1.00  0.00     0.001 A 
HETATM    8  C14 LIG X 999      39.045 124.122  24.625  1.00  0.00     0.001 A 
HETATM    9  C15 LIG X 999      40.297 124.727  24.487  1.00  0.00     0.014 A 
HETATM   10  C16 LIG X 999      41.275 124.159  23.645  1.00  0.00     0.006 A 
ENDROOT
BRANCH   1  11
HETATM   11  N1  LIG X 999      42.853 125.964  24.206  1.00  0.00    -0.210 NA
HETATM   12  C5  LIG X 999      42.357 127.271  23.892  1.00  0.00     0.247 C 
HETATM   13  O1  LIG X 999      41.412 127.414  23.069  1.00  0.00    -0.271 OA
BRANCH  12  14
HETATM   14  C3  LIG X 999      42.918 128.477  24.599  1.00  0.00     0.076 C 
HETATM   15  C4  LIG X 999      44.448 128.407  24.606  1.00  0.00     0.020 C 
BRANCH  14  16
HETATM   16  C2  LIG X 999      42.437 129.789  23.947  1.00  0.00     0.009 C 
HETATM   17  C1  LIG X 999      43.394 130.284  22.863  1.00  0.00     0.006 C 
ENDBRANCH  14  16
ENDBRANCH  12  14
ENDBRANCH   1  11
BRANCH   2  18
HETATM   18  O2  LIG X 999      44.800 124.703  22.591  1.00  0.00    -0.354 OA
HETATM   19  C8  LIG X 999      45.996 123.963  22.367  1.00  0.00     0.210 C 
ENDBRANCH   2  18
TORSDOF 4
