REMARK VINA RESULT:      -5.9      7.528     10.158
REMARK  4 active torsions:
REMARK  status: ('A' for Active; 'I' for Inactive)
REMARK    1  A    between atoms: C2_2  and  C3_3 
REMARK    2  A    between atoms: C3_3  and  C5_5 
REMARK       I    between atoms: C5_5  and  N1_7 
REMARK    3  A    between atoms: N1_7  and  C6_8 
REMARK    4  A    between atoms: C7_9  and  O2_10 
ROOT
HETATM    1  C6  LIG X 999      43.616 125.637  23.442  1.00  0.00     0.104 A 
HETATM    2  C7  LIG X 999      43.717 127.042  23.351  1.00  0.00     0.098 A 
HETATM    3  C9  LIG X 999      44.857 127.620  22.763  1.00  0.00     0.040 A 
HETATM    4  C10 LIG X 999      45.901 126.820  22.301  1.00  0.00     0.015 A 
HETATM    5  C11 LIG X 999      45.833 125.429  22.424  1.00  0.00    -0.024 A 
HETATM    6  C12 LIG X 999      46.895 124.627  21.974  1.00  0.00     0.012 A 
HETATM    7  C13 LIG X 999      46.828 123.238  22.097  1.00  0.00     0.001 A 
HETATM    8  C14 LIG X 999      45.704 122.638  22.666  1.00  0.00     0.001 A 
HETATM    9  C15 LIG X 999      44.639 123.422  23.116  1.00  0.00     0.014 A 
HETATM   10  C16 LIG X 999      44.689 124.827  23.004  1.00  0.00     0.006 A 
ENDROOT
BRANCH   1  11
HETATM   11  N1  LIG X 999      42.462 125.021  24.035  1.00  0.00    -0.210 NA
HETATM   12  C5  LIG X 999      41.281 124.621  23.328  1.00  0.00     0.247 C 
HETATM   13  O1  LIG X 999      41.275 124.581  22.067  1.00  0.00    -0.271 OA
BRANCH  12  14
HETATM   14  C3  LIG X 999      40.062 124.178  24.092  1.00  0.00     0.076 C 
HETATM   15  C4  LIG X 999      38.961 125.237  23.970  1.00  0.00     0.020 C 
BRANCH  14  16
HETATM   16  C2  LIG X 999      39.554 122.807  23.602  1.00  0.00     0.009 C 
HETATM   17  C1  LIG X 999      38.271 122.375  24.312  1.00  0.00     0.006 C 
ENDBRANCH  14  16
ENDBRANCH  12  14
ENDBRANCH   1  11
BRANCH   2  18
HETATM   18  O2  LIG X 999      42.686 127.834  23.882  1.00  0.00    -0.354 OA
HETATM   19  C8  LIG X 999      42.525 129.229  23.639  1.00  0.00     0.210 C 
ENDBRANCH   2  18
TORSDOF 4
