REMARK VINA RESULT:      -3.6      4.914      6.561
REMARK  2 active torsions:
REMARK  status: ('A' for Active; 'I' for Inactive)
REMARK    1  A    between atoms: C4_4  and  O1_5 
REMARK    2  A    between atoms: C10_11  and  N1_12 
ROOT
HETATM    1  N1  LIG X 999      40.621 127.315  22.982  1.00  0.00    -0.072 NA
HETATM    2  N2  LIG X 999      39.712 127.121  23.791  1.00  0.00    -0.162 NA
HETATM    3  N3  LIG X 999      38.805 126.928  24.598  1.00  0.00     0.068 N 
ENDROOT
BRANCH   1   4
HETATM    4  C10 LIG X 999      41.858 127.941  23.352  1.00  0.00     0.101 C 
HETATM    5  C9  LIG X 999      43.041 127.175  23.256  1.00  0.00     0.007 C 
HETATM    6  C8  LIG X 999      44.337 127.642  23.084  1.00  0.00    -0.022 C 
HETATM    7  C12 LIG X 999      43.081 125.705  23.489  1.00  0.00     0.278 C 
HETATM    8  C7  LIG X 999      44.724 128.926  22.677  1.00  0.00     0.012 C 
HETATM    9  C15 LIG X 999      45.294 126.584  23.479  1.00  0.00     0.276 C 
HETATM   10  C6  LIG X 999      43.944 129.695  21.805  1.00  0.00     0.037 C 
HETATM   11  C4  LIG X 999      43.734 131.078  21.974  1.00  0.00     0.068 C 
HETATM   12  C3  LIG X 999      43.697 131.697  23.240  1.00  0.00     0.037 C 
HETATM   13  C2  LIG X 999      43.432 131.065  24.470  1.00  0.00     0.003 C 
HETATM   14  C1  LIG X 999      42.817 129.816  24.625  1.00  0.00     0.002 C 
HETATM   15  C11 LIG X 999      41.880 129.300  23.718  1.00  0.00     0.035 C 
HETATM   16  N4  LIG X 999      44.521 125.310  23.454  1.00  0.00    -0.067 N 
HETATM   17  C13 LIG X 999      44.867 124.462  24.618  1.00  0.00     0.272 C 
HETATM   18  C14 LIG X 999      44.813 124.563  22.207  1.00  0.00     0.272 C 
BRANCH  11  19
HETATM   19  O1  LIG X 999      43.511 131.906  20.863  1.00  0.00    -0.356 OA
HETATM   20  C5  LIG X 999      44.268 131.858  19.658  1.00  0.00     0.210 C 
ENDBRANCH  11  19
ENDBRANCH   1   4
TORSDOF 2
