REMARK VINA RESULT:      -8.4      2.044      6.633
REMARK  1 active torsions:
REMARK  status: ('A' for Active; 'I' for Inactive)
REMARK    1  A    between atoms: C2_2  and  N1_3 
ROOT
HETATM    1  N1  LIG X 999      43.876 131.397  23.548  1.00  0.00    -0.073 NA
HETATM    2  N2  LIG X 999      44.247 130.353  24.087  1.00  0.00    -0.162 NA
HETATM    3  N3  LIG X 999      44.618 129.311  24.625  1.00  0.00     0.068 N 
ENDROOT
BRANCH   1   4
HETATM    4  C2  LIG X 999      43.735 131.519  22.126  1.00  0.00     0.094 A 
HETATM    5  C1  LIG X 999      42.605 132.120  21.543  1.00  0.00     0.035 A 
HETATM    6  C10 LIG X 999      42.493 132.227  20.154  1.00  0.00     0.014 A 
HETATM    7  C9  LIG X 999      43.508 131.733  19.325  1.00  0.00    -0.025 A 
HETATM    8  C4  LIG X 999      44.657 131.122  19.908  1.00  0.00    -0.023 A 
HETATM    9  C8  LIG X 999      43.404 131.836  17.923  1.00  0.00     0.030 A 
HETATM   10  C3  LIG X 999      44.755 131.023  21.304  1.00  0.00     0.046 A 
HETATM   11  C5  LIG X 999      45.685 130.623  19.081  1.00  0.00     0.022 A 
HETATM   12  C6  LIG X 999      45.546 130.743  17.697  1.00  0.00    -0.015 A 
HETATM   13  C7  LIG X 999      44.445 131.329  17.148  1.00  0.00     0.049 A 
HETATM   14  C14 LIG X 999      46.495 130.292  16.631  1.00  0.00     0.286 A 
HETATM   15  C11 LIG X 999      44.613 131.292  15.720  1.00  0.00     0.351 A 
HETATM   16  O1  LIG X 999      43.771 131.753  14.900  1.00  0.00    -0.259 OA
HETATM   17  N4  LIG X 999      45.854 130.668  15.328  1.00  0.00    -0.005 N 
HETATM   18  C12 LIG X 999      46.688 131.631  14.578  1.00  0.00     0.283 C 
HETATM   19  C13 LIG X 999      45.578 129.472  14.503  1.00  0.00     0.283 C 
ENDBRANCH   1   4
TORSDOF 1
