REMARK VINA RESULT:      -6.3      1.735      2.923
REMARK  6 active torsions:
REMARK  status: ('A' for Active; 'I' for Inactive)
REMARK    1  A    between atoms: S1_2  and  C1_3 
REMARK    2  A    between atoms: C1_3  and  N2_14 
REMARK    3  A    between atoms: N1_4  and  C2_5 
REMARK    4  A    between atoms: C3_6  and  C4_7 
REMARK    5  A    between atoms: C4_7  and  O2_9 
REMARK    6  A    between atoms: N2_14  and  C8_16 
ROOT
HETATM    1  C1  LIG X 999      43.765 130.586  23.854  1.00  0.00     0.164 C 
HETATM    2  N1  LIG X 999      43.439 129.400  24.279  1.00  0.00    -0.224 NA
ENDROOT
BRANCH   1   3
HETATM    3  S1  LIG X 999      43.004 132.011  24.616  1.00  0.00    -0.105 SA
HETATM    4  H1  LIG X 999      42.273 132.306  23.450  1.00  0.00     0.110 HD
ENDBRANCH   1   3
BRANCH   1   5
HETATM    5  N2  LIG X 999      44.731 130.791  22.811  1.00  0.00    -0.336 N 
HETATM    6  H7  LIG X 999      45.737 130.640  23.050  1.00  0.00     0.168 HD
BRANCH   5   7
HETATM    7  C8  LIG X 999      44.385 131.040  21.436  1.00  0.00     0.034 A 
HETATM    8  C9  LIG X 999      43.151 131.615  21.084  1.00  0.00     0.030 A 
HETATM    9  C10 LIG X 999      42.844 131.872  19.745  1.00  0.00     0.014 A 
HETATM   10  C11 LIG X 999      43.759 131.546  18.736  1.00  0.00    -0.026 A 
HETATM   11  C12 LIG X 999      43.463 131.804  17.389  1.00  0.00     0.012 A 
HETATM   12  C16 LIG X 999      44.996 130.948  19.079  1.00  0.00    -0.024 A 
HETATM   13  C13 LIG X 999      44.383 131.472  16.391  1.00  0.00     0.001 A 
HETATM   14  C14 LIG X 999      45.604 130.881  16.730  1.00  0.00     0.001 A 
HETATM   15  C15 LIG X 999      45.912 130.619  18.068  1.00  0.00     0.012 A 
HETATM   16  C17 LIG X 999      45.295 130.693  20.425  1.00  0.00     0.041 A 
ENDBRANCH   5   7
ENDBRANCH   1   5
BRANCH   2  17
HETATM   17  C2  LIG X 999      43.851 128.148  23.709  1.00  0.00     0.083 A 
HETATM   18  C3  LIG X 999      42.971 127.087  23.505  1.00  0.00     0.108 A 
HETATM   19  S2  LIG X 999      43.827 125.833  22.778  1.00  0.00    -0.093 SA
HETATM   20  C6  LIG X 999      45.306 126.628  22.692  1.00  0.00     0.053 A 
HETATM   21  C7  LIG X 999      45.151 127.895  23.236  1.00  0.00     0.040 A 
BRANCH  18  22
HETATM   22  C4  LIG X 999      41.553 127.026  23.891  1.00  0.00     0.302 C 
HETATM   23  O1  LIG X 999      40.774 127.957  23.551  1.00  0.00    -0.259 OA
BRANCH  22  24
HETATM   24  O2  LIG X 999      41.074 125.936  24.624  1.00  0.00    -0.322 OA
HETATM   25  C5  LIG X 999      40.109 125.028  24.108  1.00  0.00     0.213 C 
ENDBRANCH  22  24
ENDBRANCH  18  22
ENDBRANCH   2  17
TORSDOF 6
