REMARK VINA RESULT:      -8.2      0.000      0.000
REMARK  1 active torsions:
REMARK  status: ('A' for Active; 'I' for Inactive)
REMARK    1  A    between atoms: C10_11  and  N2_12 
ROOT
HETATM    1  C1  LIG X 999      45.183 129.446  14.961  1.00  0.00     0.272 C 
HETATM    2  N1  LIG X 999      45.667 130.662  15.656  1.00  0.00    -0.067 N 
HETATM    3  C2  LIG X 999      46.581 131.401  14.756  1.00  0.00     0.272 C 
HETATM    4  C3  LIG X 999      46.367 130.282  16.924  1.00  0.00     0.276 C 
HETATM    5  C4  LIG X 999      45.466 130.704  18.018  1.00  0.00    -0.024 A 
HETATM    6  C5  LIG X 999      45.624 130.490  19.384  1.00  0.00     0.021 A 
HETATM    7  C6  LIG X 999      44.655 131.006  20.268  1.00  0.00    -0.023 A 
HETATM    8  C7  LIG X 999      44.802 130.809  21.648  1.00  0.00     0.012 A 
HETATM    9  C8  LIG X 999      43.859 131.323  22.534  1.00  0.00     0.003 A 
HETATM   10  C9  LIG X 999      42.757 132.031  22.056  1.00  0.00     0.030 A 
HETATM   11  C10 LIG X 999      42.571 132.241  20.681  1.00  0.00     0.036 A 
HETATM   12  C11 LIG X 999      43.532 131.736  19.763  1.00  0.00     0.001 A 
HETATM   13  C12 LIG X 999      43.432 131.941  18.364  1.00  0.00     0.024 A 
HETATM   14  C13 LIG X 999      44.411 131.405  17.527  1.00  0.00    -0.023 A 
HETATM   15  C14 LIG X 999      44.507 131.521  16.055  1.00  0.00     0.276 C 
ENDROOT
BRANCH  11  16
HETATM   16  N2  LIG X 999      41.398 132.956  20.259  1.00  0.00    -0.398 N 
HETATM   17  H13 LIG X 999      40.582 133.139  20.879  1.00  0.00     0.156 HD
HETATM   18  H14 LIG X 999      41.362 133.389  19.309  1.00  0.00     0.156 HD
ENDBRANCH  11  16
TORSDOF 1
