REMARK VINA RESULT:      -5.8      1.648      2.472
REMARK  4 active torsions:
REMARK  status: ('A' for Active; 'I' for Inactive)
REMARK    1  A    between atoms: C1_2  and  C2_4 
REMARK    2  A    between atoms: C8_10  and  C9_11 
REMARK       I    between atoms: C9_11  and  N1_13 
REMARK    3  A    between atoms: N1_13  and  S1_14 
REMARK    4  A    between atoms: S1_14  and  C10_17 
ROOT
HETATM    1  C9  LIG X 999      44.610 127.176  24.197  1.00  0.00     0.259 C 
HETATM    2  O3  LIG X 999      43.419 127.048  24.592  1.00  0.00    -0.270 OA
HETATM    3  N1  LIG X 999      45.036 128.399  23.594  1.00  0.00    -0.122 NA
ENDROOT
BRANCH   3   4
HETATM    4  S1  LIG X 999      44.056 129.825  23.616  1.00  0.00     0.286 S 
HETATM    5  O4  LIG X 999      44.597 130.800  24.624  1.00  0.00    -0.198 OA
HETATM    6  O5  LIG X 999      42.653 129.458  24.010  1.00  0.00    -0.198 OA
BRANCH   4   7
HETATM    7  C10 LIG X 999      44.048 130.534  22.005  1.00  0.00     0.082 A 
HETATM    8  C11 LIG X 999      43.042 131.441  21.647  1.00  0.00     0.026 A 
HETATM    9  C12 LIG X 999      42.990 131.966  20.354  1.00  0.00     0.014 A 
HETATM   10  C13 LIG X 999      43.944 131.583  19.399  1.00  0.00    -0.026 A 
HETATM   11  C14 LIG X 999      43.897 132.097  18.094  1.00  0.00     0.012 A 
HETATM   12  C18 LIG X 999      44.961 130.664  19.754  1.00  0.00    -0.025 A 
HETATM   13  C15 LIG X 999      44.850 131.703  17.150  1.00  0.00     0.001 A 
HETATM   14  C16 LIG X 999      45.853 130.795  17.500  1.00  0.00     0.001 A 
HETATM   15  C17 LIG X 999      45.911 130.275  18.797  1.00  0.00     0.012 A 
HETATM   16  C19 LIG X 999      45.005 130.146  21.057  1.00  0.00     0.037 A 
ENDBRANCH   4   7
ENDBRANCH   3   4
BRANCH   1  17
HETATM   17  C8  LIG X 999      45.623 126.075  24.416  1.00  0.00     0.099 C 
HETATM   18  C2  LIG X 999      45.194 124.678  23.867  1.00  0.00     0.104 C 
HETATM   19  C3  LIG X 999      46.343 124.340  22.883  1.00  0.00     0.001 C 
HETATM   20  C4  LIG X 999      47.602 124.000  23.704  1.00  0.00     0.006 C 
HETATM   21  C7  LIG X 999      46.717 125.694  22.323  1.00  0.00     0.011 C 
HETATM   22  C5  LIG X 999      48.027 125.371  24.259  1.00  0.00     0.006 C 
HETATM   23  C6  LIG X 999      46.964 126.323  23.677  1.00  0.00    -0.000 C 
BRANCH  18  24
HETATM   24  C1  LIG X 999      43.831 124.627  23.210  1.00  0.00     0.178 C 
HETATM   25  O1  LIG X 999      43.722 124.903  21.986  1.00  0.00    -0.648 OA
HETATM   26  O2  LIG X 999      42.703 124.234  23.921  1.00  0.00    -0.648 OA
ENDBRANCH  18  24
ENDBRANCH   1  17
TORSDOF 4
