REMARK VINA RESULT:      -6.5      2.772      7.550
REMARK  7 active torsions:
REMARK  status: ('A' for Active; 'I' for Inactive)
REMARK    1  A    between atoms: S1_2  and  C1_3 
REMARK    2  A    between atoms: C1_3  and  N2_11 
REMARK    3  A    between atoms: N1_4  and  C2_6 
REMARK    4  A    between atoms: C2_6  and  C3_7 
REMARK    5  A    between atoms: C3_7  and  C4_8 
REMARK    6  A    between atoms: C4_8  and  S2_9 
REMARK    7  A    between atoms: N2_11  and  C5_14 
ROOT
HETATM    1  N2  LIG X 999      45.304 131.998  19.609  1.00  0.00     0.006 N 
HETATM    2  H10 LIG X 999      46.330 131.992  19.811  1.00  0.00     0.293 HD
HETATM    3  H11 LIG X 999      44.998 132.997  19.550  1.00  0.00     0.293 HD
ENDROOT
BRANCH   1   4
HETATM    4  C1  LIG X 999      45.052 131.330  18.356  1.00  0.00     0.240 C 
HETATM    5  N1  LIG X 999      45.943 130.522  17.865  1.00  0.00    -0.365 N 
HETATM    6  H2  LIG X 999      46.848 130.425  18.351  1.00  0.00     0.161 HD
BRANCH   4   7
HETATM    7  S1  LIG X 999      43.476 131.634  17.522  1.00  0.00    -0.100 SA
HETATM    8  H1  LIG X 999      43.863 132.935  17.155  1.00  0.00     0.110 HD
ENDBRANCH   4   7
BRANCH   5   9
HETATM    9  C2  LIG X 999      45.726 129.686  16.699  1.00  0.00     0.122 C 
BRANCH   9  10
HETATM   10  C3  LIG X 999      46.830 129.895  15.650  1.00  0.00     0.029 C 
BRANCH  10  11
HETATM   11  C4  LIG X 999      46.582 131.143  14.795  1.00  0.00     0.072 C 
BRANCH  11  12
HETATM   12  S2  LIG X 999      47.461 131.010  13.209  1.00  0.00    -0.182 SA
HETATM   13  H9  LIG X 999      48.726 131.182  13.804  1.00  0.00     0.101 HD
ENDBRANCH  11  12
ENDBRANCH  10  11
ENDBRANCH   9  10
ENDBRANCH   5   9
ENDBRANCH   1   4
BRANCH   1  14
HETATM   14  C5  LIG X 999      44.560 131.338  20.654  1.00  0.00     0.141 A 
HETATM   15  C6  LIG X 999      43.366 131.897  21.141  1.00  0.00     0.038 A 
HETATM   16  C7  LIG X 999      42.680 131.298  22.201  1.00  0.00     0.014 A 
HETATM   17  C8  LIG X 999      43.181 130.133  22.797  1.00  0.00    -0.026 A 
HETATM   18  C9  LIG X 999      42.506 129.529  23.869  1.00  0.00     0.012 A 
HETATM   19  C13 LIG X 999      44.383 129.561  22.316  1.00  0.00    -0.024 A 
HETATM   20  C10 LIG X 999      43.019 128.371  24.458  1.00  0.00     0.001 A 
HETATM   21  C11 LIG X 999      44.207 127.807  23.985  1.00  0.00     0.001 A 
HETATM   22  C12 LIG X 999      44.888 128.398  22.917  1.00  0.00     0.012 A 
HETATM   23  C14 LIG X 999      45.063 130.166  21.248  1.00  0.00     0.049 A 
ENDBRANCH   1  14
TORSDOF 7
