REMARK VINA RESULT:       0.7      2.185      4.491
REMARK  4 active torsions:
REMARK  status: ('A' for Active; 'I' for Inactive)
REMARK    1  A    between atoms: C5_5  and  O1_6 
REMARK    2  A    between atoms: O1_6  and  C6_7 
REMARK       I    between atoms: C6_7  and  N1_9 
REMARK    3  A    between atoms: C9_13  and  N2_14 
REMARK    4  A    between atoms: C11_19  and  N5_20 
ROOT
HETATM    1  N2  LIG X 999      42.249 130.906  20.765  1.00  0.00    -0.068 NA
HETATM    2  N3  LIG X 999      41.969 131.897  20.090  1.00  0.00    -0.162 NA
HETATM    3  N4  LIG X 999      41.685 132.887  19.417  1.00  0.00     0.068 N 
ENDROOT
BRANCH   1   4
HETATM    4  C9  LIG X 999      43.518 130.746  21.424  1.00  0.00     0.151 C 
HETATM    5  C5  LIG X 999      43.622 129.752  22.413  1.00  0.00     0.114 C 
HETATM    6  C4  LIG X 999      42.562 129.494  23.309  1.00  0.00     0.040 C 
HETATM    7  C3  LIG X 999      41.648 130.459  23.783  1.00  0.00     0.003 C 
HETATM    8  C2  LIG X 999      41.825 131.856  23.747  1.00  0.00     0.000 C 
HETATM    9  C1  LIG X 999      43.063 132.497  23.611  1.00  0.00     0.000 C 
HETATM   10  C13 LIG X 999      44.244 131.950  24.116  1.00  0.00     0.002 C 
HETATM   11  C12 LIG X 999      45.463 131.966  23.430  1.00  0.00     0.036 C 
HETATM   12  C11 LIG X 999      45.628 131.970  22.019  1.00  0.00     0.117 C 
HETATM   13  C10 LIG X 999      44.625 131.569  21.095  1.00  0.00     0.100 C 
HETATM   14 CL1  LIG X 999      44.826 132.059  19.410  1.00  0.00    -0.079 Cl
BRANCH   5  15
HETATM   15  O1  LIG X 999      44.816 129.014  22.466  1.00  0.00    -0.254 OA
BRANCH  15  16
HETATM   16  C6  LIG X 999      45.145 128.045  23.428  1.00  0.00     0.461 C 
HETATM   17  O2  LIG X 999      45.373 128.374  24.625  1.00  0.00    -0.230 OA
HETATM   18  N1  LIG X 999      45.314 126.672  23.024  1.00  0.00     0.009 N 
HETATM   19  H5  LIG X 999      45.484 126.078  23.870  1.00  0.00     0.292 HD
HETATM   20  C7  LIG X 999      44.096 126.187  22.358  1.00  0.00     0.282 C 
HETATM   21  C8  LIG X 999      46.478 126.558  22.134  1.00  0.00     0.282 C 
ENDBRANCH  15  16
ENDBRANCH   5  15
BRANCH  12  22
HETATM   22  N5  LIG X 999      46.901 132.353  21.470  1.00  0.00    -0.071 NA
HETATM   23  N6  LIG X 999      47.494 133.379  21.810  1.00  0.00    -0.162 NA
HETATM   24  N7  LIG X 999      48.085 134.403  22.148  1.00  0.00     0.068 N 
ENDBRANCH  12  22
ENDBRANCH   1   4
TORSDOF 4
