MODEL 1
REMARK VINA RESULT:      -6.7      0.000      0.000
REMARK  5 active torsions:
REMARK  status: ('A' for Active; 'I' for Inactive)
REMARK    1  A    between atoms: C6_6  and  C7_7 
REMARK       I    between atoms: C7_7  and  N1_9 
REMARK    2  A    between atoms: N1_9  and  C8_11 
REMARK    3  A    between atoms: C8_11  and  C9_12 
REMARK    4  A    between atoms: C9_12  and  N2_13 
REMARK    5  A    between atoms: C13_19  and  N5_20 
ROOT
HETATM    1  N2  LIG X 999      43.373 128.786  24.149  1.00  0.00    -0.114 NA
HETATM    2  N3  LIG X 999      44.187 128.321  23.351  1.00  0.00    -0.168 NA
HETATM    3  N4  LIG X 999      45.000 127.854  22.554  1.00  0.00     0.068 N 
ENDROOT
BRANCH   1   4
HETATM    4  C9  LIG X 999      43.283 130.223  24.379  1.00  0.00     0.208 C 
BRANCH   4   5
HETATM    5  C8  LIG X 999      42.578 130.891  23.200  1.00  0.00     0.147 C 
BRANCH   5   6
HETATM    6  N1  LIG X 999      43.441 130.913  22.018  1.00  0.00    -0.355 N 
HETATM    7  C7  LIG X 999      43.109 131.710  20.870  1.00  0.00     0.251 C 
HETATM    8  O1  LIG X 999      42.143 132.520  20.935  1.00  0.00    -0.268 OA
HETATM    9  H4  LIG X 999      44.336 130.374  22.027  1.00  0.00     0.162 HD
BRANCH   7  10
HETATM   10  C6  LIG X 999      43.892 131.614  19.615  1.00  0.00     0.032 A 
HETATM   11  C1  LIG X 999      45.280 131.400  19.641  1.00  0.00     0.017 A 
HETATM   12  C2  LIG X 999      46.006 131.312  18.452  1.00  0.00     0.011 A 
HETATM   13  C3  LIG X 999      45.365 131.434  17.210  1.00  0.00    -0.024 A 
HETATM   14  C4  LIG X 999      43.962 131.615  17.171  1.00  0.00    -0.049 A 
HETATM   15  C13 LIG X 999      46.182 131.263  15.948  1.00  0.00     0.179 C 
HETATM   16  C5  LIG X 999      43.244 131.716  18.372  1.00  0.00     0.024 A 
HETATM   17  C10 LIG X 999      43.226 131.822  15.867  1.00  0.00     0.039 C 
HETATM   18  C11 LIG X 999      44.016 131.327  14.653  1.00  0.00     0.007 C 
HETATM   19  C12 LIG X 999      45.458 131.830  14.714  1.00  0.00     0.035 C 
BRANCH  15  20
HETATM   20  N5  LIG X 999      46.475 129.843  15.766  1.00  0.00    -0.105 NA
HETATM   21  N6  LIG X 999      47.206 129.454  14.854  1.00  0.00    -0.167 NA
HETATM   22  N7  LIG X 999      47.934 129.064  13.943  1.00  0.00     0.068 N 
ENDBRANCH  15  20
ENDBRANCH   7  10
ENDBRANCH   5   6
ENDBRANCH   4   5
ENDBRANCH   1   4
TORSDOF 5
ENDMDL
MODEL 2
REMARK VINA RESULT:      -6.5      1.503      1.956
REMARK  5 active torsions:
REMARK  status: ('A' for Active; 'I' for Inactive)
REMARK    1  A    between atoms: C6_6  and  C7_7 
REMARK       I    between atoms: C7_7  and  N1_9 
REMARK    2  A    between atoms: N1_9  and  C8_11 
REMARK    3  A    between atoms: C8_11  and  C9_12 
REMARK    4  A    between atoms: C9_12  and  N2_13 
REMARK    5  A    between atoms: C13_19  and  N5_20 
ROOT
HETATM    1  N2  LIG X 999      41.674 127.386  23.572  1.00  0.00    -0.114 NA
HETATM    2  N3  LIG X 999      42.691 126.729  23.796  1.00  0.00    -0.168 NA
HETATM    3  N4  LIG X 999      43.708 126.073  24.018  1.00  0.00     0.068 N 
ENDROOT
BRANCH   1   4
HETATM    4  C9  LIG X 999      41.136 128.302  24.570  1.00  0.00     0.208 C 
BRANCH   4   5
HETATM    5  C8  LIG X 999      41.761 129.685  24.389  1.00  0.00     0.147 C 
BRANCH   5   6
HETATM    6  N1  LIG X 999      42.584 129.735  23.181  1.00  0.00    -0.355 N 
HETATM    7  C7  LIG X 999      43.055 130.985  22.653  1.00  0.00     0.251 C 
HETATM    8  O1  LIG X 999      42.887 132.044  23.320  1.00  0.00    -0.268 OA
HETATM    9  H4  LIG X 999      42.871 128.842  22.720  1.00  0.00     0.162 HD
BRANCH   7  10
HETATM   10  C6  LIG X 999      43.753 131.054  21.347  1.00  0.00     0.032 A 
HETATM   11  C1  LIG X 999      45.112 130.717  21.232  1.00  0.00     0.017 A 
HETATM   12  C2  LIG X 999      45.757 130.786  19.997  1.00  0.00     0.011 A 
HETATM   13  C3  LIG X 999      45.063 131.191  18.847  1.00  0.00    -0.024 A 
HETATM   14  C4  LIG X 999      43.685 131.499  18.944  1.00  0.00    -0.049 A 
HETATM   15  C13 LIG X 999      45.787 131.185  17.517  1.00  0.00     0.179 C 
HETATM   16  C5  LIG X 999      43.049 131.439  20.193  1.00  0.00     0.024 A 
HETATM   17  C10 LIG X 999      42.901 132.007  17.755  1.00  0.00     0.039 C 
HETATM   18  C11 LIG X 999      43.568 131.678  16.418  1.00  0.00     0.007 C 
HETATM   19  C12 LIG X 999      45.054 132.031  16.461  1.00  0.00     0.035 C 
BRANCH  15  20
HETATM   20  N5  LIG X 999      45.926 129.803  17.065  1.00  0.00    -0.105 NA
HETATM   21  N6  LIG X 999      46.337 129.540  15.934  1.00  0.00    -0.167 NA
HETATM   22  N7  LIG X 999      46.748 129.277  14.805  1.00  0.00     0.068 N 
ENDBRANCH  15  20
ENDBRANCH   7  10
ENDBRANCH   5   6
ENDBRANCH   4   5
ENDBRANCH   1   4
TORSDOF 5
ENDMDL
MODEL 3
REMARK VINA RESULT:      -5.6      1.947      7.329
REMARK  5 active torsions:
REMARK  status: ('A' for Active; 'I' for Inactive)
REMARK    1  A    between atoms: C6_6  and  C7_7 
REMARK       I    between atoms: C7_7  and  N1_9 
REMARK    2  A    between atoms: N1_9  and  C8_11 
REMARK    3  A    between atoms: C8_11  and  C9_12 
REMARK    4  A    between atoms: C9_12  and  N2_13 
REMARK    5  A    between atoms: C13_19  and  N5_20 
ROOT
HETATM    1  N2  LIG X 999      46.839 129.841  14.059  1.00  0.00    -0.114 NA
HETATM    2  N3  LIG X 999      46.056 129.289  14.833  1.00  0.00    -0.168 NA
HETATM    3  N4  LIG X 999      45.275 128.736  15.606  1.00  0.00     0.068 N 
ENDROOT
BRANCH   1   4
HETATM    4  C9  LIG X 999      47.245 131.226  14.263  1.00  0.00     0.208 C 
BRANCH   4   5
HETATM    5  C8  LIG X 999      46.026 132.073  14.627  1.00  0.00     0.147 C 
BRANCH   5   6
HETATM    6  N1  LIG X 999      45.673 131.905  16.037  1.00  0.00    -0.355 N 
HETATM    7  C7  LIG X 999      44.306 131.744  16.446  1.00  0.00     0.251 C 
HETATM    8  O1  LIG X 999      43.409 131.593  15.571  1.00  0.00    -0.268 OA
HETATM    9  H4  LIG X 999      46.433 131.858  16.753  1.00  0.00     0.162 HD
BRANCH   7  10
HETATM   10  C6  LIG X 999      43.930 131.733  17.881  1.00  0.00     0.032 A 
HETATM   11  C1  LIG X 999      42.587 131.834  18.279  1.00  0.00     0.017 A 
HETATM   12  C2  LIG X 999      42.246 131.823  19.632  1.00  0.00     0.011 A 
HETATM   13  C3  LIG X 999      43.236 131.710  20.620  1.00  0.00    -0.024 A 
HETATM   14  C4  LIG X 999      44.589 131.573  20.230  1.00  0.00    -0.049 A 
HETATM   15  C13 LIG X 999      42.813 131.634  22.071  1.00  0.00     0.179 C 
HETATM   16  C5  LIG X 999      44.922 131.599  18.867  1.00  0.00     0.024 A 
HETATM   17  C10 LIG X 999      45.705 131.518  21.247  1.00  0.00     0.039 C 
HETATM   18  C11 LIG X 999      45.218 131.123  22.644  1.00  0.00     0.007 C 
HETATM   19  C12 LIG X 999      43.981 131.935  23.026  1.00  0.00     0.035 C 
BRANCH  15  20
HETATM   20  N5  LIG X 999      42.265 130.304  22.331  1.00  0.00    -0.105 NA
HETATM   21  N6  LIG X 999      42.175 129.864  23.478  1.00  0.00    -0.167 NA
HETATM   22  N7  LIG X 999      42.085 129.424  24.623  1.00  0.00     0.068 N 
ENDBRANCH  15  20
ENDBRANCH   7  10
ENDBRANCH   5   6
ENDBRANCH   4   5
ENDBRANCH   1   4
TORSDOF 5
ENDMDL
MODEL 4
REMARK VINA RESULT:      -5.6      2.154      7.921
REMARK  5 active torsions:
REMARK  status: ('A' for Active; 'I' for Inactive)
REMARK    1  A    between atoms: C6_6  and  C7_7 
REMARK       I    between atoms: C7_7  and  N1_9 
REMARK    2  A    between atoms: N1_9  and  C8_11 
REMARK    3  A    between atoms: C8_11  and  C9_12 
REMARK    4  A    between atoms: C9_12  and  N2_13 
REMARK    5  A    between atoms: C13_19  and  N5_20 
ROOT
HETATM    1  N2  LIG X 999      45.609 130.637  14.046  1.00  0.00    -0.114 NA
HETATM    2  N3  LIG X 999      46.661 130.830  13.435  1.00  0.00    -0.168 NA
HETATM    3  N4  LIG X 999      47.712 131.024  12.826  1.00  0.00     0.068 N 
ENDROOT
BRANCH   1   4
HETATM    4  C9  LIG X 999      45.563 129.754  15.204  1.00  0.00     0.208 C 
BRANCH   4   5
HETATM    5  C8  LIG X 999      46.559 130.234  16.259  1.00  0.00     0.147 C 
BRANCH   5   6
HETATM    6  N1  LIG X 999      46.029 130.036  17.609  1.00  0.00    -0.355 N 
HETATM    7  C7  LIG X 999      45.329 131.085  18.294  1.00  0.00     0.251 C 
HETATM    8  O1  LIG X 999      45.031 132.143  17.673  1.00  0.00    -0.268 OA
HETATM    9  H4  LIG X 999      46.124 129.099  18.063  1.00  0.00     0.162 HD
BRANCH   7  10
HETATM   10  C6  LIG X 999      44.931 130.943  19.716  1.00  0.00     0.032 A 
HETATM   11  C1  LIG X 999      44.239 131.968  20.382  1.00  0.00     0.017 A 
HETATM   12  C2  LIG X 999      43.871 131.822  21.720  1.00  0.00     0.011 A 
HETATM   13  C3  LIG X 999      44.183 130.650  22.425  1.00  0.00    -0.024 A 
HETATM   14  C4  LIG X 999      44.849 129.596  21.755  1.00  0.00    -0.049 A 
HETATM   15  C13 LIG X 999      43.703 130.509  23.854  1.00  0.00     0.179 C 
HETATM   16  C5  LIG X 999      45.226 129.759  20.413  1.00  0.00     0.024 A 
HETATM   17  C10 LIG X 999      45.272 128.339  22.479  1.00  0.00     0.039 C 
HETATM   18  C11 LIG X 999      44.500 128.114  23.782  1.00  0.00     0.007 C 
HETATM   19  C12 LIG X 999      44.460 129.400  24.607  1.00  0.00     0.035 C 
BRANCH  15  20
HETATM   20  N5  LIG X 999      42.268 130.236  23.842  1.00  0.00    -0.105 NA
HETATM   21  N6  LIG X 999      41.820 129.158  24.234  1.00  0.00    -0.167 NA
HETATM   22  N7  LIG X 999      41.372 128.081  24.625  1.00  0.00     0.068 N 
ENDBRANCH  15  20
ENDBRANCH   7  10
ENDBRANCH   5   6
ENDBRANCH   4   5
ENDBRANCH   1   4
TORSDOF 5
ENDMDL
MODEL 5
REMARK VINA RESULT:      -5.4      4.207      8.269
REMARK  5 active torsions:
REMARK  status: ('A' for Active; 'I' for Inactive)
REMARK    1  A    between atoms: C6_6  and  C7_7 
REMARK       I    between atoms: C7_7  and  N1_9 
REMARK    2  A    between atoms: N1_9  and  C8_11 
REMARK    3  A    between atoms: C8_11  and  C9_12 
REMARK    4  A    between atoms: C9_12  and  N2_13 
REMARK    5  A    between atoms: C13_19  and  N5_20 
ROOT
HETATM    1  N2  LIG X 999      44.686 131.348  18.679  1.00  0.00    -0.114 NA
HETATM    2  N3  LIG X 999      45.083 131.659  17.555  1.00  0.00    -0.168 NA
HETATM    3  N4  LIG X 999      45.478 131.968  16.431  1.00  0.00     0.068 N 
ENDROOT
BRANCH   1   4
HETATM    4  C9  LIG X 999      44.791 132.279  19.796  1.00  0.00     0.208 C 
BRANCH   4   5
HETATM    5  C8  LIG X 999      45.728 131.706  20.858  1.00  0.00     0.147 C 
BRANCH   5   6
HETATM    6  N1  LIG X 999      45.319 130.355  21.244  1.00  0.00    -0.355 N 
HETATM    7  C7  LIG X 999      44.526 130.126  22.420  1.00  0.00     0.251 C 
HETATM    8  O1  LIG X 999      44.047 131.111  23.048  1.00  0.00    -0.268 OA
HETATM    9  H4  LIG X 999      45.570 129.549  20.630  1.00  0.00     0.162 HD
BRANCH   7  10
HETATM   10  C6  LIG X 999      44.245 128.752  22.902  1.00  0.00     0.032 A 
HETATM   11  C1  LIG X 999      43.148 128.487  23.738  1.00  0.00     0.017 A 
HETATM   12  C2  LIG X 999      42.894 127.190  24.185  1.00  0.00     0.011 A 
HETATM   13  C3  LIG X 999      43.727 126.126  23.806  1.00  0.00    -0.024 A 
HETATM   14  C4  LIG X 999      44.814 126.374  22.935  1.00  0.00    -0.049 A 
HETATM   15  C13 LIG X 999      43.372 124.725  24.259  1.00  0.00     0.179 C 
HETATM   16  C5  LIG X 999      45.068 127.685  22.503  1.00  0.00     0.024 A 
HETATM   17  C10 LIG X 999      45.785 125.283  22.549  1.00  0.00     0.039 C 
HETATM   18  C11 LIG X 999      45.214 123.878  22.755  1.00  0.00     0.007 C 
HETATM   19  C12 LIG X 999      44.566 123.762  24.134  1.00  0.00     0.035 C 
BRANCH  15  20
HETATM   20  N5  LIG X 999      42.240 124.249  23.468  1.00  0.00    -0.105 NA
HETATM   21  N6  LIG X 999      41.534 123.318  23.860  1.00  0.00    -0.167 NA
HETATM   22  N7  LIG X 999      40.830 122.389  24.251  1.00  0.00     0.068 N 
ENDBRANCH  15  20
ENDBRANCH   7  10
ENDBRANCH   5   6
ENDBRANCH   4   5
ENDBRANCH   1   4
TORSDOF 5
ENDMDL
MODEL 6
REMARK VINA RESULT:      -5.2      5.014      6.995
REMARK  5 active torsions:
REMARK  status: ('A' for Active; 'I' for Inactive)
REMARK    1  A    between atoms: C6_6  and  C7_7 
REMARK       I    between atoms: C7_7  and  N1_9 
REMARK    2  A    between atoms: N1_9  and  C8_11 
REMARK    3  A    between atoms: C8_11  and  C9_12 
REMARK    4  A    between atoms: C9_12  and  N2_13 
REMARK    5  A    between atoms: C13_19  and  N5_20 
ROOT
HETATM    1  N2  LIG X 999      42.381 123.358  21.238  1.00  0.00    -0.114 NA
HETATM    2  N3  LIG X 999      41.465 123.670  21.999  1.00  0.00    -0.168 NA
HETATM    3  N4  LIG X 999      40.548 123.981  22.758  1.00  0.00     0.068 N 
ENDROOT
BRANCH   1   4
HETATM    4  C9  LIG X 999      43.397 122.393  21.640  1.00  0.00     0.208 C 
BRANCH   4   5
HETATM    5  C8  LIG X 999      44.233 122.970  22.781  1.00  0.00     0.147 C 
BRANCH   5   6
HETATM    6  N1  LIG X 999      44.473 124.400  22.585  1.00  0.00    -0.355 N 
HETATM    7  C7  LIG X 999      43.998 125.369  23.532  1.00  0.00     0.251 C 
HETATM    8  O1  LIG X 999      43.501 124.979  24.625  1.00  0.00    -0.268 OA
HETATM    9  H4  LIG X 999      45.036 124.716  21.764  1.00  0.00     0.162 HD
BRANCH   7  10
HETATM   10  C6  LIG X 999      44.098 126.823  23.259  1.00  0.00     0.032 A 
HETATM   11  C1  LIG X 999      45.015 127.324  22.320  1.00  0.00     0.017 A 
HETATM   12  C2  LIG X 999      45.100 128.694  22.072  1.00  0.00     0.011 A 
HETATM   13  C3  LIG X 999      44.272 129.598  22.755  1.00  0.00    -0.024 A 
HETATM   14  C4  LIG X 999      43.320 129.103  23.678  1.00  0.00    -0.049 A 
HETATM   15  C13 LIG X 999      44.352 131.069  22.404  1.00  0.00     0.179 C 
HETATM   16  C5  LIG X 999      43.252 127.725  23.929  1.00  0.00     0.024 A 
HETATM   17  C10 LIG X 999      42.450 130.032  24.493  1.00  0.00     0.039 C 
HETATM   18  C11 LIG X 999      42.339 131.432  23.883  1.00  0.00     0.007 C 
HETATM   19  C12 LIG X 999      43.721 131.954  23.493  1.00  0.00     0.035 C 
BRANCH  15  20
HETATM   20  N5  LIG X 999      43.689 131.281  21.119  1.00  0.00    -0.105 NA
HETATM   21  N6  LIG X 999      44.337 131.511  20.097  1.00  0.00    -0.167 NA
HETATM   22  N7  LIG X 999      44.984 131.741  19.076  1.00  0.00     0.068 N 
ENDBRANCH  15  20
ENDBRANCH   7  10
ENDBRANCH   5   6
ENDBRANCH   4   5
ENDBRANCH   1   4
TORSDOF 5
ENDMDL
MODEL 7
REMARK VINA RESULT:      -5.2      1.501      2.314
REMARK  5 active torsions:
REMARK  status: ('A' for Active; 'I' for Inactive)
REMARK    1  A    between atoms: C6_6  and  C7_7 
REMARK       I    between atoms: C7_7  and  N1_9 
REMARK    2  A    between atoms: N1_9  and  C8_11 
REMARK    3  A    between atoms: C8_11  and  C9_12 
REMARK    4  A    between atoms: C9_12  and  N2_13 
REMARK    5  A    between atoms: C13_19  and  N5_20 
ROOT
HETATM    1  N2  LIG X 999      43.481 129.682  23.638  1.00  0.00    -0.114 NA
HETATM    2  N3  LIG X 999      42.408 129.078  23.599  1.00  0.00    -0.168 NA
HETATM    3  N4  LIG X 999      41.338 128.473  23.561  1.00  0.00     0.068 N 
ENDROOT
BRANCH   1   4
HETATM    4  C9  LIG X 999      43.535 131.093  23.998  1.00  0.00     0.208 C 
BRANCH   4   5
HETATM    5  C8  LIG X 999      42.900 131.933  22.891  1.00  0.00     0.147 C 
BRANCH   5   6
HETATM    6  N1  LIG X 999      43.484 131.612  21.589  1.00  0.00    -0.355 N 
HETATM    7  C7  LIG X 999      42.952 132.171  20.377  1.00  0.00     0.251 C 
HETATM    8  O1  LIG X 999      42.068 133.070  20.444  1.00  0.00    -0.268 OA
HETATM    9  H4  LIG X 999      44.329 130.999  21.544  1.00  0.00     0.162 HD
BRANCH   7  10
HETATM   10  C6  LIG X 999      43.436 131.726  19.048  1.00  0.00     0.032 A 
HETATM   11  C1  LIG X 999      42.741 132.059  17.874  1.00  0.00     0.017 A 
HETATM   12  C2  LIG X 999      43.206 131.634  16.630  1.00  0.00     0.011 A 
HETATM   13  C3  LIG X 999      44.377 130.867  16.526  1.00  0.00    -0.024 A 
HETATM   14  C4  LIG X 999      45.105 130.555  17.699  1.00  0.00    -0.049 A 
HETATM   15  C13 LIG X 999      44.880 130.487  15.150  1.00  0.00     0.179 C 
HETATM   16  C5  LIG X 999      44.621 130.976  18.946  1.00  0.00     0.024 A 
HETATM   17  C10 LIG X 999      46.333 129.675  17.658  1.00  0.00     0.039 C 
HETATM   18  C11 LIG X 999      46.964 129.598  16.265  1.00  0.00     0.007 C 
HETATM   19  C12 LIG X 999      45.893 129.329  15.209  1.00  0.00     0.035 C 
BRANCH  15  20
HETATM   20  N5  LIG X 999      45.481 131.665  14.528  1.00  0.00    -0.105 NA
HETATM   21  N6  LIG X 999      46.524 131.582  13.878  1.00  0.00    -0.167 NA
HETATM   22  N7  LIG X 999      47.566 131.499  13.231  1.00  0.00     0.068 N 
ENDBRANCH  15  20
ENDBRANCH   7  10
ENDBRANCH   5   6
ENDBRANCH   4   5
ENDBRANCH   1   4
TORSDOF 5
ENDMDL
MODEL 8
REMARK VINA RESULT:      -4.9      2.538      7.725
REMARK  5 active torsions:
REMARK  status: ('A' for Active; 'I' for Inactive)
REMARK    1  A    between atoms: C6_6  and  C7_7 
REMARK       I    between atoms: C7_7  and  N1_9 
REMARK    2  A    between atoms: N1_9  and  C8_11 
REMARK    3  A    between atoms: C8_11  and  C9_12 
REMARK    4  A    between atoms: C9_12  and  N2_13 
REMARK    5  A    between atoms: C13_19  and  N5_20 
ROOT
HETATM    1  N2  LIG X 999      44.751 130.222  15.393  1.00  0.00    -0.114 NA
HETATM    2  N3  LIG X 999      45.914 129.970  15.077  1.00  0.00    -0.168 NA
HETATM    3  N4  LIG X 999      47.076 129.718  14.760  1.00  0.00     0.068 N 
ENDROOT
BRANCH   1   4
HETATM    4  C9  LIG X 999      44.414 131.449  16.104  1.00  0.00     0.208 C 
BRANCH   4   5
HETATM    5  C8  LIG X 999      45.411 131.678  17.239  1.00  0.00     0.147 C 
BRANCH   5   6
HETATM    6  N1  LIG X 999      45.084 130.848  18.399  1.00  0.00    -0.355 N 
HETATM    7  C7  LIG X 999      45.060 131.401  19.725  1.00  0.00     0.251 C 
HETATM    8  O1  LIG X 999      45.173 132.649  19.880  1.00  0.00    -0.268 OA
HETATM    9  H4  LIG X 999      44.821 129.847  18.255  1.00  0.00     0.162 HD
BRANCH   7  10
HETATM   10  C6  LIG X 999      44.887 130.535  20.915  1.00  0.00     0.032 A 
HETATM   11  C1  LIG X 999      44.156 130.974  22.032  1.00  0.00     0.017 A 
HETATM   12  C2  LIG X 999      44.001 130.149  23.146  1.00  0.00     0.011 A 
HETATM   13  C3  LIG X 999      44.569 128.867  23.174  1.00  0.00    -0.024 A 
HETATM   14  C4  LIG X 999      45.278 128.399  22.041  1.00  0.00    -0.049 A 
HETATM   15  C13 LIG X 999      44.316 127.982  24.376  1.00  0.00     0.179 C 
HETATM   16  C5  LIG X 999      45.439 129.242  20.931  1.00  0.00     0.024 A 
HETATM   17  C10 LIG X 999      45.970 127.056  22.038  1.00  0.00     0.039 C 
HETATM   18  C11 LIG X 999      45.425 126.103  23.106  1.00  0.00     0.007 C 
HETATM   19  C12 LIG X 999      45.318 126.816  24.453  1.00  0.00     0.035 C 
BRANCH  15  20
HETATM   20  N5  LIG X 999      42.945 127.479  24.309  1.00  0.00    -0.105 NA
HETATM   21  N6  LIG X 999      41.982 128.231  24.467  1.00  0.00    -0.167 NA
HETATM   22  N7  LIG X 999      41.020 128.980  24.625  1.00  0.00     0.068 N 
ENDBRANCH  15  20
ENDBRANCH   7  10
ENDBRANCH   5   6
ENDBRANCH   4   5
ENDBRANCH   1   4
TORSDOF 5
ENDMDL
MODEL 9
REMARK VINA RESULT:      -4.7      4.928      7.846
REMARK  5 active torsions:
REMARK  status: ('A' for Active; 'I' for Inactive)
REMARK    1  A    between atoms: C6_6  and  C7_7 
REMARK       I    between atoms: C7_7  and  N1_9 
REMARK    2  A    between atoms: N1_9  and  C8_11 
REMARK    3  A    between atoms: C8_11  and  C9_12 
REMARK    4  A    between atoms: C9_12  and  N2_13 
REMARK    5  A    between atoms: C13_19  and  N5_20 
ROOT
HETATM    1  N2  LIG X 999      45.599 130.754  19.333  1.00  0.00    -0.114 NA
HETATM    2  N3  LIG X 999      45.452 130.793  18.111  1.00  0.00    -0.168 NA
HETATM    3  N4  LIG X 999      45.306 130.831  16.890  1.00  0.00     0.068 N 
ENDROOT
BRANCH   1   4
HETATM    4  C9  LIG X 999      45.060 131.803  20.189  1.00  0.00     0.208 C 
BRANCH   4   5
HETATM    5  C8  LIG X 999      44.900 131.276  21.614  1.00  0.00     0.147 C 
BRANCH   5   6
HETATM    6  N1  LIG X 999      44.805 129.816  21.625  1.00  0.00    -0.355 N 
HETATM    7  C7  LIG X 999      44.629 129.092  22.853  1.00  0.00     0.251 C 
HETATM    8  O1  LIG X 999      44.401 129.726  23.921  1.00  0.00    -0.268 OA
HETATM    9  H4  LIG X 999      44.821 129.295  20.720  1.00  0.00     0.162 HD
BRANCH   7  10
HETATM   10  C6  LIG X 999      44.691 127.611  22.888  1.00  0.00     0.032 A 
HETATM   11  C1  LIG X 999      43.613 126.851  23.371  1.00  0.00     0.017 A 
HETATM   12  C2  LIG X 999      43.684 125.458  23.399  1.00  0.00     0.011 A 
HETATM   13  C3  LIG X 999      44.831 124.790  22.945  1.00  0.00    -0.024 A 
HETATM   14  C4  LIG X 999      45.910 125.543  22.424  1.00  0.00    -0.049 A 
HETATM   15  C13 LIG X 999      44.836 123.276  22.930  1.00  0.00     0.179 C 
HETATM   16  C5  LIG X 999      45.833 126.944  22.413  1.00  0.00     0.024 A 
HETATM   17  C10 LIG X 999      47.198 124.885  21.985  1.00  0.00     0.039 C 
HETATM   18  C11 LIG X 999      47.032 123.392  21.690  1.00  0.00     0.007 C 
HETATM   19  C12 LIG X 999      46.262 122.707  22.818  1.00  0.00     0.035 C 
BRANCH  15  20
HETATM   20  N5  LIG X 999      44.009 122.814  21.818  1.00  0.00    -0.105 NA
HETATM   21  N6  LIG X 999      42.949 123.376  21.534  1.00  0.00    -0.167 NA
HETATM   22  N7  LIG X 999      41.892 123.935  21.252  1.00  0.00     0.068 N 
ENDBRANCH  15  20
ENDBRANCH   7  10
ENDBRANCH   5   6
ENDBRANCH   4   5
ENDBRANCH   1   4
TORSDOF 5
ENDMDL
