REMARK VINA RESULT:      -3.3      2.543      4.111
REMARK  3 active torsions:
REMARK  status: ('A' for Active; 'I' for Inactive)
REMARK    1  A    between atoms: C3_3  and  O1_4 
REMARK    2  A    between atoms: O1_4  and  C4_5 
REMARK    3  A    between atoms: C15_16  and  C16_17 
ROOT
HETATM    1  C1  LIG X 999      44.766 131.498  17.120  1.00  0.00     0.014 C 
HETATM    2  C2  LIG X 999      44.638 131.747  18.293  1.00  0.00    -0.091 C 
HETATM    3  C3  LIG X 999      44.483 132.049  19.716  1.00  0.00     0.268 C 
ENDROOT
BRANCH   3   4
HETATM    4  O1  LIG X 999      43.904 130.925  20.372  1.00  0.00    -0.339 OA
BRANCH   4   5
HETATM    5  C4  LIG X 999      43.770 130.782  21.764  1.00  0.00     0.083 C 
HETATM    6  C5  LIG X 999      42.979 131.705  22.500  1.00  0.00     0.038 C 
HETATM    7  C6  LIG X 999      42.379 131.483  23.753  1.00  0.00     0.003 C 
HETATM    8  C7  LIG X 999      42.148 130.232  24.334  1.00  0.00     0.002 C 
HETATM    9  C8  LIG X 999      41.944 129.066  23.589  1.00  0.00     0.020 C 
HETATM   10  C9  LIG X 999      42.521 127.838  23.946  1.00  0.00     0.016 C 
HETATM   11  C10 LIG X 999      41.863 126.628  23.529  1.00  0.00    -0.078 C 
HETATM   12  C12 LIG X 999      43.761 127.728  24.610  1.00  0.00     0.020 C 
HETATM   13  C11 LIG X 999      41.312 125.615  23.179  1.00  0.00     0.018 C 
HETATM   14  C13 LIG X 999      44.773 128.710  24.625  1.00  0.00     0.002 C 
HETATM   15  C14 LIG X 999      44.900 129.757  23.695  1.00  0.00     0.017 C 
HETATM   16  C15 LIG X 999      44.443 129.694  22.363  1.00  0.00     0.035 C 
BRANCH  16  17
HETATM   17  C16 LIG X 999      44.717 128.491  21.542  1.00  0.00     0.272 C 
HETATM   18  O2  LIG X 999      45.877 128.003  21.465  1.00  0.00    -0.301 OA
ENDBRANCH  16  17
ENDBRANCH   4   5
ENDBRANCH   3   4
TORSDOF 3
