REMARK VINA RESULT:      -5.3      8.374      9.481
REMARK  1 active torsions:
REMARK  status: ('A' for Active; 'I' for Inactive)
REMARK    1  A    between atoms: C8_8  and  N1_9 
ROOT
HETATM    1  N1  LIG X 999      52.018 134.434  24.333  1.00  0.00    -0.072 NA
HETATM    2  N2  LIG X 999      52.662 133.452  23.962  1.00  0.00    -0.162 NA
HETATM    3  N3  LIG X 999      53.305 132.470  23.593  1.00  0.00     0.068 N 
ENDROOT
BRANCH   1   4
HETATM    4  C8  LIG X 999      51.709 135.526  23.453  1.00  0.00     0.104 A 
HETATM    5  C7  LIG X 999      52.613 136.617  23.272  1.00  0.00     0.038 A 
HETATM    6  C6  LIG X 999      52.302 137.689  22.403  1.00  0.00     0.033 A 
HETATM    7  C5  LIG X 999      51.085 137.649  21.726  1.00  0.00     0.047 A 
HETATM    8  C4  LIG X 999      50.233 136.599  21.908  1.00  0.00     0.019 A 
HETATM    9  N4  LIG X 999      50.536 138.591  20.803  1.00  0.00    -0.322 N 
HETATM   10  C3  LIG X 999      49.101 136.742  21.164  1.00  0.00     0.045 A 
HETATM   11  C9  LIG X 999      50.483 135.525  22.745  1.00  0.00     0.009 A 
HETATM   12  C2  LIG X 999      48.098 135.775  21.205  1.00  0.00     0.018 A 
HETATM   13  C11 LIG X 999      49.274 138.006  20.450  1.00  0.00     0.257 A 
HETATM   14  C1  LIG X 999      48.301 134.654  22.045  1.00  0.00     0.002 A 
HETATM   15  C10 LIG X 999      49.488 134.525  22.813  1.00  0.00     0.015 A 
HETATM   16  O1  LIG X 999      48.454 138.521  19.646  1.00  0.00    -0.267 OA
HETATM   17  H6  LIG X 999      50.952 139.487  20.466  1.00  0.00     0.169 HD
ENDBRANCH   1   4
TORSDOF 1
