REMARK VINA RESULT:      -8.1      1.675      2.519
REMARK  3 active torsions:
REMARK  status: ('A' for Active; 'I' for Inactive)
REMARK    1  A    between atoms: C2_2  and  C3_3 
REMARK       I    between atoms: C3_3  and  N1_5 
REMARK    2  A    between atoms: N1_5  and  C4_6 
REMARK    3  A    between atoms: C4_6  and  C6_8 
ROOT
HETATM    1  C6  LIG X 999      45.187 131.265  17.207  1.00  0.00    -0.035 A 
HETATM    2  C7  LIG X 999      45.582 129.936  17.439  1.00  0.00     0.010 A 
HETATM    3  C8  LIG X 999      46.394 129.265  16.522  1.00  0.00     0.013 A 
HETATM    4  C9  LIG X 999      46.821 129.911  15.354  1.00  0.00    -0.026 A 
HETATM    5  C10 LIG X 999      47.639 129.245  14.426  1.00  0.00     0.012 A 
HETATM    6  C11 LIG X 999      48.056 129.899  13.263  1.00  0.00     0.001 A 
HETATM    7  C12 LIG X 999      47.661 131.217  13.017  1.00  0.00     0.001 A 
HETATM    8  C13 LIG X 999      46.847 131.890  13.933  1.00  0.00     0.012 A 
HETATM    9  C14 LIG X 999      46.422 131.246  15.105  1.00  0.00    -0.025 A 
HETATM   10  C15 LIG X 999      45.605 131.912  16.031  1.00  0.00     0.021 A 
ENDROOT
BRANCH   1  11
HETATM   11  C4  LIG X 999      44.293 131.987  18.193  1.00  0.00     0.113 C 
HETATM   12  C5  LIG X 999      42.822 131.797  17.811  1.00  0.00     0.037 C 
BRANCH  11  13
HETATM   13  N1  LIG X 999      44.538 131.503  19.557  1.00  0.00    -0.353 N 
HETATM   14  C3  LIG X 999      43.662 131.826  20.647  1.00  0.00     0.217 C 
HETATM   15  O1  LIG X 999      42.622 132.510  20.447  1.00  0.00    -0.274 OA
HETATM   16  H6  LIG X 999      45.373 130.904  19.750  1.00  0.00     0.163 HD
BRANCH  14  17
HETATM   17  C2  LIG X 999      43.958 131.315  22.024  1.00  0.00     0.098 C 
HETATM   18  C1  LIG X 999      44.665 129.966  21.956  1.00  0.00     0.014 C 
ENDBRANCH  14  17
ENDBRANCH  11  13
ENDBRANCH   1  11
TORSDOF 3
