REMARK VINA RESULT:      -6.3      2.444      7.877
REMARK  5 active torsions:
REMARK  status: ('A' for Active; 'I' for Inactive)
REMARK    1  A    between atoms: C6_6  and  C7_7 
REMARK       I    between atoms: C7_7  and  N1_9 
REMARK    2  A    between atoms: N1_9  and  C8_11 
REMARK    3  A    between atoms: C8_11  and  C9_12 
REMARK    4  A    between atoms: C9_12  and  N2_13 
REMARK    5  A    between atoms: C13_19  and  N5_20 
ROOT
HETATM    1  N2  LIG X 999      44.730 133.000  24.605  1.00  0.00    -0.114 NA
HETATM    2  N3  LIG X 999      45.842 133.527  24.615  1.00  0.00    -0.168 NA
HETATM    3  N4  LIG X 999      46.954 134.053  24.625  1.00  0.00     0.068 N 
ENDROOT
BRANCH   1   4
HETATM    4  C9  LIG X 999      44.558 131.643  24.111  1.00  0.00     0.208 C 
BRANCH   4   5
HETATM    5  C8  LIG X 999      43.541 131.634  22.970  1.00  0.00     0.147 C 
BRANCH   5   6
HETATM    6  N1  LIG X 999      44.183 131.300  21.699  1.00  0.00    -0.355 N 
HETATM    7  C7  LIG X 999      43.729 131.875  20.463  1.00  0.00     0.251 C 
HETATM    8  O1  LIG X 999      42.864 132.794  20.487  1.00  0.00    -0.268 OA
HETATM    9  H4  LIG X 999      45.014 130.667  21.696  1.00  0.00     0.162 HD
BRANCH   7  10
HETATM   10  C6  LIG X 999      44.271 131.419  19.160  1.00  0.00     0.032 A 
HETATM   11  C1  LIG X 999      45.379 130.563  19.095  1.00  0.00     0.017 A 
HETATM   12  C2  LIG X 999      45.881 130.144  17.862  1.00  0.00     0.011 A 
HETATM   13  C3  LIG X 999      45.297 130.580  16.661  1.00  0.00    -0.024 A 
HETATM   14  C4  LIG X 999      44.141 131.395  16.719  1.00  0.00    -0.049 A 
HETATM   15  C13 LIG X 999      45.834 130.056  15.337  1.00  0.00     0.179 C 
HETATM   16  C5  LIG X 999      43.653 131.822  17.964  1.00  0.00     0.024 A 
HETATM   17  C10 LIG X 999      43.460 131.891  15.465  1.00  0.00     0.039 C 
HETATM   18  C11 LIG X 999      43.770 131.015  14.250  1.00  0.00     0.007 C 
HETATM   19  C12 LIG X 999      45.278 130.818  14.119  1.00  0.00     0.035 C 
BRANCH  15  20
HETATM   20  N5  LIG X 999      47.297 130.079  15.313  1.00  0.00    -0.105 NA
HETATM   21  N6  LIG X 999      47.932 129.728  14.317  1.00  0.00    -0.167 NA
HETATM   22  N7  LIG X 999      48.567 129.378  13.324  1.00  0.00     0.068 N 
ENDBRANCH  15  20
ENDBRANCH   7  10
ENDBRANCH   5   6
ENDBRANCH   4   5
ENDBRANCH   1   4
TORSDOF 5
