REMARK VINA RESULT:      -4.0      1.781      7.024
REMARK  5 active torsions:
REMARK  status: ('A' for Active; 'I' for Inactive)
REMARK    1  A    between atoms: C3_3  and  C4_4 
REMARK    2  A    between atoms: C4_4  and  S1_5 
REMARK    3  A    between atoms: S1_5  and  C5_6 
REMARK    4  A    between atoms: C6_7  and  N1_8 
REMARK    5  A    between atoms: C10_12  and  N2_13 
ROOT
HETATM    1  C1  LIG X 999      48.466 130.133  12.864  1.00  0.00     0.112 C 
HETATM    2  C2  LIG X 999      47.444 129.864  13.876  1.00  0.00    -0.110 C 
HETATM    3  C3  LIG X 999      46.616 129.651  14.724  1.00  0.00    -0.097 C 
ENDROOT
BRANCH   3   4
HETATM    4  C4  LIG X 999      45.626 129.400  15.776  1.00  0.00     0.173 C 
BRANCH   4   5
HETATM    5  S1  LIG X 999      46.124 130.218  17.331  1.00  0.00    -0.115 SA
BRANCH   5   6
HETATM    6  C5  LIG X 999      44.561 131.113  17.551  1.00  0.00     0.038 A 
HETATM    7  C6  LIG X 999      43.821 131.511  16.416  1.00  0.00     0.043 A 
HETATM    8  C7  LIG X 999      42.600 132.169  16.582  1.00  0.00     0.031 A 
HETATM    9  C8  LIG X 999      42.088 132.426  17.849  1.00  0.00     0.017 A 
HETATM   10  C9  LIG X 999      42.792 132.040  19.004  1.00  0.00     0.002 A 
HETATM   11  C10 LIG X 999      42.275 132.282  20.313  1.00  0.00     0.045 A 
HETATM   12  C14 LIG X 999      44.069 131.409  18.851  1.00  0.00    -0.004 A 
HETATM   13  C11 LIG X 999      43.067 131.924  21.414  1.00  0.00     0.003 A 
HETATM   14  C12 LIG X 999      44.291 131.356  21.260  1.00  0.00    -0.021 A 
HETATM   15  C18 LIG X 999      42.754 132.070  22.858  1.00  0.00     0.278 C 
HETATM   16  C13 LIG X 999      44.822 131.092  20.005  1.00  0.00     0.023 A 
HETATM   17  C15 LIG X 999      44.917 131.076  22.570  1.00  0.00     0.276 C 
HETATM   18  N3  LIG X 999      43.878 131.408  23.594  1.00  0.00    -0.067 N 
HETATM   19  C16 LIG X 999      44.431 132.316  24.624  1.00  0.00     0.272 C 
HETATM   20  C17 LIG X 999      43.398 130.169  24.251  1.00  0.00     0.272 C 
BRANCH   7  21
HETATM   21  N1  LIG X 999      44.291 131.261  15.083  1.00  0.00    -0.398 N 
HETATM   22  H6  LIG X 999      43.702 130.727  14.406  1.00  0.00     0.156 HD
HETATM   23  H7  LIG X 999      45.216 131.598  14.741  1.00  0.00     0.156 HD
ENDBRANCH   7  21
BRANCH  11  24
HETATM   24  N2  LIG X 999      40.976 132.854  20.537  1.00  0.00    -0.398 N 
HETATM   25  H10 LIG X 999      40.799 133.879  20.505  1.00  0.00     0.156 HD
HETATM   26  H11 LIG X 999      40.134 132.244  20.629  1.00  0.00     0.156 HD
ENDBRANCH  11  24
ENDBRANCH   5   6
ENDBRANCH   4   5
ENDBRANCH   3   4
TORSDOF 5
