REMARK VINA RESULT:      -5.2      7.097      8.866
REMARK  1 active torsions:
REMARK  status: ('A' for Active; 'I' for Inactive)
REMARK    1  A    between atoms: N1_2  and  C1_3 
ROOT
HETATM    1  C1  LIG X 999      44.198 126.919  23.111  1.00  0.00     0.120 C 
HETATM    2  C2  LIG X 999      43.069 127.477  23.711  1.00  0.00     0.057 C 
HETATM    3  C3  LIG X 999      41.867 126.759  23.768  1.00  0.00    -0.045 C 
HETATM    4  C4  LIG X 999      40.638 127.551  24.147  1.00  0.00     0.049 C 
HETATM    5  C5  LIG X 999      41.846 125.394  23.336  1.00  0.00     0.008 C 
HETATM    6  C6  LIG X 999      40.757 124.480  23.536  1.00  0.00    -0.013 C 
HETATM    7  C7  LIG X 999      39.747 124.671  24.510  1.00  0.00     0.013 C 
HETATM    8  C8  LIG X 999      38.678 123.780  24.625  1.00  0.00     0.001 C 
HETATM    9  C9  LIG X 999      38.611 122.653  23.811  1.00  0.00     0.001 C 
HETATM   10  C10 LIG X 999      39.642 122.381  22.917  1.00  0.00     0.012 C 
HETATM   11  C11 LIG X 999      40.732 123.260  22.802  1.00  0.00    -0.025 C 
HETATM   12  C12 LIG X 999      41.818 122.899  22.002  1.00  0.00     0.014 C 
HETATM   13  C13 LIG X 999      42.953 123.696  21.958  1.00  0.00     0.031 C 
HETATM   14  C14 LIG X 999      42.987 124.929  22.621  1.00  0.00     0.045 C 
HETATM   15  N2  LIG X 999      44.121 125.685  22.550  1.00  0.00    -0.341 N 
HETATM   16  H12 LIG X 999      44.962 125.309  22.052  1.00  0.00     0.167 HD
ENDROOT
BRANCH   1  17
HETATM   17  N1  LIG X 999      45.309 127.586  23.045  1.00  0.00    -0.284 NA
HETATM   18  H1  LIG X 999      45.344 128.629  23.097  1.00  0.00     0.188 HD
ENDBRANCH   1  17
TORSDOF 1
