REMARK VINA RESULT:      -3.6      3.468      6.439
REMARK  4 active torsions:
REMARK  status: ('A' for Active; 'I' for Inactive)
REMARK    1  A    between atoms: C5_5  and  C6_6 
REMARK    2  A    between atoms: C7_7  and  C8_8 
REMARK    3  A    between atoms: C11_13  and  C12_14 
REMARK    4  A    between atoms: C13_17  and  N3_18 
ROOT
HETATM    1  N3  LIG X 999      44.816 126.382  22.538  1.00  0.00    -0.023 NA
HETATM    2  N4  LIG X 999      44.145 125.361  22.383  1.00  0.00    -0.158 NA
HETATM    3  N5  LIG X 999      43.475 124.342  22.228  1.00  0.00     0.068 N 
ENDROOT
BRANCH   1   4
HETATM    4  C13 LIG X 999      44.184 127.643  22.749  1.00  0.00     0.326 A 
HETATM    5  N2  LIG X 999      42.916 127.778  23.170  1.00  0.00    -0.099 NA
HETATM    6  N1  LIG X 999      42.696 129.081  23.244  1.00  0.00    -0.124 NA
HETATM    7  C12 LIG X 999      43.839 129.689  22.857  1.00  0.00     0.184 A 
HETATM    8  O3  LIG X 999      44.762 128.804  22.558  1.00  0.00    -0.255 OA
BRANCH   7   9
HETATM    9  C11 LIG X 999      44.040 131.192  22.825  1.00  0.00     0.054 C 
HETATM   10  C3  LIG X 999      45.428 131.552  22.189  1.00  0.00     0.030 C 
HETATM   11  C2  LIG X 999      45.822 132.981  22.499  1.00  0.00    -0.021 C 
HETATM   12  C4  LIG X 999      45.462 131.276  20.670  1.00  0.00     0.027 C 
HETATM   13  C1  LIG X 999      45.495 133.532  23.671  1.00  0.00    -0.004 C 
HETATM   14  C15 LIG X 999      44.634 132.809  24.624  1.00  0.00    -0.003 C 
HETATM   15  C14 LIG X 999      43.990 131.695  24.258  1.00  0.00    -0.008 C 
HETATM   16  C5  LIG X 999      44.304 131.972  19.933  1.00  0.00     0.066 C 
HETATM   17  C9  LIG X 999      42.953 131.553  20.529  1.00  0.00     0.019 C 
HETATM   18  C10 LIG X 999      42.894 131.876  22.028  1.00  0.00     0.024 C 
BRANCH  16  19
HETATM   19  C6  LIG X 999      44.346 131.635  18.502  1.00  0.00    -0.090 C 
HETATM   20  C7  LIG X 999      44.382 131.359  17.329  1.00  0.00     0.005 C 
BRANCH  20  21
HETATM   21  C8  LIG X 999      44.425 131.031  15.933  1.00  0.00     0.258 C 
HETATM   22  O1  LIG X 999      45.122 130.061  15.536  1.00  0.00    -0.637 OA
HETATM   23  O2  LIG X 999      43.697 131.782  15.021  1.00  0.00    -0.637 OA
ENDBRANCH  20  21
ENDBRANCH  16  19
ENDBRANCH   7   9
ENDBRANCH   1   4
TORSDOF 4
