REMARK VINA RESULT:      -5.1      6.287      7.752
REMARK  1 active torsions:
REMARK  status: ('A' for Active; 'I' for Inactive)
REMARK    1  A    between atoms: C4_4  and  N1_5 
ROOT
HETATM    1  C1  LIG X 999      44.153 125.966  23.681  1.00  0.00     0.049 C 
HETATM    2  C2  LIG X 999      42.946 126.861  23.537  1.00  0.00    -0.045 C 
HETATM    3  C3  LIG X 999      43.192 128.241  23.593  1.00  0.00     0.055 C 
HETATM    4  C4  LIG X 999      42.140 129.140  23.745  1.00  0.00     0.099 C 
HETATM    5  N2  LIG X 999      40.871 128.675  23.879  1.00  0.00    -0.342 N 
HETATM    6  C5  LIG X 999      40.575 127.347  23.785  1.00  0.00     0.045 C 
HETATM    7  C6  LIG X 999      39.256 126.930  24.003  1.00  0.00     0.031 C 
HETATM    8  C7  LIG X 999      38.913 125.588  23.921  1.00  0.00     0.014 C 
HETATM    9  C8  LIG X 999      39.856 124.644  23.508  1.00  0.00    -0.025 C 
HETATM   10  C9  LIG X 999      39.456 123.310  23.325  1.00  0.00     0.012 C 
HETATM   11  C10 LIG X 999      40.339 122.378  22.786  1.00  0.00     0.001 C 
HETATM   12  C11 LIG X 999      41.611 122.777  22.389  1.00  0.00     0.001 C 
HETATM   13  C12 LIG X 999      42.027 124.096  22.579  1.00  0.00     0.013 C 
HETATM   14  C13 LIG X 999      41.194 125.043  23.222  1.00  0.00    -0.013 C 
HETATM   15  C14 LIG X 999      41.594 126.394  23.494  1.00  0.00     0.008 C 
HETATM   16  H7  LIG X 999      40.105 129.366  24.057  1.00  0.00     0.167 HD
ENDROOT
BRANCH   4  17
HETATM   17  N1  LIG X 999      42.403 130.544  23.824  1.00  0.00    -0.385 N 
HETATM   18  H5  LIG X 999      42.629 131.096  22.967  1.00  0.00     0.157 HD
HETATM   19  H6  LIG X 999      42.367 131.041  24.742  1.00  0.00     0.157 HD
ENDBRANCH   4  17
TORSDOF 1
