REMARK VINA RESULT:      -5.1      6.599      7.787
REMARK  6 active torsions:
REMARK  status: ('A' for Active; 'I' for Inactive)
REMARK    1  A    between atoms: O1_2  and  C1_3 
REMARK    2  A    between atoms: C1_3  and  C4_10 
REMARK    3  A    between atoms: N1_4  and  C2_5 
REMARK    4  A    between atoms: C2_5  and  C3_6 
REMARK    5  A    between atoms: C3_6  and  N2_7 
REMARK    6  A    between atoms: C13_19  and  N5_20 
ROOT
HETATM    1  N2  LIG X 999      51.075 124.310  18.852  1.00  0.00    -0.114 NA
HETATM    2  N3  LIG X 999      52.022 124.360  18.067  1.00  0.00    -0.168 NA
HETATM    3  N4  LIG X 999      52.968 124.411  17.282  1.00  0.00     0.068 N 
ENDROOT
BRANCH   1   4
HETATM    4  C3  LIG X 999      51.274 124.576  20.268  1.00  0.00     0.211 C 
BRANCH   4   5
HETATM    5  C2  LIG X 999      50.749 123.405  21.091  1.00  0.00     0.176 C 
BRANCH   5   6
HETATM    6  N1  LIG X 999      49.445 123.745  21.649  1.00  0.00    -0.265 NA
HETATM    7  C1  LIG X 999      48.329 123.612  20.996  1.00  0.00     0.167 C 
BRANCH   7   8
HETATM    8  O1  LIG X 999      48.348 123.119  19.688  1.00  0.00    -0.344 OA
HETATM    9  H1  LIG X 999      48.676 122.188  19.461  1.00  0.00     0.219 HD
ENDBRANCH   7   8
BRANCH   7  10
HETATM   10  C4  LIG X 999      47.050 123.980  21.653  1.00  0.00     0.017 A 
HETATM   11  C5  LIG X 999      46.075 123.008  21.923  1.00  0.00     0.016 A 
HETATM   12  C6  LIG X 999      44.874 123.361  22.542  1.00  0.00     0.011 A 
HETATM   13  C7  LIG X 999      44.619 124.692  22.907  1.00  0.00    -0.024 A 
HETATM   14  C8  LIG X 999      45.582 125.686  22.611  1.00  0.00    -0.049 A 
HETATM   15  C13 LIG X 999      43.277 125.038  23.514  1.00  0.00     0.179 C 
HETATM   16  C9  LIG X 999      46.791 125.319  21.999  1.00  0.00     0.023 A 
HETATM   17  C10 LIG X 999      45.395 127.123  23.042  1.00  0.00     0.039 C 
HETATM   18  C11 LIG X 999      43.934 127.469  23.341  1.00  0.00     0.007 C 
HETATM   19  C12 LIG X 999      43.305 126.399  24.232  1.00  0.00     0.035 C 
BRANCH  15  20
HETATM   20  N5  LIG X 999      42.269 125.035  22.456  1.00  0.00    -0.105 NA
HETATM   21  N6  LIG X 999      41.199 124.440  22.596  1.00  0.00    -0.167 NA
HETATM   22  N7  LIG X 999      40.131 123.848  22.735  1.00  0.00     0.068 N 
ENDBRANCH  15  20
ENDBRANCH   7  10
ENDBRANCH   5   6
ENDBRANCH   4   5
ENDBRANCH   1   4
TORSDOF 6
