REMARK VINA RESULT:      -7.0      3.676      5.288
REMARK  7 active torsions:
REMARK  status: ('A' for Active; 'I' for Inactive)
REMARK    1  A    between atoms: N1_2  and  C2_3 
REMARK    2  A    between atoms: C2_3  and  C4_5 
REMARK    3  A    between atoms: C4_5  and  C5_6 
REMARK    4  A    between atoms: C5_6  and  C6_7 
REMARK    5  A    between atoms: C6_7  and  C7_8 
REMARK    6  A    between atoms: C7_8  and  N2_9 
REMARK    7  A    between atoms: N2_9  and  C8_10 
ROOT
HETATM    1  C8  LIG X 999      43.411 131.926  17.690  1.00  0.00     0.226 C 
HETATM    2  C9  LIG X 999      44.552 131.275  18.164  1.00  0.00     0.065 C 
HETATM    3  C10 LIG X 999      44.739 131.081  19.542  1.00  0.00    -0.045 C 
HETATM    4  C11 LIG X 999      46.121 130.650  19.968  1.00  0.00     0.049 C 
HETATM    5  C12 LIG X 999      43.684 131.426  20.448  1.00  0.00     0.010 C 
HETATM    6  C13 LIG X 999      42.608 132.191  19.914  1.00  0.00     0.070 C 
HETATM    7  C14 LIG X 999      41.654 132.767  20.751  1.00  0.00     0.033 C 
HETATM    8  C15 LIG X 999      41.725 132.596  22.126  1.00  0.00     0.014 C 
HETATM    9  C16 LIG X 999      42.691 131.750  22.681  1.00  0.00    -0.025 C 
HETATM   10  C17 LIG X 999      42.674 131.509  24.065  1.00  0.00     0.012 C 
HETATM   11  C18 LIG X 999      43.537 130.570  24.625  1.00  0.00     0.001 C 
HETATM   12  C19 LIG X 999      44.391 129.838  23.807  1.00  0.00     0.001 C 
HETATM   13  C20 LIG X 999      44.429 130.078  22.431  1.00  0.00     0.013 C 
HETATM   14  C21 LIG X 999      43.643 131.098  21.845  1.00  0.00    -0.013 C 
HETATM   15  N3  LIG X 999      42.497 132.394  18.575  1.00  0.00    -0.224 NA
ENDROOT
BRANCH   1  16
HETATM   16  N2  LIG X 999      43.210 132.130  16.278  1.00  0.00    -0.028 N 
HETATM   17  H17 LIG X 999      43.607 133.059  16.006  1.00  0.00     0.285 HD
HETATM   18  H18 LIG X 999      42.186 132.150  16.062  1.00  0.00     0.285 HD
BRANCH  16  19
HETATM   19  C7  LIG X 999      43.869 131.079  15.485  1.00  0.00     0.240 C 
BRANCH  19  20
HETATM   20  C6  LIG X 999      44.728 131.663  14.348  1.00  0.00     0.028 C 
BRANCH  20  21
HETATM   21  C5  LIG X 999      46.150 131.967  14.833  1.00  0.00     0.004 C 
BRANCH  21  22
HETATM   22  C4  LIG X 999      47.196 131.378  13.870  1.00  0.00     0.035 C 
BRANCH  22  23
HETATM   23  C2  LIG X 999      47.338 129.841  13.974  1.00  0.00     0.216 C 
HETATM   24  C3  LIG X 999      48.669 129.366  13.364  1.00  0.00     0.042 C 
BRANCH  23  25
HETATM   25  N1  LIG X 999      47.212 129.401  15.379  1.00  0.00     0.083 N 
HETATM   26  C1  LIG X 999      45.942 128.713  15.628  1.00  0.00     0.307 C 
HETATM   27  H4  LIG X 999      47.211 130.251  15.991  1.00  0.00     0.315 HD
ENDBRANCH  23  25
ENDBRANCH  22  23
ENDBRANCH  21  22
ENDBRANCH  20  21
ENDBRANCH  19  20
ENDBRANCH  16  19
ENDBRANCH   1  16
TORSDOF 7
