MODEL 1
REMARK VINA RESULT:      -8.1      0.000      0.000
REMARK  3 active torsions:
REMARK  status: ('A' for Active; 'I' for Inactive)
REMARK    1  A    between atoms: O1_2  and  C2_3 
REMARK    2  A    between atoms: C2_3  and  C3_5 
REMARK    3  A    between atoms: C4_6  and  C5_7 
ROOT
HETATM    1  C5  LIG X 999      45.491 131.313  17.215  1.00  0.00     0.019 A 
HETATM    2  C6  LIG X 999      45.378 132.447  16.402  1.00  0.00     0.021 A 
HETATM    3  C7  LIG X 999      45.962 132.465  15.132  1.00  0.00     0.013 A 
HETATM    4  C8  LIG X 999      46.668 131.346  14.664  1.00  0.00    -0.026 A 
HETATM    5  C9  LIG X 999      47.260 131.353  13.391  1.00  0.00     0.012 A 
HETATM    6  C10 LIG X 999      47.961 130.233  12.937  1.00  0.00     0.001 A 
HETATM    7  C11 LIG X 999      48.076 129.099  13.747  1.00  0.00     0.001 A 
HETATM    8  C12 LIG X 999      47.492 129.078  15.017  1.00  0.00     0.012 A 
HETATM    9  C13 LIG X 999      46.785 130.198  15.485  1.00  0.00    -0.025 A 
HETATM   10  C14 LIG X 999      46.194 130.190  16.758  1.00  0.00     0.032 A 
ENDROOT
BRANCH   1  11
HETATM   11  C4  LIG X 999      44.886 131.301  18.520  1.00  0.00    -0.056 C 
HETATM   12  C3  LIG X 999      44.380 131.291  19.614  1.00  0.00     0.008 C 
BRANCH  12  13
HETATM   13  C2  LIG X 999      43.776 131.279  20.916  1.00  0.00     0.339 C 
HETATM   14  O2  LIG X 999      44.297 130.596  21.837  1.00  0.00    -0.249 OA
BRANCH  13  15
HETATM   15  O1  LIG X 999      42.618 132.027  21.143  1.00  0.00    -0.316 OA
HETATM   16  C1  LIG X 999      41.992 132.797  20.124  1.00  0.00     0.214 C 
ENDBRANCH  13  15
ENDBRANCH  12  13
ENDBRANCH   1  11
TORSDOF 3
ENDMDL
MODEL 2
REMARK VINA RESULT:      -8.0      3.225      7.070
REMARK  3 active torsions:
REMARK  status: ('A' for Active; 'I' for Inactive)
REMARK    1  A    between atoms: O1_2  and  C2_3 
REMARK    2  A    between atoms: C2_3  and  C3_5 
REMARK    3  A    between atoms: C4_6  and  C5_7 
ROOT
HETATM    1  C5  LIG X 999      44.697 131.386  17.844  1.00  0.00     0.019 A 
HETATM    2  C6  LIG X 999      43.366 131.802  17.725  1.00  0.00     0.021 A 
HETATM    3  C7  LIG X 999      42.588 132.010  18.867  1.00  0.00     0.013 A 
HETATM    4  C8  LIG X 999      43.136 131.803  20.142  1.00  0.00    -0.026 A 
HETATM    5  C9  LIG X 999      42.364 132.008  21.296  1.00  0.00     0.012 A 
HETATM    6  C10 LIG X 999      42.922 131.798  22.560  1.00  0.00     0.001 A 
HETATM    7  C11 LIG X 999      44.250 131.382  22.682  1.00  0.00     0.001 A 
HETATM    8  C12 LIG X 999      45.031 131.174  21.541  1.00  0.00     0.012 A 
HETATM    9  C13 LIG X 999      44.483 131.381  20.265  1.00  0.00    -0.025 A 
HETATM   10  C14 LIG X 999      45.256 131.176  19.112  1.00  0.00     0.032 A 
ENDROOT
BRANCH   1  11
HETATM   11  C4  LIG X 999      45.493 131.174  16.664  1.00  0.00    -0.056 C 
HETATM   12  C3  LIG X 999      46.160 130.997  15.675  1.00  0.00     0.008 C 
BRANCH  12  13
HETATM   13  C2  LIG X 999      46.953 130.785  14.499  1.00  0.00     0.339 C 
HETATM   14  O2  LIG X 999      47.259 131.767  13.770  1.00  0.00    -0.249 OA
BRANCH  13  15
HETATM   15  O1  LIG X 999      47.378 129.493  14.179  1.00  0.00    -0.316 OA
HETATM   16  C1  LIG X 999      48.578 129.238  13.460  1.00  0.00     0.214 C 
ENDBRANCH  13  15
ENDBRANCH  12  13
ENDBRANCH   1  11
TORSDOF 3
ENDMDL
MODEL 3
REMARK VINA RESULT:      -7.7      0.984      1.623
REMARK  3 active torsions:
REMARK  status: ('A' for Active; 'I' for Inactive)
REMARK    1  A    between atoms: O1_2  and  C2_3 
REMARK    2  A    between atoms: C2_3  and  C3_5 
REMARK    3  A    between atoms: C4_6  and  C5_7 
ROOT
HETATM    1  C5  LIG X 999      45.434 131.052  17.400  1.00  0.00     0.019 A 
HETATM    2  C6  LIG X 999      44.893 132.029  16.555  1.00  0.00     0.021 A 
HETATM    3  C7  LIG X 999      45.287 132.099  15.216  1.00  0.00     0.013 A 
HETATM    4  C8  LIG X 999      46.229 131.191  14.709  1.00  0.00    -0.026 A 
HETATM    5  C9  LIG X 999      46.633 131.252  13.366  1.00  0.00     0.012 A 
HETATM    6  C10 LIG X 999      47.572 130.342  12.874  1.00  0.00     0.001 A 
HETATM    7  C11 LIG X 999      48.114 129.366  13.715  1.00  0.00     0.001 A 
HETATM    8  C12 LIG X 999      47.721 129.293  15.054  1.00  0.00     0.012 A 
HETATM    9  C13 LIG X 999      46.778 130.202  15.562  1.00  0.00    -0.025 A 
HETATM   10  C14 LIG X 999      46.375 130.140  16.905  1.00  0.00     0.032 A 
ENDROOT
BRANCH   1  11
HETATM   11  C4  LIG X 999      45.022 130.985  18.777  1.00  0.00    -0.056 C 
HETATM   12  C3  LIG X 999      44.678 130.929  19.931  1.00  0.00     0.008 C 
BRANCH  12  13
HETATM   13  C2  LIG X 999      44.268 130.861  21.304  1.00  0.00     0.339 C 
HETATM   14  O2  LIG X 999      43.389 131.656  21.731  1.00  0.00    -0.249 OA
BRANCH  13  15
HETATM   15  O1  LIG X 999      44.851 129.914  22.150  1.00  0.00    -0.316 OA
HETATM   16  C1  LIG X 999      44.262 129.524  23.384  1.00  0.00     0.214 C 
ENDBRANCH  13  15
ENDBRANCH  12  13
ENDBRANCH   1  11
TORSDOF 3
ENDMDL
MODEL 4
REMARK VINA RESULT:      -7.4      1.292      2.529
REMARK  3 active torsions:
REMARK  status: ('A' for Active; 'I' for Inactive)
REMARK    1  A    between atoms: O1_2  and  C2_3 
REMARK    2  A    between atoms: C2_3  and  C3_5 
REMARK    3  A    between atoms: C4_6  and  C5_7 
ROOT
HETATM    1  C5  LIG X 999      44.613 131.242  18.099  1.00  0.00     0.019 A 
HETATM    2  C6  LIG X 999      45.640 130.348  18.427  1.00  0.00     0.021 A 
HETATM    3  C7  LIG X 999      46.495 129.863  17.433  1.00  0.00     0.013 A 
HETATM    4  C8  LIG X 999      46.330 130.268  16.100  1.00  0.00    -0.026 A 
HETATM    5  C9  LIG X 999      47.182 129.787  15.094  1.00  0.00     0.012 A 
HETATM    6  C10 LIG X 999      47.007 130.198  13.770  1.00  0.00     0.001 A 
HETATM    7  C11 LIG X 999      45.983 131.090  13.440  1.00  0.00     0.001 A 
HETATM    8  C12 LIG X 999      45.127 131.578  14.432  1.00  0.00     0.012 A 
HETATM    9  C13 LIG X 999      45.292 131.172  15.766  1.00  0.00    -0.025 A 
HETATM   10  C14 LIG X 999      44.439 131.654  16.772  1.00  0.00     0.032 A 
ENDROOT
BRANCH   1  11
HETATM   11  C4  LIG X 999      43.737 131.738  19.127  1.00  0.00    -0.056 C 
HETATM   12  C3  LIG X 999      43.003 132.154  19.988  1.00  0.00     0.008 C 
BRANCH  12  13
HETATM   13  C2  LIG X 999      42.128 132.648  21.013  1.00  0.00     0.339 C 
HETATM   14  O2  LIG X 999      41.179 133.417  20.703  1.00  0.00    -0.249 OA
BRANCH  13  15
HETATM   15  O1  LIG X 999      42.341 132.269  22.340  1.00  0.00    -0.316 OA
HETATM   16  C1  LIG X 999      43.319 131.307  22.714  1.00  0.00     0.214 C 
ENDBRANCH  13  15
ENDBRANCH  12  13
ENDBRANCH   1  11
TORSDOF 3
ENDMDL
MODEL 5
REMARK VINA RESULT:      -7.4      3.273      7.111
REMARK  3 active torsions:
REMARK  status: ('A' for Active; 'I' for Inactive)
REMARK    1  A    between atoms: O1_2  and  C2_3 
REMARK    2  A    between atoms: C2_3  and  C3_5 
REMARK    3  A    between atoms: C4_6  and  C5_7 
ROOT
HETATM    1  C5  LIG X 999      45.369 130.806  18.101  1.00  0.00     0.019 A 
HETATM    2  C6  LIG X 999      46.007 130.375  19.270  1.00  0.00     0.021 A 
HETATM    3  C7  LIG X 999      45.441 130.640  20.520  1.00  0.00     0.013 A 
HETATM    4  C8  LIG X 999      44.228 131.340  20.612  1.00  0.00    -0.026 A 
HETATM    5  C9  LIG X 999      43.650 131.612  21.862  1.00  0.00     0.012 A 
HETATM    6  C10 LIG X 999      42.443 132.311  21.939  1.00  0.00     0.001 A 
HETATM    7  C11 LIG X 999      41.804 132.743  20.774  1.00  0.00     0.001 A 
HETATM    8  C12 LIG X 999      42.368 132.479  19.522  1.00  0.00     0.012 A 
HETATM    9  C13 LIG X 999      43.581 131.778  19.430  1.00  0.00    -0.025 A 
HETATM   10  C14 LIG X 999      44.158 131.507  18.180  1.00  0.00     0.032 A 
ENDROOT
BRANCH   1  11
HETATM   11  C4  LIG X 999      45.958 130.530  16.817  1.00  0.00    -0.056 C 
HETATM   12  C3  LIG X 999      46.451 130.298  15.741  1.00  0.00     0.008 C 
BRANCH  12  13
HETATM   13  C2  LIG X 999      47.037 130.024  14.461  1.00  0.00     0.339 C 
HETATM   14  O2  LIG X 999      47.720 128.977  14.301  1.00  0.00    -0.249 OA
BRANCH  13  15
HETATM   15  O1  LIG X 999      46.842 130.922  13.409  1.00  0.00    -0.316 OA
HETATM   16  C1  LIG X 999      47.867 131.244  12.478  1.00  0.00     0.214 C 
ENDBRANCH  13  15
ENDBRANCH  12  13
ENDBRANCH   1  11
TORSDOF 3
ENDMDL
MODEL 6
REMARK VINA RESULT:      -7.3      3.085      7.215
REMARK  3 active torsions:
REMARK  status: ('A' for Active; 'I' for Inactive)
REMARK    1  A    between atoms: O1_2  and  C2_3 
REMARK    2  A    between atoms: C2_3  and  C3_5 
REMARK    3  A    between atoms: C4_6  and  C5_7 
ROOT
HETATM    1  C5  LIG X 999      43.922 131.709  18.411  1.00  0.00     0.019 A 
HETATM    2  C6  LIG X 999      42.611 132.175  18.568  1.00  0.00     0.021 A 
HETATM    3  C7  LIG X 999      42.054 132.297  19.844  1.00  0.00     0.013 A 
HETATM    4  C8  LIG X 999      42.806 131.953  20.978  1.00  0.00    -0.026 A 
HETATM    5  C9  LIG X 999      42.258 132.071  22.264  1.00  0.00     0.012 A 
HETATM    6  C10 LIG X 999      43.018 131.724  23.385  1.00  0.00     0.001 A 
HETATM    7  C11 LIG X 999      44.326 131.259  23.232  1.00  0.00     0.001 A 
HETATM    8  C12 LIG X 999      44.885 131.136  21.956  1.00  0.00     0.012 A 
HETATM    9  C13 LIG X 999      44.133 131.481  20.822  1.00  0.00    -0.025 A 
HETATM   10  C14 LIG X 999      44.682 131.362  19.535  1.00  0.00     0.032 A 
ENDROOT
BRANCH   1  11
HETATM   11  C4  LIG X 999      44.488 131.586  17.094  1.00  0.00    -0.056 C 
HETATM   12  C3  LIG X 999      44.963 131.484  15.990  1.00  0.00     0.008 C 
BRANCH  12  13
HETATM   13  C2  LIG X 999      45.528 131.361  14.677  1.00  0.00     0.339 C 
HETATM   14  O2  LIG X 999      44.784 131.063  13.705  1.00  0.00    -0.249 OA
BRANCH  13  15
HETATM   15  O1  LIG X 999      46.897 131.574  14.495  1.00  0.00    -0.316 OA
HETATM   16  C1  LIG X 999      47.592 131.137  13.335  1.00  0.00     0.214 C 
ENDBRANCH  13  15
ENDBRANCH  12  13
ENDBRANCH   1  11
TORSDOF 3
ENDMDL
MODEL 7
REMARK VINA RESULT:      -7.2      1.782      2.933
REMARK  3 active torsions:
REMARK  status: ('A' for Active; 'I' for Inactive)
REMARK    1  A    between atoms: O1_2  and  C2_3 
REMARK    2  A    between atoms: C2_3  and  C3_5 
REMARK    3  A    between atoms: C4_6  and  C5_7 
ROOT
HETATM    1  C5  LIG X 999      44.199 131.343  19.197  1.00  0.00     0.019 A 
HETATM    2  C6  LIG X 999      43.097 131.843  18.492  1.00  0.00     0.021 A 
HETATM    3  C7  LIG X 999      43.115 131.885  17.095  1.00  0.00     0.013 A 
HETATM    4  C8  LIG X 999      44.238 131.427  16.389  1.00  0.00    -0.026 A 
HETATM    5  C9  LIG X 999      44.268 131.464  14.986  1.00  0.00     0.012 A 
HETATM    6  C10 LIG X 999      45.392 131.005  14.295  1.00  0.00     0.001 A 
HETATM    7  C11 LIG X 999      46.493 130.506  14.996  1.00  0.00     0.001 A 
HETATM    8  C12 LIG X 999      46.478 130.462  16.394  1.00  0.00     0.012 A 
HETATM    9  C13 LIG X 999      45.354 130.921  17.100  1.00  0.00    -0.025 A 
HETATM   10  C14 LIG X 999      45.326 130.882  18.503  1.00  0.00     0.032 A 
ENDROOT
BRANCH   1  11
HETATM   11  C4  LIG X 999      44.174 131.302  20.635  1.00  0.00    -0.056 C 
HETATM   12  C3  LIG X 999      44.153 131.267  21.840  1.00  0.00     0.008 C 
BRANCH  12  13
HETATM   13  C2  LIG X 999      44.127 131.227  23.274  1.00  0.00     0.339 C 
HETATM   14  O2  LIG X 999      44.476 132.244  23.931  1.00  0.00    -0.249 OA
BRANCH  13  15
HETATM   15  O1  LIG X 999      43.712 130.061  23.921  1.00  0.00    -0.316 OA
HETATM   16  C1  LIG X 999      42.372 129.590  23.867  1.00  0.00     0.214 C 
ENDBRANCH  13  15
ENDBRANCH  12  13
ENDBRANCH   1  11
TORSDOF 3
ENDMDL
MODEL 8
REMARK VINA RESULT:      -6.2      3.070      7.099
REMARK  3 active torsions:
REMARK  status: ('A' for Active; 'I' for Inactive)
REMARK    1  A    between atoms: O1_2  and  C2_3 
REMARK    2  A    between atoms: C2_3  and  C3_5 
REMARK    3  A    between atoms: C4_6  and  C5_7 
ROOT
HETATM    1  C5  LIG X 999      44.362 131.312  19.090  1.00  0.00     0.019 A 
HETATM    2  C6  LIG X 999      43.318 132.228  19.268  1.00  0.00     0.021 A 
HETATM    3  C7  LIG X 999      42.746 132.409  20.530  1.00  0.00     0.013 A 
HETATM    4  C8  LIG X 999      43.216 131.673  21.630  1.00  0.00    -0.026 A 
HETATM    5  C9  LIG X 999      42.650 131.847  22.902  1.00  0.00     0.012 A 
HETATM    6  C10 LIG X 999      43.126 131.108  23.988  1.00  0.00     0.001 A 
HETATM    7  C11 LIG X 999      44.168 130.193  23.814  1.00  0.00     0.001 A 
HETATM    8  C12 LIG X 999      44.741 130.010  22.553  1.00  0.00     0.012 A 
HETATM    9  C13 LIG X 999      44.272 130.746  21.452  1.00  0.00    -0.025 A 
HETATM   10  C14 LIG X 999      44.839 130.572  20.180  1.00  0.00     0.032 A 
ENDROOT
BRANCH   1  11
HETATM   11  C4  LIG X 999      44.946 131.131  17.787  1.00  0.00    -0.056 C 
HETATM   12  C3  LIG X 999      45.435 130.979  16.696  1.00  0.00     0.008 C 
BRANCH  12  13
HETATM   13  C2  LIG X 999      46.017 130.799  15.397  1.00  0.00     0.339 C 
HETATM   14  O2  LIG X 999      47.232 130.482  15.298  1.00  0.00    -0.249 OA
BRANCH  13  15
HETATM   15  O1  LIG X 999      45.226 130.977  14.259  1.00  0.00    -0.316 OA
HETATM   16  C1  LIG X 999      43.923 131.545  14.314  1.00  0.00     0.214 C 
ENDBRANCH  13  15
ENDBRANCH  12  13
ENDBRANCH   1  11
TORSDOF 3
ENDMDL
