REMARK VINA RESULT:      -8.3      0.000      0.000
REMARK  1 active torsions:
REMARK  status: ('A' for Active; 'I' for Inactive)
REMARK    1  A    between atoms: C11_13  and  O1_14 
ROOT
HETATM    1  H1  LIG X 999      47.142 129.657  15.784  1.00  0.00     0.187 HD
HETATM    2  N1  LIG X 999      46.850 129.868  16.765  1.00  0.00    -0.300 NA
HETATM    3  C1  LIG X 999      45.739 130.481  17.028  1.00  0.00     0.059 A 
HETATM    4  C2  LIG X 999      44.816 130.922  15.923  1.00  0.00     0.034 A 
HETATM    5  C3  LIG X 999      43.655 131.563  16.198  1.00  0.00     0.033 A 
HETATM    6  C4  LIG X 999      43.317 131.821  17.609  1.00  0.00     0.046 A 
HETATM    7  C5  LIG X 999      44.149 131.424  18.601  1.00  0.00     0.018 A 
HETATM    8  C6  LIG X 999      45.346 130.768  18.434  1.00  0.00     0.005 A 
HETATM    9  C7  LIG X 999      46.064 130.441  19.603  1.00  0.00     0.015 A 
HETATM   10  C8  LIG X 999      45.535 130.795  20.875  1.00  0.00     0.002 A 
HETATM   11  C9  LIG X 999      44.292 131.472  20.982  1.00  0.00     0.017 A 
HETATM   12  C10 LIG X 999      43.621 131.772  19.797  1.00  0.00     0.028 A 
HETATM   13  C11 LIG X 999      42.424 132.403  19.489  1.00  0.00     0.151 A 
HETATM   14  N2  LIG X 999      42.236 132.434  18.140  1.00  0.00    -0.336 N 
HETATM   15  H8  LIG X 999      41.425 132.844  17.624  1.00  0.00     0.168 HD
ENDROOT
BRANCH  13  16
HETATM   16  O1  LIG X 999      41.533 132.933  20.415  1.00  0.00    -0.345 OA
HETATM   17  H7  LIG X 999      40.780 133.542  20.117  1.00  0.00     0.219 HD
ENDBRANCH  13  16
TORSDOF 1
