REMARK VINA RESULT:      -7.4      2.692      5.030
REMARK  4 active torsions:
REMARK  status: ('A' for Active; 'I' for Inactive)
REMARK    1  A    between atoms: C3_3  and  O1_4 
REMARK    2  A    between atoms: O1_4  and  C4_5 
REMARK    3  A    between atoms: C4_5  and  O2_6 
REMARK    4  A    between atoms: C5_8  and  C6_9 
ROOT
HETATM    1  C1  LIG X 999      46.170 126.137  22.116  1.00  0.00     0.014 C 
HETATM    2  C2  LIG X 999      45.338 126.883  22.568  1.00  0.00    -0.091 C 
HETATM    3  C3  LIG X 999      44.328 127.789  23.114  1.00  0.00     0.270 C 
ENDROOT
BRANCH   3   4
HETATM    4  O1  LIG X 999      44.420 129.042  22.449  1.00  0.00    -0.319 OA
BRANCH   4   5
HETATM    5  C4  LIG X 999      44.401 130.279  23.110  1.00  0.00     0.179 C 
HETATM    6  C5  LIG X 999      44.281 131.415  22.414  1.00  0.00     0.075 C 
BRANCH   5   7
HETATM    7  O2  LIG X 999      44.534 130.359  24.497  1.00  0.00    -0.341 OA
HETATM    8  H4  LIG X 999      45.409 130.593  24.946  1.00  0.00     0.220 HD
ENDBRANCH   5   7
BRANCH   6   9
HETATM    9  C6  LIG X 999      44.128 131.479  20.942  1.00  0.00    -0.031 A 
HETATM   10  C7  LIG X 999      42.908 131.917  20.408  1.00  0.00     0.012 A 
HETATM   11  C8  LIG X 999      42.715 131.977  19.025  1.00  0.00     0.013 A 
HETATM   12  C9  LIG X 999      43.738 131.581  18.152  1.00  0.00    -0.026 A 
HETATM   13  C10 LIG X 999      43.556 131.637  16.762  1.00  0.00     0.012 A 
HETATM   14  C14 LIG X 999      44.965 131.111  18.680  1.00  0.00    -0.025 A 
HETATM   15  C11 LIG X 999      44.581 131.231  15.903  1.00  0.00     0.001 A 
HETATM   16  C12 LIG X 999      45.791 130.763  16.423  1.00  0.00     0.001 A 
HETATM   17  C13 LIG X 999      45.984 130.702  17.806  1.00  0.00     0.012 A 
HETATM   18  C15 LIG X 999      45.149 131.054  20.070  1.00  0.00     0.024 A 
ENDBRANCH   6   9
ENDBRANCH   4   5
ENDBRANCH   3   4
TORSDOF 4
