REMARK VINA RESULT:      -7.0      0.000      0.000
REMARK  7 active torsions:
REMARK  status: ('A' for Active; 'I' for Inactive)
REMARK    1  A    between atoms: S1_2  and  C1_3 
REMARK    2  A    between atoms: C1_3  and  N2_11 
REMARK    3  A    between atoms: N1_4  and  C2_6 
REMARK    4  A    between atoms: C2_6  and  C3_7 
REMARK    5  A    between atoms: C3_7  and  C4_8 
REMARK    6  A    between atoms: C4_8  and  S2_9 
REMARK    7  A    between atoms: N2_11  and  C5_14 
ROOT
HETATM    1  N2  LIG X 999      44.630 132.591  18.581  1.00  0.00     0.006 N 
HETATM    2  H10 LIG X 999      44.349 133.509  18.166  1.00  0.00     0.293 HD
HETATM    3  H11 LIG X 999      45.337 132.810  19.321  1.00  0.00     0.293 HD
ENDROOT
BRANCH   1   4
HETATM    4  C1  LIG X 999      43.479 131.960  19.198  1.00  0.00     0.240 C 
HETATM    5  N1  LIG X 999      43.520 131.390  20.367  1.00  0.00    -0.365 N 
HETATM    6  H2  LIG X 999      42.656 130.959  20.728  1.00  0.00     0.161 HD
BRANCH   4   7
HETATM    7  S1  LIG X 999      41.940 131.877  18.264  1.00  0.00    -0.100 SA
HETATM    8  H1  LIG X 999      41.379 132.960  18.965  1.00  0.00     0.110 HD
ENDBRANCH   4   7
BRANCH   5   9
HETATM    9  C2  LIG X 999      44.672 131.361  21.251  1.00  0.00     0.122 C 
BRANCH   9  10
HETATM   10  C3  LIG X 999      44.512 130.242  22.290  1.00  0.00     0.029 C 
BRANCH  10  11
HETATM   11  C4  LIG X 999      43.112 130.212  22.911  1.00  0.00     0.072 C 
BRANCH  11  12
HETATM   12  S2  LIG X 999      42.827 131.647  23.997  1.00  0.00    -0.182 SA
HETATM   13  H9  LIG X 999      43.538 132.527  23.162  1.00  0.00     0.101 HD
ENDBRANCH  11  12
ENDBRANCH  10  11
ENDBRANCH   9  10
ENDBRANCH   5   9
ENDBRANCH   1   4
BRANCH   1  14
HETATM   14  C5  LIG X 999      45.269 131.727  17.616  1.00  0.00     0.141 A 
HETATM   15  C6  LIG X 999      45.464 130.364  17.902  1.00  0.00     0.038 A 
HETATM   16  C7  LIG X 999      46.086 129.521  16.977  1.00  0.00     0.014 A 
HETATM   17  C8  LIG X 999      46.504 130.023  15.737  1.00  0.00    -0.026 A 
HETATM   18  C9  LIG X 999      47.135 129.187  14.804  1.00  0.00     0.012 A 
HETATM   19  C13 LIG X 999      46.279 131.384  15.421  1.00  0.00    -0.024 A 
HETATM   20  C10 LIG X 999      47.540 129.696  13.567  1.00  0.00     0.001 A 
HETATM   21  C11 LIG X 999      47.316 131.040  13.252  1.00  0.00     0.001 A 
HETATM   22  C12 LIG X 999      46.688 131.882  14.174  1.00  0.00     0.012 A 
HETATM   23  C14 LIG X 999      45.653 132.221  16.355  1.00  0.00     0.049 A 
ENDBRANCH   1  14
TORSDOF 7
