REMARK VINA RESULT:      -7.9      0.000      0.000
REMARK  1 active torsions:
REMARK  status: ('A' for Active; 'I' for Inactive)
REMARK    1  A    between atoms: C3_3  and  N1_4 
ROOT
HETATM    1  N1  LIG X 999      47.194 129.550  15.206  1.00  0.00    -0.072 NA
HETATM    2  N2  LIG X 999      47.881 129.530  14.184  1.00  0.00    -0.162 NA
HETATM    3  N3  LIG X 999      48.570 129.511  13.165  1.00  0.00     0.068 N 
ENDROOT
BRANCH   1   4
HETATM    4  C3  LIG X 999      46.003 130.343  15.312  1.00  0.00     0.104 A 
HETATM    5  C2  LIG X 999      45.413 130.780  14.120  1.00  0.00     0.035 A 
HETATM    6  C1  LIG X 999      44.212 131.491  14.133  1.00  0.00     0.003 A 
HETATM    7  C10 LIG X 999      43.584 131.790  15.339  1.00  0.00     0.012 A 
HETATM    8  C9  LIG X 999      44.168 131.408  16.553  1.00  0.00    -0.023 A 
HETATM    9  C4  LIG X 999      45.407 130.691  16.555  1.00  0.00     0.006 A 
HETATM   10  C8  LIG X 999      43.544 131.748  17.769  1.00  0.00     0.021 A 
HETATM   11  C5  LIG X 999      46.016 130.392  17.798  1.00  0.00     0.024 A 
HETATM   12  C6  LIG X 999      45.367 130.757  18.978  1.00  0.00    -0.023 A 
HETATM   13  C7  LIG X 999      44.171 131.402  18.964  1.00  0.00    -0.024 A 
HETATM   14  C14 LIG X 999      45.816 130.525  20.367  1.00  0.00     0.276 C 
HETATM   15  C11 LIG X 999      43.702 131.661  20.342  1.00  0.00     0.276 C 
HETATM   16  N4  LIG X 999      44.823 131.232  21.238  1.00  0.00    -0.067 N 
HETATM   17  C12 LIG X 999      44.326 130.330  22.301  1.00  0.00     0.272 C 
HETATM   18  C13 LIG X 999      45.453 132.418  21.866  1.00  0.00     0.272 C 
ENDBRANCH   1   4
TORSDOF 1
