REMARK VINA RESULT:      -6.3      7.258      8.533
REMARK  2 active torsions:
REMARK  status: ('A' for Active; 'I' for Inactive)
REMARK    1  A    between atoms: N1_1  and  C1_2 
REMARK    2  A    between atoms: C2_5  and  C3_6 
ROOT
HETATM    1  C3  LIG X 999      49.143 136.169  21.356  1.00  0.00     0.028 A 
HETATM    2  C4  LIG X 999      48.127 135.222  21.573  1.00  0.00     0.017 A 
HETATM    3  C5  LIG X 999      48.249 134.253  22.568  1.00  0.00     0.002 A 
HETATM    4  C6  LIG X 999      49.387 134.210  23.369  1.00  0.00     0.012 A 
HETATM    5  C7  LIG X 999      50.411 135.150  23.194  1.00  0.00    -0.025 A 
HETATM    6  C8  LIG X 999      51.544 135.108  24.021  1.00  0.00     0.012 A 
HETATM    7  C9  LIG X 999      52.555 136.058  23.879  1.00  0.00     0.001 A 
HETATM    8  C10 LIG X 999      52.439 137.065  22.921  1.00  0.00     0.001 A 
HETATM    9  C11 LIG X 999      51.320 137.120  22.088  1.00  0.00     0.013 A 
HETATM   10  C12 LIG X 999      50.295 136.152  22.191  1.00  0.00    -0.011 A 
ENDROOT
BRANCH   1  11
HETATM   11  C2  LIG X 999      48.977 137.118  20.230  1.00  0.00     0.178 A 
HETATM   12  N3  LIG X 999      47.994 138.035  20.137  1.00  0.00    -0.252 N 
HETATM   13  N2  LIG X 999      48.146 138.677  18.992  1.00  0.00    -0.128 NA
HETATM   14  H3  LIG X 999      47.241 138.234  20.833  1.00  0.00     0.191 HD
HETATM   15  C1  LIG X 999      49.228 138.114  18.420  1.00  0.00     0.263 A 
HETATM   16  O1  LIG X 999      49.741 137.161  19.162  1.00  0.00    -0.258 OA
BRANCH  15  17
HETATM   17  N1  LIG X 999      49.751 138.509  17.155  1.00  0.00    -0.362 N 
HETATM   18  H1  LIG X 999      49.765 139.515  16.881  1.00  0.00     0.159 HD
HETATM   19  H2  LIG X 999      50.126 137.791  16.497  1.00  0.00     0.159 HD
ENDBRANCH  15  17
ENDBRANCH   1  11
TORSDOF 2
