REMARK VINA RESULT:      -5.1      4.288      6.857
REMARK  5 active torsions:
REMARK  status: ('A' for Active; 'I' for Inactive)
REMARK    1  A    between atoms: C1_1  and  N1_2 
REMARK    2  A    between atoms: C2_5  and  O1_6 
REMARK    3  A    between atoms: C2_5  and  C5_12 
REMARK    4  A    between atoms: O1_6  and  C3_7 
REMARK    5  A    between atoms: C3_7  and  C4_9 
ROOT
HETATM    1  N1  LIG X 999      42.672 131.714  24.392  1.00  0.00    -0.082 NA
HETATM    2  N2  LIG X 999      43.641 132.466  24.493  1.00  0.00    -0.163 NA
HETATM    3  N3  LIG X 999      44.609 133.218  24.594  1.00  0.00     0.068 N 
ENDROOT
BRANCH   1   4
HETATM    4  C1  LIG X 999      42.857 130.303  24.285  1.00  0.00     0.193 C 
HETATM    5  C2  LIG X 999      43.658 129.795  23.342  1.00  0.00     0.101 C 
BRANCH   5   6
HETATM    6  O1  LIG X 999      44.344 130.672  22.488  1.00  0.00    -0.324 OA
BRANCH   6   7
HETATM    7  C3  LIG X 999      44.042 130.875  21.101  1.00  0.00     0.273 C 
HETATM    8 CL1  LIG X 999      42.709 132.039  20.842  1.00  0.00    -0.090 Cl
BRANCH   7   9
HETATM    9  C4  LIG X 999      45.288 131.248  20.284  1.00  0.00     0.309 C 
HETATM   10  F1  LIG X 999      45.928 132.324  20.869  1.00  0.00    -0.229 F 
HETATM   11 CL2  LIG X 999      44.913 131.645  18.582  1.00  0.00    -0.086 Cl
ENDBRANCH   7   9
ENDBRANCH   6   7
ENDBRANCH   5   6
BRANCH   5  12
HETATM   12  C5  LIG X 999      43.872 128.332  23.250  1.00  0.00    -0.000 A 
HETATM   13  C6  LIG X 999      42.856 127.456  23.666  1.00  0.00     0.015 A 
HETATM   14  C7  LIG X 999      43.036 126.073  23.589  1.00  0.00     0.013 A 
HETATM   15  C8  LIG X 999      44.235 125.544  23.092  1.00  0.00    -0.026 A 
HETATM   16  C9  LIG X 999      44.427 124.155  23.013  1.00  0.00     0.012 A 
HETATM   17  C13 LIG X 999      45.264 126.419  22.666  1.00  0.00    -0.025 A 
HETATM   18  C10 LIG X 999      45.628 123.640  22.517  1.00  0.00     0.001 A 
HETATM   19  C11 LIG X 999      46.643 124.504  22.097  1.00  0.00     0.001 A 
HETATM   20  C12 LIG X 999      46.466 125.888  22.170  1.00  0.00     0.012 A 
HETATM   21  C14 LIG X 999      45.074 127.807  22.745  1.00  0.00     0.026 A 
ENDBRANCH   5  12
ENDBRANCH   1   4
TORSDOF 5
