REMARK VINA RESULT:      -5.1      1.946      3.418
REMARK  1 active torsions:
REMARK  status: ('A' for Active; 'I' for Inactive)
REMARK    1  A    between atoms: N1_2  and  C1_3 
ROOT
HETATM    1  C1  LIG X 999      43.113 132.134  19.178  1.00  0.00     0.120 C 
HETATM    2  C2  LIG X 999      44.250 131.385  19.481  1.00  0.00     0.057 C 
HETATM    3  C3  LIG X 999      45.026 130.825  18.455  1.00  0.00    -0.045 C 
HETATM    4  C4  LIG X 999      46.038 129.789  18.880  1.00  0.00     0.049 C 
HETATM    5  C5  LIG X 999      44.725 131.148  17.094  1.00  0.00     0.008 C 
HETATM    6  C6  LIG X 999      45.551 130.827  15.965  1.00  0.00    -0.013 C 
HETATM    7  C7  LIG X 999      46.929 130.518  16.070  1.00  0.00     0.013 C 
HETATM    8  C8  LIG X 999      47.675 130.158  14.947  1.00  0.00     0.001 C 
HETATM    9  C9  LIG X 999      47.087 130.145  13.686  1.00  0.00     0.001 C 
HETATM   10  C10 LIG X 999      45.763 130.547  13.534  1.00  0.00     0.012 C 
HETATM   11  C11 LIG X 999      45.004 130.927  14.654  1.00  0.00    -0.025 C 
HETATM   12  C12 LIG X 999      43.726 131.455  14.463  1.00  0.00     0.014 C 
HETATM   13  C13 LIG X 999      43.000 131.939  15.542  1.00  0.00     0.031 C 
HETATM   14  C14 LIG X 999      43.483 131.805  16.848  1.00  0.00     0.045 C 
HETATM   15  N2  LIG X 999      42.737 132.292  17.883  1.00  0.00    -0.341 N 
HETATM   16  H12 LIG X 999      41.847 132.806  17.680  1.00  0.00     0.167 HD
ENDROOT
BRANCH   1  17
HETATM   17  N1  LIG X 999      42.387 132.644  20.123  1.00  0.00    -0.284 NA
HETATM   18  H1  LIG X 999      41.596 133.301  19.936  1.00  0.00     0.188 HD
ENDBRANCH   1  17
TORSDOF 1
