REMARK VINA RESULT:      -4.6      4.767      7.162
REMARK  3 active torsions:
REMARK  status: ('A' for Active; 'I' for Inactive)
REMARK    1  A    between atoms: C6_6  and  C7_7 
REMARK    2  A    between atoms: C8_8  and  C9_9 
REMARK    3  A    between atoms: C10_12  and  N1_13 
ROOT
HETATM    1  N1  LIG X 999      42.239 132.239  22.137  1.00  0.00    -0.105 NA
HETATM    2  N2  LIG X 999      41.943 132.657  21.017  1.00  0.00    -0.167 NA
HETATM    3  N3  LIG X 999      41.648 133.073  19.898  1.00  0.00     0.068 N 
ENDROOT
BRANCH   1   4
HETATM    4  C10 LIG X 999      43.626 132.219  22.595  1.00  0.00     0.179 C 
HETATM    5  C4  LIG X 999      44.366 131.122  21.859  1.00  0.00    -0.023 A 
HETATM    6  C3  LIG X 999      44.628 129.867  22.460  1.00  0.00    -0.050 A 
HETATM    7  C5  LIG X 999      44.718 131.329  20.513  1.00  0.00     0.030 A 
HETATM    8  C2  LIG X 999      45.272 128.866  21.716  1.00  0.00     0.009 A 
HETATM    9  C13 LIG X 999      44.341 129.612  23.922  1.00  0.00     0.039 C 
HETATM   10  C1  LIG X 999      45.622 129.087  20.383  1.00  0.00     0.021 A 
HETATM   11  C6  LIG X 999      45.347 130.317  19.779  1.00  0.00     0.018 A 
HETATM   12  C12 LIG X 999      43.327 130.598  24.508  1.00  0.00     0.007 C 
HETATM   13  C11 LIG X 999      43.692 132.031  24.122  1.00  0.00     0.035 C 
BRANCH  11  14
HETATM   14  C7  LIG X 999      45.705 130.540  18.404  1.00  0.00    -0.056 C 
HETATM   15  C8  LIG X 999      46.005 130.727  17.251  1.00  0.00     0.010 C 
BRANCH  15  16
HETATM   16  C9  LIG X 999      46.361 130.949  15.878  1.00  0.00     0.258 C 
HETATM   17  O1  LIG X 999      46.142 132.067  15.345  1.00  0.00    -0.637 OA
HETATM   18  O2  LIG X 999      46.949 129.931  15.140  1.00  0.00    -0.637 OA
ENDBRANCH  15  16
ENDBRANCH  11  14
ENDBRANCH   1   4
TORSDOF 3
