REMARK VINA RESULT:      -7.0      1.265      1.597
REMARK  2 active torsions:
REMARK  status: ('A' for Active; 'I' for Inactive)
REMARK    1  A    between atoms: C2_5  and  C3_6 
REMARK    2  A    between atoms: N3_18  and  C13_19 
ROOT
HETATM    1  H1  LIG X 999      42.443 132.151  15.157  1.00  0.00     0.190 HD
HETATM    2  N1  LIG X 999      43.440 131.840  15.142  1.00  0.00    -0.260 NA
HETATM    3  C1  LIG X 999      44.067 131.575  16.242  1.00  0.00     0.268 A 
HETATM    4  O1  LIG X 999      43.523 131.653  17.436  1.00  0.00    -0.257 OA
HETATM    5  C2  LIG X 999      44.467 131.257  18.266  1.00  0.00     0.177 A 
HETATM    6  N2  LIG X 999      45.598 130.947  17.595  1.00  0.00    -0.269 N 
HETATM    7  H9  LIG X 999      46.515 130.649  17.994  1.00  0.00     0.190 HD
HETATM    8  N3  LIG X 999      45.347 131.154  16.312  1.00  0.00    -0.212 N 
ENDROOT
BRANCH   5   9
HETATM    9  C3  LIG X 999      44.315 131.219  19.735  1.00  0.00     0.028 A 
HETATM   10  C4  LIG X 999      45.275 130.503  20.467  1.00  0.00     0.017 A 
HETATM   11  C5  LIG X 999      45.157 130.357  21.849  1.00  0.00     0.002 A 
HETATM   12  C6  LIG X 999      44.082 130.928  22.527  1.00  0.00     0.012 A 
HETATM   13  C7  LIG X 999      43.126 131.679  21.829  1.00  0.00    -0.025 A 
HETATM   14  C8  LIG X 999      42.064 132.278  22.524  1.00  0.00     0.012 A 
HETATM   15  C12 LIG X 999      43.241 131.848  20.422  1.00  0.00    -0.011 A 
HETATM   16  C9  LIG X 999      41.131 133.063  21.845  1.00  0.00     0.001 A 
HETATM   17  C10 LIG X 999      41.257 133.267  20.472  1.00  0.00     0.001 A 
HETATM   18  C11 LIG X 999      42.306 132.675  19.764  1.00  0.00     0.013 A 
ENDBRANCH   5   9
BRANCH   8  19
HETATM   19  C13 LIG X 999      46.282 130.916  15.246  1.00  0.00     0.105 A 
HETATM   20  C14 LIG X 999      46.722 131.988  14.457  1.00  0.00     0.054 A 
HETATM   21  C15 LIG X 999      47.629 131.756  13.419  1.00  0.00     0.122 A 
HETATM   22  N4  LIG X 999      48.069 130.495  13.170  1.00  0.00    -0.230 NA
HETATM   23  C16 LIG X 999      47.648 129.432  13.907  1.00  0.00     0.251 A 
HETATM   24  F1  LIG X 999      48.101 128.190  13.612  1.00  0.00    -0.181 F 
HETATM   25  C17 LIG X 999      46.743 129.620  14.956  1.00  0.00     0.202 A 
HETATM   26  F2  LIG X 999      46.286 128.544  15.645  1.00  0.00    -0.199 F 
ENDBRANCH   8  19
TORSDOF 2
