REMARK VINA RESULT:      -5.8      3.406      8.007
REMARK  2 active torsions:
REMARK  status: ('A' for Active; 'I' for Inactive)
REMARK    1  A    between atoms: C9_10  and  N2_11 
REMARK       I    between atoms: N2_11  and  C10_12 
REMARK    2  A    between atoms: C10_12  and  C11_14 
ROOT
HETATM    1  C11 LIG X 999      42.618 131.497  23.690  1.00  0.00     0.280 C 
HETATM    2 CL1  LIG X 999      42.225 130.031  24.625  1.00  0.00    -0.099 Cl
HETATM    3  C12 LIG X 999      43.859 132.086  24.201  1.00  0.00     0.089 C 
HETATM    4  N3  LIG X 999      44.838 132.552  24.605  1.00  0.00    -0.195 NA
ENDROOT
BRANCH   1   5
HETATM    5  C10 LIG X 999      42.766 131.161  22.237  1.00  0.00     0.254 C 
HETATM    6  N2  LIG X 999      42.527 132.160  21.231  1.00  0.00    -0.325 N 
HETATM    7  H12 LIG X 999      42.020 133.028  21.516  1.00  0.00     0.169 HD
HETATM    8  O1  LIG X 999      43.048 129.976  21.906  1.00  0.00    -0.270 OA
BRANCH   6   9
HETATM    9  C9  LIG X 999      42.842 131.991  19.838  1.00  0.00     0.035 A 
HETATM   10  C8  LIG X 999      41.848 132.230  18.877  1.00  0.00     0.030 A 
HETATM   11  C7  LIG X 999      42.124 132.095  17.514  1.00  0.00     0.014 A 
HETATM   12  C6  LIG X 999      43.408 131.733  17.088  1.00  0.00    -0.025 A 
HETATM   13  C5  LIG X 999      43.697 131.598  15.716  1.00  0.00     0.021 A 
HETATM   14  C14 LIG X 999      44.431 131.511  18.053  1.00  0.00    -0.023 A 
HETATM   15  C4  LIG X 999      44.992 131.240  15.338  1.00  0.00    -0.024 A 
HETATM   16  C3  LIG X 999      45.522 131.067  13.969  1.00  0.00     0.276 C 
HETATM   17  C16 LIG X 999      45.972 131.031  16.260  1.00  0.00    -0.024 A 
HETATM   18  N1  LIG X 999      46.920 130.560  14.138  1.00  0.00    -0.067 N 
HETATM   19  C1  LIG X 999      47.866 131.346  13.313  1.00  0.00     0.272 C 
HETATM   20  C2  LIG X 999      46.997 129.136  13.733  1.00  0.00     0.272 C 
HETATM   21  C17 LIG X 999      47.249 130.697  15.593  1.00  0.00     0.276 C 
HETATM   22  C15 LIG X 999      45.728 131.162  17.628  1.00  0.00     0.021 A 
HETATM   23  C13 LIG X 999      44.140 131.649  19.418  1.00  0.00     0.042 A 
ENDBRANCH   6   9
ENDBRANCH   1   5
TORSDOF 2
