REMARK VINA RESULT:      -4.8      8.368      9.977
REMARK  1 active torsions:
REMARK  status: ('A' for Active; 'I' for Inactive)
REMARK    1  A    between atoms: C8_8  and  N1_9 
ROOT
HETATM    1  N1  LIG X 999      39.224 126.606  24.422  1.00  0.00    -0.072 NA
HETATM    2  N2  LIG X 999      38.088 126.939  24.085  1.00  0.00    -0.162 NA
HETATM    3  N3  LIG X 999      36.950 127.272  23.756  1.00  0.00     0.068 N 
ENDROOT
BRANCH   1   4
HETATM    4  C8  LIG X 999      39.935 125.527  23.797  1.00  0.00     0.104 A 
HETATM    5  C7  LIG X 999      39.212 124.334  23.523  1.00  0.00     0.038 A 
HETATM    6  C6  LIG X 999      39.818 123.238  22.867  1.00  0.00     0.035 A 
HETATM    7  C5  LIG X 999      41.154 123.355  22.497  1.00  0.00     0.073 A 
HETATM    8  C4  LIG X 999      41.847 124.493  22.789  1.00  0.00     0.021 A 
HETATM    9  N4  LIG X 999      41.983 122.375  21.862  1.00  0.00    -0.209 NA
HETATM   10  C3  LIG X 999      43.144 124.383  22.405  1.00  0.00     0.047 A 
HETATM   11  C9  LIG X 999      41.315 125.596  23.446  1.00  0.00     0.009 A 
HETATM   12  C2  LIG X 999      44.055 125.402  22.664  1.00  0.00     0.018 A 
HETATM   13  C11 LIG X 999      43.249 123.053  21.813  1.00  0.00     0.278 A 
HETATM   14  C1  LIG X 999      43.580 126.546  23.343  1.00  0.00     0.002 A 
HETATM   15  C10 LIG X 999      42.221 126.644  23.743  1.00  0.00     0.015 A 
HETATM   16  O1  LIG X 999      44.296 122.548  21.328  1.00  0.00    -0.265 OA
ENDBRANCH   1   4
TORSDOF 1
