REMARK VINA RESULT:      -6.7      2.587      6.743
REMARK  2 active torsions:
REMARK  status: ('A' for Active; 'I' for Inactive)
REMARK    1  A    between atoms: O1_2  and  C2_3 
REMARK    2  A    between atoms: C11_12  and  N1_13 
ROOT
HETATM    1  C2  LIG X 999      43.180 131.421  22.473  1.00  0.00     0.095 A 
HETATM    2  C3  LIG X 999      42.934 131.833  21.148  1.00  0.00     0.051 A 
HETATM    3  C4  LIG X 999      43.792 131.446  20.110  1.00  0.00    -0.023 A 
HETATM    4  C5  LIG X 999      43.547 131.860  18.786  1.00  0.00     0.021 A 
HETATM    5  C6  LIG X 999      44.425 131.447  17.784  1.00  0.00    -0.024 A 
HETATM    6  C7  LIG X 999      45.507 130.667  18.059  1.00  0.00    -0.024 A 
HETATM    7  C8  LIG X 999      45.788 130.242  19.359  1.00  0.00     0.021 A 
HETATM    8  C9  LIG X 999      44.921 130.631  20.398  1.00  0.00    -0.023 A 
HETATM    9  C10 LIG X 999      45.163 130.225  21.716  1.00  0.00     0.044 A 
HETATM   10  C11 LIG X 999      44.301 130.614  22.753  1.00  0.00     0.060 A 
HETATM   11  C12 LIG X 999      46.283 130.401  16.829  1.00  0.00     0.276 C 
HETATM   12  N2  LIG X 999      45.472 130.975  15.708  1.00  0.00    -0.067 N 
HETATM   13  C13 LIG X 999      46.311 131.831  14.840  1.00  0.00     0.272 C 
HETATM   14  C14 LIG X 999      44.892 129.882  14.891  1.00  0.00     0.272 C 
HETATM   15  C15 LIG X 999      44.377 131.776  16.343  1.00  0.00     0.276 C 
ENDROOT
BRANCH  10  16
HETATM   16  N1  LIG X 999      44.572 130.182  24.091  1.00  0.00    -0.397 N 
HETATM   17  H8  LIG X 999      43.974 129.473  24.568  1.00  0.00     0.156 HD
HETATM   18  H9  LIG X 999      45.382 130.573  24.623  1.00  0.00     0.156 HD
ENDBRANCH  10  16
BRANCH   1  19
HETATM   19  O1  LIG X 999      42.336 131.794  23.532  1.00  0.00    -0.354 OA
HETATM   20  C1  LIG X 999      42.723 132.622  24.624  1.00  0.00     0.210 C 
ENDBRANCH   1  19
TORSDOF 2
