REMARK VINA RESULT:      -3.0      3.115      5.384
REMARK  2 active torsions:
REMARK  status: ('A' for Active; 'I' for Inactive)
REMARK    1  A    between atoms: C4_4  and  O1_5 
REMARK    2  A    between atoms: C10_11  and  N1_12 
ROOT
HETATM    1  N1  LIG X 999      42.823 124.130  21.533  1.00  0.00    -0.072 NA
HETATM    2  N2  LIG X 999      41.933 123.337  21.845  1.00  0.00    -0.162 NA
HETATM    3  N3  LIG X 999      41.044 122.545  22.156  1.00  0.00     0.068 N 
ENDROOT
BRANCH   1   4
HETATM    4  C10 LIG X 999      43.954 124.384  22.379  1.00  0.00     0.101 C 
HETATM    5  C9  LIG X 999      44.361 125.726  22.551  1.00  0.00     0.007 C 
HETATM    6  C8  LIG X 999      45.629 126.190  22.870  1.00  0.00    -0.022 C 
HETATM    7  C12 LIG X 999      43.429 126.881  22.508  1.00  0.00     0.278 C 
HETATM    8  C7  LIG X 999      46.830 125.473  22.794  1.00  0.00     0.012 C 
HETATM    9  C15 LIG X 999      45.548 127.601  23.326  1.00  0.00     0.276 C 
HETATM   10  C6  LIG X 999      47.033 124.457  21.854  1.00  0.00     0.037 C 
HETATM   11  C4  LIG X 999      47.675 123.240  22.159  1.00  0.00     0.068 C 
HETATM   12  C3  LIG X 999      47.601 122.634  23.430  1.00  0.00     0.037 C 
HETATM   13  C2  LIG X 999      46.609 122.859  24.405  1.00  0.00     0.003 C 
HETATM   14  C1  LIG X 999      45.351 123.427  24.164  1.00  0.00     0.002 C 
HETATM   15  C11 LIG X 999      44.673 123.312  22.944  1.00  0.00     0.035 C 
HETATM   16  N4  LIG X 999      44.105 127.979  23.257  1.00  0.00    -0.067 N 
HETATM   17  C13 LIG X 999      43.928 129.274  22.563  1.00  0.00     0.272 C 
HETATM   18  C14 LIG X 999      43.541 128.081  24.625  1.00  0.00     0.272 C 
BRANCH  11  19
HETATM   19  O1  LIG X 999      48.397 122.547  21.174  1.00  0.00    -0.356 OA
HETATM   20  C5  LIG X 999      48.855 123.125  19.955  1.00  0.00     0.210 C 
ENDBRANCH  11  19
ENDBRANCH   1   4
TORSDOF 2
