MODEL 1
REMARK VINA RESULT:      -7.2      0.000      0.000
REMARK  3 active torsions:
REMARK  status: ('A' for Active; 'I' for Inactive)
REMARK    1  A    between atoms: C7_9  and  C8_10 
REMARK    2  A    between atoms: C9_13  and  N4_14 
REMARK    3  A    between atoms: N7_23  and  C14_24 
ROOT
HETATM    1  N4  LIG X 999      46.873 131.373  13.838  1.00  0.00    -0.023 NA
HETATM    2  N5  LIG X 999      47.651 130.448  13.609  1.00  0.00    -0.158 NA
HETATM    3  N6  LIG X 999      48.430 129.523  13.380  1.00  0.00     0.068 N 
ENDROOT
BRANCH   1   4
HETATM    4  C9  LIG X 999      45.736 131.177  14.678  1.00  0.00     0.326 A 
HETATM    5  N3  LIG X 999      44.728 130.339  14.382  1.00  0.00    -0.099 NA
HETATM    6  N2  LIG X 999      43.874 130.433  15.390  1.00  0.00    -0.119 NA
HETATM    7  C8  LIG X 999      44.394 131.330  16.254  1.00  0.00     0.205 A 
HETATM    8  O1  LIG X 999      45.546 131.785  15.823  1.00  0.00    -0.252 OA
BRANCH   7   9
HETATM    9  C7  LIG X 999      43.767 131.698  17.538  1.00  0.00     0.032 A 
HETATM   10  C6  LIG X 999      44.306 131.317  18.806  1.00  0.00     0.020 A 
HETATM   11  C1  LIG X 999      45.635 130.692  19.114  1.00  0.00     0.060 A 
HETATM   12  C5  LIG X 999      43.541 131.625  19.917  1.00  0.00     0.019 A 
HETATM   13  N1  LIG X 999      46.525 130.512  18.192  1.00  0.00    -0.299 NA
HETATM   14  C2  LIG X 999      45.969 130.370  20.545  1.00  0.00     0.034 A 
HETATM   15  H1  LIG X 999      47.466 130.110  18.400  1.00  0.00     0.187 HD
HETATM   16  C3  LIG X 999      45.129 130.695  21.549  1.00  0.00     0.033 A 
HETATM   17  C4  LIG X 999      43.862 131.364  21.212  1.00  0.00     0.048 A 
HETATM   18  N7  LIG X 999      42.894 131.848  22.028  1.00  0.00    -0.324 N 
HETATM   19  C13 LIG X 999      41.977 132.433  21.208  1.00  0.00     0.193 A 
HETATM   20  C12 LIG X 999      42.363 132.296  19.886  1.00  0.00     0.032 A 
HETATM   21  O2  LIG X 999      40.833 133.088  21.651  1.00  0.00    -0.171 OA
HETATM   22  C11 LIG X 999      41.822 132.727  18.680  1.00  0.00     0.018 A 
HETATM   23  C10 LIG X 999      42.533 132.419  17.499  1.00  0.00     0.018 A 
BRANCH  18  24
HETATM   24  C14 LIG X 999      42.886 131.850  23.490  1.00  0.00     0.127 C 
HETATM   25  C15 LIG X 999      42.397 130.505  24.017  1.00  0.00     0.027 C 
ENDBRANCH  18  24
ENDBRANCH   7   9
ENDBRANCH   1   4
TORSDOF 3
ENDMDL
MODEL 2
REMARK VINA RESULT:      -6.0      1.990      7.541
REMARK  3 active torsions:
REMARK  status: ('A' for Active; 'I' for Inactive)
REMARK    1  A    between atoms: C7_9  and  C8_10 
REMARK    2  A    between atoms: C9_13  and  N4_14 
REMARK    3  A    between atoms: N7_23  and  C14_24 
ROOT
HETATM    1  N4  LIG X 999      41.868 130.156  24.625  1.00  0.00    -0.023 NA
HETATM    2  N5  LIG X 999      41.539 128.971  24.579  1.00  0.00    -0.158 NA
HETATM    3  N6  LIG X 999      41.210 127.786  24.534  1.00  0.00     0.068 N 
ENDROOT
BRANCH   1   4
HETATM    4  C9  LIG X 999      42.863 130.670  23.742  1.00  0.00     0.326 A 
HETATM    5  N3  LIG X 999      43.820 131.534  24.122  1.00  0.00    -0.099 NA
HETATM    6  N2  LIG X 999      44.541 131.773  23.037  1.00  0.00    -0.119 NA
HETATM    7  C8  LIG X 999      43.989 131.050  22.040  1.00  0.00     0.205 A 
HETATM    8  O1  LIG X 999      42.960 130.361  22.472  1.00  0.00    -0.252 OA
BRANCH   7   9
HETATM    9  C7  LIG X 999      44.520 131.003  20.663  1.00  0.00     0.032 A 
HETATM   10  C6  LIG X 999      43.765 131.417  19.523  1.00  0.00     0.020 A 
HETATM   11  C1  LIG X 999      42.448 132.135  19.475  1.00  0.00     0.060 A 
HETATM   12  C5  LIG X 999      44.348 131.196  18.287  1.00  0.00     0.019 A 
HETATM   13  N1  LIG X 999      41.874 132.562  20.553  1.00  0.00    -0.299 NA
HETATM   14  C2  LIG X 999      41.844 132.451  18.134  1.00  0.00     0.034 A 
HETATM   15  H1  LIG X 999      40.974 133.093  20.530  1.00  0.00     0.187 HD
HETATM   16  C3  LIG X 999      42.495 132.164  16.988  1.00  0.00     0.033 A 
HETATM   17  C4  LIG X 999      43.814 131.517  17.078  1.00  0.00     0.048 A 
HETATM   18  N7  LIG X 999      44.689 131.192  16.095  1.00  0.00    -0.324 N 
HETATM   19  C13 LIG X 999      45.784 130.683  16.725  1.00  0.00     0.193 A 
HETATM   20  C12 LIG X 999      45.584 130.673  18.095  1.00  0.00     0.032 A 
HETATM   21  O2  LIG X 999      46.938 130.259  16.075  1.00  0.00    -0.171 OA
HETATM   22  C11 LIG X 999      46.373 130.299  19.176  1.00  0.00     0.018 A 
HETATM   23  C10 LIG X 999      45.829 130.465  20.469  1.00  0.00     0.018 A 
BRANCH  18  24
HETATM   24  C14 LIG X 999      44.543 131.441  14.661  1.00  0.00     0.127 C 
HETATM   25  C15 LIG X 999      45.837 131.100  13.931  1.00  0.00     0.027 C 
ENDBRANCH  18  24
ENDBRANCH   7   9
ENDBRANCH   1   4
TORSDOF 3
ENDMDL
MODEL 3
REMARK VINA RESULT:      -5.4      7.414      8.605
REMARK  3 active torsions:
REMARK  status: ('A' for Active; 'I' for Inactive)
REMARK    1  A    between atoms: C7_9  and  C8_10 
REMARK    2  A    between atoms: C9_13  and  N4_14 
REMARK    3  A    between atoms: N7_23  and  C14_24 
ROOT
HETATM    1  N4  LIG X 999      49.954 123.349  19.143  1.00  0.00    -0.023 NA
HETATM    2  N5  LIG X 999      51.063 123.865  19.278  1.00  0.00    -0.158 NA
HETATM    3  N6  LIG X 999      52.172 124.381  19.413  1.00  0.00     0.068 N 
ENDROOT
BRANCH   1   4
HETATM    4  C9  LIG X 999      49.067 123.226  20.254  1.00  0.00     0.326 A 
HETATM    5  N3  LIG X 999      49.452 122.798  21.468  1.00  0.00    -0.099 NA
HETATM    6  N2  LIG X 999      48.361 122.821  22.220  1.00  0.00    -0.119 NA
HETATM    7  C8  LIG X 999      47.357 123.255  21.429  1.00  0.00     0.205 A 
HETATM    8  O1  LIG X 999      47.789 123.514  20.219  1.00  0.00    -0.252 OA
BRANCH   7   9
HETATM    9  C7  LIG X 999      45.971 123.462  21.894  1.00  0.00     0.032 A 
HETATM   10  C6  LIG X 999      45.530 124.672  22.513  1.00  0.00     0.020 A 
HETATM   11  C1  LIG X 999      46.249 125.983  22.635  1.00  0.00     0.060 A 
HETATM   12  C5  LIG X 999      44.239 124.672  23.011  1.00  0.00     0.019 A 
HETATM   13  N1  LIG X 999      47.391 126.182  22.060  1.00  0.00    -0.299 NA
HETATM   14  C2  LIG X 999      45.569 127.118  23.353  1.00  0.00     0.034 A 
HETATM   15  H1  LIG X 999      47.884 127.102  22.109  1.00  0.00     0.187 HD
HETATM   16  C3  LIG X 999      44.310 126.994  23.822  1.00  0.00     0.033 A 
HETATM   17  C4  LIG X 999      43.615 125.711  23.628  1.00  0.00     0.048 A 
HETATM   18  N7  LIG X 999      42.344 125.359  23.939  1.00  0.00    -0.324 N 
HETATM   19  C13 LIG X 999      42.189 124.085  23.481  1.00  0.00     0.193 A 
HETATM   20  C12 LIG X 999      43.367 123.639  22.905  1.00  0.00     0.032 A 
HETATM   21  O2  LIG X 999      41.007 123.358  23.568  1.00  0.00    -0.171 OA
HETATM   22  C11 LIG X 999      43.736 122.460  22.270  1.00  0.00     0.018 A 
HETATM   23  C10 LIG X 999      45.052 122.375  21.766  1.00  0.00     0.018 A 
BRANCH  18  24
HETATM   24  C14 LIG X 999      41.311 126.204  24.536  1.00  0.00     0.127 C 
HETATM   25  C15 LIG X 999      40.566 126.974  23.451  1.00  0.00     0.027 C 
ENDBRANCH  18  24
ENDBRANCH   7   9
ENDBRANCH   1   4
TORSDOF 3
ENDMDL
MODEL 4
REMARK VINA RESULT:      -4.7      7.217      8.495
REMARK  3 active torsions:
REMARK  status: ('A' for Active; 'I' for Inactive)
REMARK    1  A    between atoms: C7_9  and  C8_10 
REMARK    2  A    between atoms: C9_13  and  N4_14 
REMARK    3  A    between atoms: N7_23  and  C14_24 
ROOT
HETATM    1  N4  LIG X 999      49.094 123.496  20.509  1.00  0.00    -0.023 NA
HETATM    2  N5  LIG X 999      50.317 123.621  20.561  1.00  0.00    -0.158 NA
HETATM    3  N6  LIG X 999      51.540 123.747  20.612  1.00  0.00     0.068 N 
ENDROOT
BRANCH   1   4
HETATM    4  C9  LIG X 999      48.273 123.920  21.596  1.00  0.00     0.326 A 
HETATM    5  N3  LIG X 999      48.566 123.685  22.886  1.00  0.00    -0.099 NA
HETATM    6  N2  LIG X 999      47.578 124.225  23.584  1.00  0.00    -0.119 NA
HETATM    7  C8  LIG X 999      46.720 124.759  22.689  1.00  0.00     0.205 A 
HETATM    8  O1  LIG X 999      47.149 124.582  21.462  1.00  0.00    -0.252 OA
BRANCH   7   9
HETATM    9  C7  LIG X 999      45.495 125.495  23.059  1.00  0.00     0.032 A 
HETATM   10  C6  LIG X 999      44.285 124.846  23.453  1.00  0.00     0.020 A 
HETATM   11  C1  LIG X 999      44.052 123.396  23.764  1.00  0.00     0.060 A 
HETATM   12  C5  LIG X 999      43.184 125.662  23.646  1.00  0.00     0.019 A 
HETATM   13  N1  LIG X 999      45.029 122.549  23.797  1.00  0.00    -0.299 NA
HETATM   14  C2  LIG X 999      42.667 122.951  24.147  1.00  0.00     0.034 A 
HETATM   15  H1  LIG X 999      44.885 121.544  24.046  1.00  0.00     0.187 HD
HETATM   16  C3  LIG X 999      41.660 123.838  24.281  1.00  0.00     0.033 A 
HETATM   17  C4  LIG X 999      41.942 125.260  24.028  1.00  0.00     0.048 A 
HETATM   18  N7  LIG X 999      41.135 126.341  24.158  1.00  0.00    -0.324 N 
HETATM   19  C13 LIG X 999      41.912 127.422  23.869  1.00  0.00     0.193 A 
HETATM   20  C12 LIG X 999      43.193 127.014  23.540  1.00  0.00     0.032 A 
HETATM   21  O2  LIG X 999      41.473 128.740  23.921  1.00  0.00    -0.171 OA
HETATM   22  C11 LIG X 999      44.359 127.693  23.206  1.00  0.00     0.018 A 
HETATM   23  C10 LIG X 999      45.516 126.920  22.960  1.00  0.00     0.018 A 
BRANCH  18  24
HETATM   24  C14 LIG X 999      39.749 126.361  24.625  1.00  0.00     0.127 C 
HETATM   25  C15 LIG X 999      38.844 125.655  23.622  1.00  0.00     0.027 C 
ENDBRANCH  18  24
ENDBRANCH   7   9
ENDBRANCH   1   4
TORSDOF 3
ENDMDL
MODEL 5
REMARK VINA RESULT:      -4.6      1.877      6.972
REMARK  3 active torsions:
REMARK  status: ('A' for Active; 'I' for Inactive)
REMARK    1  A    between atoms: C7_9  and  C8_10 
REMARK    2  A    between atoms: C9_13  and  N4_14 
REMARK    3  A    between atoms: N7_23  and  C14_24 
ROOT
HETATM    1  N4  LIG X 999      42.458 130.618  24.190  1.00  0.00    -0.023 NA
HETATM    2  N5  LIG X 999      41.842 129.552  24.165  1.00  0.00    -0.158 NA
HETATM    3  N6  LIG X 999      41.226 128.487  24.141  1.00  0.00     0.068 N 
ENDROOT
BRANCH   1   4
HETATM    4  C9  LIG X 999      43.076 131.128  23.010  1.00  0.00     0.326 A 
HETATM    5  N3  LIG X 999      44.149 131.937  23.023  1.00  0.00    -0.099 NA
HETATM    6  N2  LIG X 999      44.423 132.193  21.753  1.00  0.00    -0.119 NA
HETATM    7  C8  LIG X 999      43.501 131.535  21.019  1.00  0.00     0.205 A 
HETATM    8  O1  LIG X 999      42.674 130.870  21.790  1.00  0.00    -0.252 OA
BRANCH   7   9
HETATM    9  C7  LIG X 999      43.475 131.524  19.543  1.00  0.00     0.032 A 
HETATM   10  C6  LIG X 999      44.557 131.036  18.748  1.00  0.00     0.020 A 
HETATM   11  C1  LIG X 999      45.782 130.286  19.184  1.00  0.00     0.060 A 
HETATM   12  C5  LIG X 999      44.441 131.208  17.380  1.00  0.00     0.019 A 
HETATM   13  N1  LIG X 999      45.936 129.900  20.409  1.00  0.00    -0.299 NA
HETATM   14  C2  LIG X 999      46.795 129.888  18.144  1.00  0.00     0.034 A 
HETATM   15  H1  LIG X 999      46.767 129.348  20.717  1.00  0.00     0.187 HD
HETATM   16  C3  LIG X 999      46.586 130.132  16.835  1.00  0.00     0.033 A 
HETATM   17  C4  LIG X 999      45.342 130.815  16.440  1.00  0.00     0.048 A 
HETATM   18  N7  LIG X 999      44.869 131.110  15.205  1.00  0.00    -0.324 N 
HETATM   19  C13 LIG X 999      43.646 131.676  15.401  1.00  0.00     0.193 A 
HETATM   20  C12 LIG X 999      43.366 131.750  16.755  1.00  0.00     0.032 A 
HETATM   21  O2  LIG X 999      42.801 132.093  14.379  1.00  0.00    -0.171 OA
HETATM   22  C11 LIG X 999      42.270 132.196  17.484  1.00  0.00     0.018 A 
HETATM   23  C10 LIG X 999      42.333 132.083  18.890  1.00  0.00     0.018 A 
BRANCH  18  24
HETATM   24  C14 LIG X 999      45.487 130.786  13.920  1.00  0.00     0.127 C 
HETATM   25  C15 LIG X 999      46.916 131.316  13.871  1.00  0.00     0.027 C 
ENDBRANCH  18  24
ENDBRANCH   7   9
ENDBRANCH   1   4
TORSDOF 3
ENDMDL
