REMARK VINA RESULT:      -6.0      1.431      6.982
REMARK  1 active torsions:
REMARK  status: ('A' for Active; 'I' for Inactive)
REMARK    1  A    between atoms: C2_2  and  N1_3 
ROOT
HETATM    1  N1  LIG X 999      42.671 132.062  22.669  1.00  0.00    -0.073 NA
HETATM    2  N2  LIG X 999      42.399 131.363  23.647  1.00  0.00    -0.162 NA
HETATM    3  N3  LIG X 999      42.126 130.667  24.624  1.00  0.00     0.068 N 
ENDROOT
BRANCH   1   4
HETATM    4  C2  LIG X 999      43.526 131.603  21.613  1.00  0.00     0.094 A 
HETATM    5  C1  LIG X 999      44.614 130.783  21.937  1.00  0.00     0.035 A 
HETATM    6  C10 LIG X 999      45.474 130.311  20.941  1.00  0.00     0.014 A 
HETATM    7  C9  LIG X 999      45.257 130.657  19.601  1.00  0.00    -0.025 A 
HETATM    8  C4  LIG X 999      44.154 131.491  19.260  1.00  0.00    -0.023 A 
HETATM    9  C8  LIG X 999      46.117 130.185  18.590  1.00  0.00     0.021 A 
HETATM   10  C3  LIG X 999      43.298 131.956  20.269  1.00  0.00     0.046 A 
HETATM   11  C5  LIG X 999      43.931 131.839  17.913  1.00  0.00     0.021 A 
HETATM   12  C6  LIG X 999      44.810 131.356  16.942  1.00  0.00    -0.024 A 
HETATM   13  C7  LIG X 999      45.865 130.559  17.269  1.00  0.00    -0.024 A 
HETATM   14  C14 LIG X 999      44.757 131.572  15.481  1.00  0.00     0.276 C 
HETATM   15  C11 LIG X 999      46.615 130.167  16.057  1.00  0.00     0.276 C 
HETATM   16  N4  LIG X 999      46.003 130.947  14.934  1.00  0.00    -0.067 N 
HETATM   17  C12 LIG X 999      46.940 132.001  14.478  1.00  0.00     0.272 C 
HETATM   18  C13 LIG X 999      45.684 130.059  13.793  1.00  0.00     0.272 C 
ENDBRANCH   1   4
TORSDOF 1
