REMARK VINA RESULT:      -4.3      1.590      2.247
REMARK  4 active torsions:
REMARK  status: ('A' for Active; 'I' for Inactive)
REMARK    1  A    between atoms: C4_4  and  N1_5 
REMARK    2  A    between atoms: C7_10  and  S1_11 
REMARK    3  A    between atoms: S1_11  and  C8_12 
REMARK    4  A    between atoms: C8_12  and  C9_13 
ROOT
HETATM    1  N1  LIG X 999      40.880 127.723  24.625  1.00  0.00    -0.071 NA
HETATM    2  N2  LIG X 999      39.870 127.275  24.086  1.00  0.00    -0.162 NA
HETATM    3  N3  LIG X 999      38.860 126.812  23.556  1.00  0.00     0.068 N 
ENDROOT
BRANCH   1   4
HETATM    4  C4  LIG X 999      42.172 127.757  23.985  1.00  0.00     0.108 A 
HETATM    5  C3  LIG X 999      42.909 126.591  23.694  1.00  0.00     0.008 A 
HETATM    6  C2  LIG X 999      44.144 126.661  23.123  1.00  0.00    -0.021 A 
HETATM    7  C15 LIG X 999      42.540 125.161  23.885  1.00  0.00     0.278 C 
HETATM    8  C1  LIG X 999      44.717 127.874  22.761  1.00  0.00     0.018 A 
HETATM    9  C18 LIG X 999      44.711 125.310  22.923  1.00  0.00     0.276 C 
HETATM   10  C6  LIG X 999      43.989 129.066  22.947  1.00  0.00    -0.035 A 
HETATM   11  C5  LIG X 999      42.727 129.011  23.617  1.00  0.00    -0.018 A 
HETATM   12  C7  LIG X 999      44.617 130.390  22.539  1.00  0.00     0.081 C 
HETATM   13  C14 LIG X 999      41.926 130.270  23.876  1.00  0.00     0.042 C 
HETATM   14  C13 LIG X 999      42.750 131.555  23.764  1.00  0.00     0.006 C 
HETATM   15  C12 LIG X 999      43.596 131.533  22.496  1.00  0.00     0.020 C 
HETATM   16  N4  LIG X 999      43.567 124.377  23.135  1.00  0.00    -0.067 N 
HETATM   17  C16 LIG X 999      43.020 123.949  21.825  1.00  0.00     0.272 C 
HETATM   18  C17 LIG X 999      43.991 123.184  23.901  1.00  0.00     0.272 C 
BRANCH  12  19
HETATM   19  S1  LIG X 999      45.380 130.274  20.867  1.00  0.00    -0.147 SA
BRANCH  19  20
HETATM   20  C8  LIG X 999      45.295 132.047  20.450  1.00  0.00     0.168 C 
BRANCH  20  21
HETATM   21  C9  LIG X 999      46.376 132.778  21.115  1.00  0.00    -0.097 C 
HETATM   22  C10 LIG X 999      47.263 133.386  21.663  1.00  0.00    -0.110 C 
HETATM   23  C11 LIG X 999      48.338 134.123  22.329  1.00  0.00     0.112 C 
ENDBRANCH  20  21
ENDBRANCH  19  20
ENDBRANCH  12  19
ENDBRANCH   1   4
TORSDOF 4
