REMARK VINA RESULT:      -7.5      1.950      6.443
REMARK  4 active torsions:
REMARK  status: ('A' for Active; 'I' for Inactive)
REMARK    1  A    between atoms: C3_4  and  O1_5 
REMARK    2  A    between atoms: C3_4  and  O2_6 
REMARK    3  A    between atoms: O2_6  and  C4_7 
REMARK    4  A    between atoms: C13_16  and  N2_17 
ROOT
HETATM    1  C4  LIG X 999      44.320 131.088  16.968  1.00  0.00     0.106 A 
HETATM    2  C5  LIG X 999      43.742 131.716  15.854  1.00  0.00     0.040 A 
HETATM    3  C6  LIG X 999      44.397 131.731  14.627  1.00  0.00     0.015 A 
HETATM    4  C7  LIG X 999      45.632 131.092  14.477  1.00  0.00    -0.024 A 
HETATM    5  C8  LIG X 999      46.274 131.102  13.228  1.00  0.00     0.012 A 
HETATM    6  C9  LIG X 999      47.490 130.443  13.057  1.00  0.00     0.001 A 
HETATM    7  C10 LIG X 999      48.070 129.760  14.125  1.00  0.00     0.001 A 
HETATM    8  C11 LIG X 999      47.446 129.739  15.373  1.00  0.00     0.014 A 
HETATM    9  C12 LIG X 999      46.224 130.418  15.581  1.00  0.00     0.003 A 
HETATM   10  C13 LIG X 999      45.561 130.430  16.840  1.00  0.00     0.071 A 
ENDROOT
BRANCH   1  11
HETATM   11  O2  LIG X 999      43.664 131.073  18.208  1.00  0.00    -0.272 OA
BRANCH  11  12
HETATM   12  C3  LIG X 999      42.691 131.998  18.619  1.00  0.00     0.265 C 
HETATM   13  N1  LIG X 999      42.582 132.296  19.894  1.00  0.00    -0.350 N 
HETATM   14  C1  LIG X 999      41.591 133.271  20.371  1.00  0.00     0.153 C 
HETATM   15  C2  LIG X 999      43.466 131.638  20.868  1.00  0.00     0.153 C 
BRANCH  12  16
HETATM   16  O1  LIG X 999      41.886 132.610  17.649  1.00  0.00    -0.327 OA
HETATM   17  H7  LIG X 999      40.905 132.405  17.512  1.00  0.00     0.221 HD
ENDBRANCH  12  16
ENDBRANCH  11  12
ENDBRANCH   1  11
BRANCH  10  18
HETATM   18  N2  LIG X 999      46.135 129.810  18.004  1.00  0.00    -0.396 N 
HETATM   19  H14 LIG X 999      45.565 129.512  18.824  1.00  0.00     0.156 HD
HETATM   20  H15 LIG X 999      47.139 129.527  18.022  1.00  0.00     0.156 HD
ENDBRANCH  10  18
TORSDOF 4
