REMARK VINA RESULT:      -6.7      1.695      3.111
REMARK  1 active torsions:
REMARK  status: ('A' for Active; 'I' for Inactive)
REMARK    1  A    between atoms: C8_8  and  N1_9 
ROOT
HETATM    1  N1  LIG X 999      45.199 131.129  16.829  1.00  0.00    -0.072 NA
HETATM    2  N2  LIG X 999      45.231 130.111  16.137  1.00  0.00    -0.162 NA
HETATM    3  N3  LIG X 999      45.264 129.095  15.445  1.00  0.00     0.068 N 
ENDROOT
BRANCH   1   4
HETATM    4  C8  LIG X 999      45.069 131.082  18.257  1.00  0.00     0.104 A 
HETATM    5  C7  LIG X 999      46.089 130.513  19.081  1.00  0.00     0.038 A 
HETATM    6  C6  LIG X 999      45.952 130.470  20.489  1.00  0.00     0.035 A 
HETATM    7  C5  LIG X 999      44.792 130.997  21.053  1.00  0.00     0.073 A 
HETATM    8  C4  LIG X 999      43.830 131.534  20.252  1.00  0.00     0.021 A 
HETATM    9  N4  LIG X 999      44.428 131.066  22.436  1.00  0.00    -0.209 NA
HETATM   10  C3  LIG X 999      42.782 131.992  20.981  1.00  0.00     0.047 A 
HETATM   11  C9  LIG X 999      43.906 131.605  18.871  1.00  0.00     0.009 A 
HETATM   12  C2  LIG X 999      41.684 132.582  20.358  1.00  0.00     0.018 A 
HETATM   13  C11 LIG X 999      43.142 131.705  22.367  1.00  0.00     0.278 A 
HETATM   14  C1  LIG X 999      41.706 132.683  18.946  1.00  0.00     0.002 A 
HETATM   15  C10 LIG X 999      42.813 132.197  18.200  1.00  0.00     0.015 A 
HETATM   16  O1  LIG X 999      42.438 131.973  23.375  1.00  0.00    -0.265 OA
ENDBRANCH   1   4
TORSDOF 1
