REMARK VINA RESULT:      -5.2      2.085      5.947
REMARK  3 active torsions:
REMARK  status: ('A' for Active; 'I' for Inactive)
REMARK       I    between atoms: N1_2  and  C3_4 
REMARK    1  A    between atoms: C3_4  and  O2_6 
REMARK    2  A    between atoms: O2_6  and  C4_7 
REMARK    3  A    between atoms: C7_10  and  N2_11 
ROOT
HETATM    1  C4  LIG X 999      44.936 131.075  17.398  1.00  0.00     0.092 A 
HETATM    2  C5  LIG X 999      43.641 131.610  17.344  1.00  0.00     0.040 A 
HETATM    3  C6  LIG X 999      43.029 131.864  16.120  1.00  0.00     0.033 A 
HETATM    4  C7  LIG X 999      43.681 131.583  14.913  1.00  0.00     0.037 A 
HETATM    5  C8  LIG X 999      44.976 130.997  14.941  1.00  0.00     0.003 A 
HETATM    6  C9  LIG X 999      45.661 130.629  13.761  1.00  0.00     0.014 A 
HETATM    7  C10 LIG X 999      46.934 130.060  13.823  1.00  0.00     0.001 A 
HETATM    8  C11 LIG X 999      47.546 129.838  15.054  1.00  0.00     0.001 A 
HETATM    9  C12 LIG X 999      46.887 130.175  16.234  1.00  0.00     0.015 A 
HETATM   10  C13 LIG X 999      45.600 130.748  16.198  1.00  0.00     0.010 A 
ENDROOT
BRANCH   1  11
HETATM   11  O2  LIG X 999      45.563 130.812  18.628  1.00  0.00    -0.261 OA
BRANCH  11  12
HETATM   12  C3  LIG X 999      45.209 131.383  19.860  1.00  0.00     0.367 C 
HETATM   13  N1  LIG X 999      45.141 130.554  21.033  1.00  0.00    -0.336 N 
HETATM   14  C1  LIG X 999      44.790 131.145  22.326  1.00  0.00     0.154 C 
HETATM   15  C2  LIG X 999      45.421 129.121  20.913  1.00  0.00     0.154 C 
HETATM   16  O1  LIG X 999      45.001 132.623  19.953  1.00  0.00    -0.238 OA
ENDBRANCH  11  12
ENDBRANCH   1  11
BRANCH   4  17
HETATM   17  N2  LIG X 999      43.005 131.911  13.689  1.00  0.00    -0.398 N 
HETATM   18  H9  LIG X 999      42.335 131.233  13.261  1.00  0.00     0.156 HD
HETATM   19  H10 LIG X 999      43.059 132.850  13.240  1.00  0.00     0.156 HD
ENDBRANCH   4  17
TORSDOF 3
