MODEL 1
REMARK VINA RESULT:      -8.5      0.000      0.000
REMARK  2 active torsions:
REMARK  status: ('A' for Active; 'I' for Inactive)
REMARK    1  A    between atoms: C1_1  and  N1_14 
REMARK    2  A    between atoms: C2_2  and  C3_4 
ROOT
HETATM    1  C3  LIG X 999      45.919 130.853  15.082  1.00  0.00     0.003 A 
HETATM    2  C4  LIG X 999      44.636 131.268  14.673  1.00  0.00     0.015 A 
HETATM    3  C5  LIG X 999      43.663 131.609  15.616  1.00  0.00     0.013 A 
HETATM    4  C6  LIG X 999      43.949 131.535  16.986  1.00  0.00    -0.026 A 
HETATM    5  C7  LIG X 999      42.977 131.875  17.940  1.00  0.00     0.012 A 
HETATM    6  C8  LIG X 999      43.273 131.793  19.303  1.00  0.00     0.001 A 
HETATM    7  C9  LIG X 999      44.537 131.370  19.723  1.00  0.00     0.001 A 
HETATM    8  C10 LIG X 999      45.513 131.027  18.783  1.00  0.00     0.012 A 
HETATM    9  C11 LIG X 999      45.228 131.106  17.411  1.00  0.00    -0.025 A 
HETATM   10  C12 LIG X 999      46.199 130.764  16.457  1.00  0.00     0.026 A 
ENDROOT
BRANCH   1  11
HETATM   11  C2  LIG X 999      46.967 130.473  14.100  1.00  0.00     0.132 C 
HETATM   12  C1  LIG X 999      47.747 129.396  14.273  1.00  0.00     0.121 C 
HETATM   13  O1  LIG X 999      47.121 131.252  12.956  1.00  0.00    -0.190 OA
BRANCH  12  14
HETATM   14  N1  LIG X 999      48.757 129.041  13.325  1.00  0.00    -0.406 N 
HETATM   15  H9  LIG X 999      48.774 128.108  12.856  1.00  0.00     0.155 HD
HETATM   16  H10 LIG X 999      49.501 129.732  13.085  1.00  0.00     0.155 HD
ENDBRANCH  12  14
ENDBRANCH   1  11
TORSDOF 2
ENDMDL
MODEL 2
REMARK VINA RESULT:      -8.3      3.916      5.968
REMARK  2 active torsions:
REMARK  status: ('A' for Active; 'I' for Inactive)
REMARK    1  A    between atoms: C1_1  and  N1_14 
REMARK    2  A    between atoms: C2_2  and  C3_4 
ROOT
HETATM    1  C3  LIG X 999      43.933 131.573  18.885  1.00  0.00     0.003 A 
HETATM    2  C4  LIG X 999      45.153 130.935  19.181  1.00  0.00     0.015 A 
HETATM    3  C5  LIG X 999      46.003 130.511  18.156  1.00  0.00     0.013 A 
HETATM    4  C6  LIG X 999      45.649 130.710  16.816  1.00  0.00    -0.026 A 
HETATM    5  C7  LIG X 999      46.497 130.288  15.780  1.00  0.00     0.012 A 
HETATM    6  C8  LIG X 999      46.130 130.489  14.446  1.00  0.00     0.001 A 
HETATM    7  C9  LIG X 999      44.916 131.108  14.138  1.00  0.00     0.001 A 
HETATM    8  C10 LIG X 999      44.062 131.532  15.160  1.00  0.00     0.012 A 
HETATM    9  C11 LIG X 999      44.420 131.337  16.503  1.00  0.00    -0.025 A 
HETATM   10  C12 LIG X 999      43.570 131.758  17.538  1.00  0.00     0.026 A 
ENDROOT
BRANCH   1  11
HETATM   11  C2  LIG X 999      43.005 132.020  19.955  1.00  0.00     0.132 C 
HETATM   12  C1  LIG X 999      43.138 131.618  21.227  1.00  0.00     0.121 C 
HETATM   13  O1  LIG X 999      41.981 132.904  19.622  1.00  0.00    -0.190 OA
BRANCH  12  14
HETATM   14  N1  LIG X 999      42.236 132.050  22.249  1.00  0.00    -0.406 N 
HETATM   15  H9  LIG X 999      41.979 131.439  23.056  1.00  0.00     0.155 HD
HETATM   16  H10 LIG X 999      41.822 133.006  22.198  1.00  0.00     0.155 HD
ENDBRANCH  12  14
ENDBRANCH   1  11
TORSDOF 2
ENDMDL
MODEL 3
REMARK VINA RESULT:      -8.2      1.359      1.703
REMARK  2 active torsions:
REMARK  status: ('A' for Active; 'I' for Inactive)
REMARK    1  A    between atoms: C1_1  and  N1_14 
REMARK    2  A    between atoms: C2_2  and  C3_4 
ROOT
HETATM    1  C3  LIG X 999      45.467 130.872  16.215  1.00  0.00     0.003 A 
HETATM    2  C4  LIG X 999      44.183 131.438  16.097  1.00  0.00     0.015 A 
HETATM    3  C5  LIG X 999      43.441 131.765  17.235  1.00  0.00     0.013 A 
HETATM    4  C6  LIG X 999      43.964 131.526  18.513  1.00  0.00    -0.026 A 
HETATM    5  C7  LIG X 999      43.225 131.851  19.661  1.00  0.00     0.012 A 
HETATM    6  C8  LIG X 999      43.755 131.603  20.930  1.00  0.00     0.001 A 
HETATM    7  C9  LIG X 999      45.022 131.028  21.062  1.00  0.00     0.001 A 
HETATM    8  C10 LIG X 999      45.767 130.699  19.926  1.00  0.00     0.012 A 
HETATM    9  C11 LIG X 999      45.246 130.944  18.646  1.00  0.00    -0.025 A 
HETATM   10  C12 LIG X 999      45.984 130.617  17.498  1.00  0.00     0.026 A 
ENDROOT
BRANCH   1  11
HETATM   11  C2  LIG X 999      46.271 130.503  15.021  1.00  0.00     0.132 C 
HETATM   12  C1  LIG X 999      46.874 131.425  14.257  1.00  0.00     0.121 C 
HETATM   13  O1  LIG X 999      46.416 129.154  14.706  1.00  0.00    -0.190 OA
BRANCH  12  14
HETATM   14  N1  LIG X 999      47.642 131.061  13.106  1.00  0.00    -0.406 N 
HETATM   15  H9  LIG X 999      48.574 131.485  12.904  1.00  0.00     0.155 HD
HETATM   16  H10 LIG X 999      47.267 130.345  12.445  1.00  0.00     0.155 HD
ENDBRANCH  12  14
ENDBRANCH   1  11
TORSDOF 2
ENDMDL
MODEL 4
REMARK VINA RESULT:      -8.1      1.276      1.997
REMARK  2 active torsions:
REMARK  status: ('A' for Active; 'I' for Inactive)
REMARK    1  A    between atoms: C1_1  and  N1_14 
REMARK    2  A    between atoms: C2_2  and  C3_4 
ROOT
HETATM    1  C3  LIG X 999      45.250 131.130  16.872  1.00  0.00     0.003 A 
HETATM    2  C4  LIG X 999      43.926 131.575  16.691  1.00  0.00     0.015 A 
HETATM    3  C5  LIG X 999      43.103 131.831  17.790  1.00  0.00     0.013 A 
HETATM    4  C6  LIG X 999      43.583 131.641  19.092  1.00  0.00    -0.026 A 
HETATM    5  C7  LIG X 999      42.763 131.897  20.202  1.00  0.00     0.012 A 
HETATM    6  C8  LIG X 999      43.252 131.699  21.497  1.00  0.00     0.001 A 
HETATM    7  C9  LIG X 999      44.560 131.245  21.691  1.00  0.00     0.001 A 
HETATM    8  C10 LIG X 999      45.386 130.987  20.594  1.00  0.00     0.012 A 
HETATM    9  C11 LIG X 999      44.906 131.182  19.289  1.00  0.00    -0.025 A 
HETATM   10  C12 LIG X 999      45.726 130.925  18.179  1.00  0.00     0.026 A 
ENDROOT
BRANCH   1  11
HETATM   11  C2  LIG X 999      46.141 130.837  15.720  1.00  0.00     0.132 C 
HETATM   12  C1  LIG X 999      46.540 129.591  15.428  1.00  0.00     0.121 C 
HETATM   13  O1  LIG X 999      46.552 131.894  14.911  1.00  0.00    -0.190 OA
BRANCH  12  14
HETATM   14  N1  LIG X 999      47.404 129.320  14.320  1.00  0.00    -0.406 N 
HETATM   15  H9  LIG X 999      48.443 129.370  14.402  1.00  0.00     0.155 HD
HETATM   16  H10 LIG X 999      46.989 129.058  13.398  1.00  0.00     0.155 HD
ENDBRANCH  12  14
ENDBRANCH   1  11
TORSDOF 2
ENDMDL
MODEL 5
REMARK VINA RESULT:      -8.1      3.284      5.459
REMARK  2 active torsions:
REMARK  status: ('A' for Active; 'I' for Inactive)
REMARK    1  A    between atoms: C1_1  and  N1_14 
REMARK    2  A    between atoms: C2_2  and  C3_4 
ROOT
HETATM    1  C3  LIG X 999      45.566 131.162  17.337  1.00  0.00     0.003 A 
HETATM    2  C4  LIG X 999      45.407 132.336  16.577  1.00  0.00     0.015 A 
HETATM    3  C5  LIG X 999      45.936 132.429  15.287  1.00  0.00     0.013 A 
HETATM    4  C6  LIG X 999      46.641 131.352  14.734  1.00  0.00    -0.026 A 
HETATM    5  C7  LIG X 999      47.177 131.436  13.439  1.00  0.00     0.012 A 
HETATM    6  C8  LIG X 999      47.882 130.357  12.900  1.00  0.00     0.001 A 
HETATM    7  C9  LIG X 999      48.060 129.190  13.648  1.00  0.00     0.001 A 
HETATM    8  C10 LIG X 999      47.533 129.094  14.939  1.00  0.00     0.012 A 
HETATM    9  C11 LIG X 999      46.821 130.171  15.491  1.00  0.00    -0.025 A 
HETATM   10  C12 LIG X 999      46.288 130.087  16.787  1.00  0.00     0.026 A 
ENDROOT
BRANCH   1  11
HETATM   11  C2  LIG X 999      45.024 131.043  18.715  1.00  0.00     0.132 C 
HETATM   12  C1  LIG X 999      43.876 131.631  19.081  1.00  0.00     0.121 C 
HETATM   13  O1  LIG X 999      45.726 130.276  19.643  1.00  0.00    -0.190 OA
BRANCH  12  14
HETATM   14  N1  LIG X 999      43.365 131.515  20.412  1.00  0.00    -0.406 N 
HETATM   15  H9  LIG X 999      42.407 131.842  20.669  1.00  0.00     0.155 HD
HETATM   16  H10 LIG X 999      43.960 131.087  21.155  1.00  0.00     0.155 HD
ENDBRANCH  12  14
ENDBRANCH   1  11
TORSDOF 2
ENDMDL
MODEL 6
REMARK VINA RESULT:      -7.9      3.338      5.627
REMARK  2 active torsions:
REMARK  status: ('A' for Active; 'I' for Inactive)
REMARK    1  A    between atoms: C1_1  and  N1_14 
REMARK    2  A    between atoms: C2_2  and  C3_4 
ROOT
HETATM    1  C3  LIG X 999      45.017 131.096  17.178  1.00  0.00     0.003 A 
HETATM    2  C4  LIG X 999      45.597 129.849  17.483  1.00  0.00     0.015 A 
HETATM    3  C5  LIG X 999      46.499 129.248  16.602  1.00  0.00     0.013 A 
HETATM    4  C6  LIG X 999      46.836 129.877  15.396  1.00  0.00    -0.026 A 
HETATM    5  C7  LIG X 999      47.742 129.280  14.506  1.00  0.00     0.012 A 
HETATM    6  C8  LIG X 999      48.066 129.915  13.304  1.00  0.00     0.001 A 
HETATM    7  C9  LIG X 999      47.488 131.146  12.982  1.00  0.00     0.001 A 
HETATM    8  C10 LIG X 999      46.583 131.750  13.860  1.00  0.00     0.012 A 
HETATM    9  C11 LIG X 999      46.250 131.122  15.070  1.00  0.00    -0.025 A 
HETATM   10  C12 LIG X 999      45.343 131.718  15.960  1.00  0.00     0.026 A 
ENDROOT
BRANCH   1  11
HETATM   11  C2  LIG X 999      44.044 131.750  18.091  1.00  0.00     0.132 C 
HETATM   12  C1  LIG X 999      42.765 131.951  17.742  1.00  0.00     0.121 C 
HETATM   13  O1  LIG X 999      44.477 132.142  19.355  1.00  0.00    -0.190 OA
BRANCH  12  14
HETATM   14  N1  LIG X 999      41.837 132.587  18.626  1.00  0.00    -0.406 N 
HETATM   15  H9  LIG X 999      41.995 133.551  18.995  1.00  0.00     0.155 HD
HETATM   16  H10 LIG X 999      40.970 132.081  18.910  1.00  0.00     0.155 HD
ENDBRANCH  12  14
ENDBRANCH   1  11
TORSDOF 2
ENDMDL
MODEL 7
REMARK VINA RESULT:      -7.7      1.441      2.717
REMARK  2 active torsions:
REMARK  status: ('A' for Active; 'I' for Inactive)
REMARK    1  A    between atoms: C1_1  and  N1_14 
REMARK    2  A    between atoms: C2_2  and  C3_4 
ROOT
HETATM    1  C3  LIG X 999      44.982 131.136  16.544  1.00  0.00     0.003 A 
HETATM    2  C4  LIG X 999      45.898 130.698  17.521  1.00  0.00     0.015 A 
HETATM    3  C5  LIG X 999      45.592 130.799  18.880  1.00  0.00     0.013 A 
HETATM    4  C6  LIG X 999      44.370 131.345  19.292  1.00  0.00    -0.026 A 
HETATM    5  C7  LIG X 999      44.054 131.450  20.655  1.00  0.00     0.012 A 
HETATM    6  C8  LIG X 999      42.833 132.001  21.053  1.00  0.00     0.001 A 
HETATM    7  C9  LIG X 999      41.921 132.453  20.095  1.00  0.00     0.001 A 
HETATM    8  C10 LIG X 999      42.224 132.355  18.734  1.00  0.00     0.012 A 
HETATM    9  C11 LIG X 999      43.447 131.802  18.322  1.00  0.00    -0.025 A 
HETATM   10  C12 LIG X 999      43.762 131.699  16.958  1.00  0.00     0.026 A 
ENDROOT
BRANCH   1  11
HETATM   11  C2  LIG X 999      45.288 131.052  15.093  1.00  0.00     0.132 C 
HETATM   12  C1  LIG X 999      46.547 130.985  14.633  1.00  0.00     0.121 C 
HETATM   13  O1  LIG X 999      44.229 131.020  14.189  1.00  0.00    -0.190 OA
BRANCH  12  14
HETATM   14  N1  LIG X 999      46.832 130.910  13.234  1.00  0.00    -0.406 N 
HETATM   15  H9  LIG X 999      47.756 131.194  12.841  1.00  0.00     0.155 HD
HETATM   16  H10 LIG X 999      46.100 130.558  12.579  1.00  0.00     0.155 HD
ENDBRANCH  12  14
ENDBRANCH   1  11
TORSDOF 2
ENDMDL
MODEL 8
REMARK VINA RESULT:      -7.7      3.648      5.465
REMARK  2 active torsions:
REMARK  status: ('A' for Active; 'I' for Inactive)
REMARK    1  A    between atoms: C1_1  and  N1_14 
REMARK    2  A    between atoms: C2_2  and  C3_4 
ROOT
HETATM    1  C3  LIG X 999      44.642 131.209  18.648  1.00  0.00     0.003 A 
HETATM    2  C4  LIG X 999      43.593 131.778  17.902  1.00  0.00     0.015 A 
HETATM    3  C5  LIG X 999      43.634 131.788  16.506  1.00  0.00     0.013 A 
HETATM    4  C6  LIG X 999      44.728 131.235  15.827  1.00  0.00    -0.026 A 
HETATM    5  C7  LIG X 999      44.778 131.240  14.424  1.00  0.00     0.012 A 
HETATM    6  C8  LIG X 999      45.876 130.689  13.759  1.00  0.00     0.001 A 
HETATM    7  C9  LIG X 999      46.932 130.133  14.487  1.00  0.00     0.001 A 
HETATM    8  C10 LIG X 999      46.895 130.123  15.884  1.00  0.00     0.012 A 
HETATM    9  C11 LIG X 999      45.796 130.672  16.564  1.00  0.00    -0.025 A 
HETATM   10  C12 LIG X 999      45.747 130.669  17.967  1.00  0.00     0.026 A 
ENDROOT
BRANCH   1  11
HETATM   11  C2  LIG X 999      44.629 131.198  20.134  1.00  0.00     0.132 C 
HETATM   12  C1  LIG X 999      43.534 131.522  20.838  1.00  0.00     0.121 C 
HETATM   13  O1  LIG X 999      45.787 130.817  20.808  1.00  0.00    -0.190 OA
BRANCH  12  14
HETATM   14  N1  LIG X 999      43.533 131.515  22.268  1.00  0.00    -0.406 N 
HETATM   15  H9  LIG X 999      44.386 131.745  22.825  1.00  0.00     0.155 HD
HETATM   16  H10 LIG X 999      42.654 131.278  22.779  1.00  0.00     0.155 HD
ENDBRANCH  12  14
ENDBRANCH   1  11
TORSDOF 2
ENDMDL
