REMARK VINA RESULT:      -4.1      4.424      5.635
REMARK  6 active torsions:
REMARK  status: ('A' for Active; 'I' for Inactive)
REMARK    1  A    between atoms: C8_8  and  O1_9 
REMARK    2  A    between atoms: O1_9  and  C9_10 
REMARK    3  A    between atoms: C9_10  and  C10_11 
REMARK    4  A    between atoms: C10_11  and  C11_12 
REMARK    5  A    between atoms: C11_12  and  N1_13 
REMARK    6  A    between atoms: C13_18  and  N4_19 
ROOT
HETATM    1  N1  LIG X 999      46.931 130.902  13.282  1.00  0.00    -0.116 NA
HETATM    2  N2  LIG X 999      47.837 130.071  13.356  1.00  0.00    -0.168 NA
HETATM    3  N3  LIG X 999      48.742 129.241  13.429  1.00  0.00     0.068 N 
ENDROOT
BRANCH   1   4
HETATM    4  C11 LIG X 999      45.828 130.897  14.233  1.00  0.00     0.191 C 
BRANCH   4   5
HETATM    5  C10 LIG X 999      46.090 131.889  15.371  1.00  0.00     0.051 C 
BRANCH   5   6
HETATM    6  C9  LIG X 999      44.782 132.375  15.995  1.00  0.00     0.170 C 
BRANCH   6   7
HETATM    7  O1  LIG X 999      44.235 131.338  16.784  1.00  0.00    -0.384 OA
BRANCH   7   8
HETATM    8  C8  LIG X 999      44.552 131.528  18.155  1.00  0.00     0.146 C 
HETATM    9  C7  LIG X 999      43.260 131.849  18.926  1.00  0.00     0.072 C 
HETATM   10  C5  LIG X 999      43.401 131.713  20.425  1.00  0.00    -0.047 A 
HETATM   11  C4  LIG X 999      44.445 130.955  21.010  1.00  0.00    -0.023 A 
HETATM   12  C6  LIG X 999      42.393 132.248  21.244  1.00  0.00     0.008 A 
HETATM   13  C3  LIG X 999      44.464 130.774  22.406  1.00  0.00     0.010 A 
HETATM   14  C13 LIG X 999      45.589 130.411  20.179  1.00  0.00     0.199 C 
HETATM   15  C2  LIG X 999      43.463 131.325  23.207  1.00  0.00     0.001 A 
HETATM   16  C1  LIG X 999      42.430 132.062  22.627  1.00  0.00     0.001 A 
HETATM   17  C12 LIG X 999      45.175 130.234  18.706  1.00  0.00     0.143 C 
HETATM   18 CL1  LIG X 999      46.583 129.736  17.714  1.00  0.00    -0.120 Cl
BRANCH  14  19
HETATM   19  N4  LIG X 999      46.739 131.310  20.270  1.00  0.00    -0.104 NA
HETATM   20  N5  LIG X 999      46.696 132.343  20.940  1.00  0.00    -0.167 NA
HETATM   21  N6  LIG X 999      46.653 133.374  21.609  1.00  0.00     0.068 N 
ENDBRANCH  14  19
ENDBRANCH   7   8
ENDBRANCH   6   7
ENDBRANCH   5   6
ENDBRANCH   4   5
ENDBRANCH   1   4
TORSDOF 6
