REMARK VINA RESULT:       2.7      2.433      4.819
REMARK  4 active torsions:
REMARK  status: ('A' for Active; 'I' for Inactive)
REMARK    1  A    between atoms: C5_5  and  O1_6 
REMARK    2  A    between atoms: O1_6  and  C6_7 
REMARK       I    between atoms: C6_7  and  N1_9 
REMARK    3  A    between atoms: C9_13  and  N2_14 
REMARK    4  A    between atoms: C11_19  and  N5_20 
ROOT
HETATM    1  N2  LIG X 999      44.670 131.034  24.625  1.00  0.00    -0.068 NA
HETATM    2  N3  LIG X 999      44.957 132.222  24.481  1.00  0.00    -0.162 NA
HETATM    3  N4  LIG X 999      45.248 133.409  24.340  1.00  0.00     0.068 N 
ENDROOT
BRANCH   1   4
HETATM    4  C9  LIG X 999      44.266 130.192  23.529  1.00  0.00     0.151 C 
HETATM    5  C5  LIG X 999      43.646 130.804  22.427  1.00  0.00     0.114 C 
HETATM    6  C4  LIG X 999      42.735 131.869  22.595  1.00  0.00     0.040 C 
HETATM    7  C3  LIG X 999      41.874 132.033  23.701  1.00  0.00     0.003 C 
HETATM    8  C2  LIG X 999      41.511 131.032  24.624  1.00  0.00     0.000 C 
HETATM    9  C1  LIG X 999      41.614 129.656  24.385  1.00  0.00     0.000 C 
HETATM   10  C13 LIG X 999      41.461 129.109  23.110  1.00  0.00     0.002 C 
HETATM   11  C12 LIG X 999      42.268 128.085  22.601  1.00  0.00     0.036 C 
HETATM   12  C11 LIG X 999      43.622 127.835  22.955  1.00  0.00     0.117 C 
HETATM   13  C10 LIG X 999      44.479 128.790  23.564  1.00  0.00     0.100 C 
HETATM   14 CL1  LIG X 999      45.950 128.191  24.337  1.00  0.00    -0.079 Cl
BRANCH   5  15
HETATM   15  O1  LIG X 999      43.978 130.327  21.149  1.00  0.00    -0.254 OA
BRANCH  15  16
HETATM   16  C6  LIG X 999      43.963 131.072  19.959  1.00  0.00     0.461 C 
HETATM   17  O2  LIG X 999      42.881 131.294  19.348  1.00  0.00    -0.230 OA
HETATM   18  N1  LIG X 999      45.207 131.512  19.380  1.00  0.00     0.009 N 
HETATM   19  H5  LIG X 999      45.011 132.111  18.543  1.00  0.00     0.292 HD
HETATM   20  C7  LIG X 999      45.963 132.314  20.354  1.00  0.00     0.282 C 
HETATM   21  C8  LIG X 999      45.989 130.346  18.943  1.00  0.00     0.282 C 
ENDBRANCH  15  16
ENDBRANCH   5  15
BRANCH  12  22
HETATM   22  N5  LIG X 999      44.196 126.555  22.637  1.00  0.00    -0.071 NA
HETATM   23  N6  LIG X 999      43.579 125.496  22.765  1.00  0.00    -0.162 NA
HETATM   24  N7  LIG X 999      42.964 124.439  22.892  1.00  0.00     0.068 N 
ENDBRANCH  12  22
ENDBRANCH   1   4
TORSDOF 4
