REMARK VINA RESULT:      -5.8      1.644      2.161
REMARK  6 active torsions:
REMARK  status: ('A' for Active; 'I' for Inactive)
REMARK    1  A    between atoms: O1_2  and  C1_3 
REMARK    2  A    between atoms: C1_3  and  C4_10 
REMARK    3  A    between atoms: N1_4  and  C2_5 
REMARK    4  A    between atoms: C2_5  and  C3_6 
REMARK    5  A    between atoms: C3_6  and  N2_7 
REMARK    6  A    between atoms: C13_19  and  N5_20 
ROOT
HETATM    1  N2  LIG X 999      45.586 131.222  13.655  1.00  0.00    -0.114 NA
HETATM    2  N3  LIG X 999      44.393 131.384  13.906  1.00  0.00    -0.168 NA
HETATM    3  N4  LIG X 999      43.199 131.545  14.155  1.00  0.00     0.068 N 
ENDROOT
BRANCH   1   4
HETATM    4  C3  LIG X 999      46.583 131.314  14.711  1.00  0.00     0.211 C 
BRANCH   4   5
HETATM    5  C2  LIG X 999      46.760 129.953  15.373  1.00  0.00     0.176 C 
BRANCH   5   6
HETATM    6  N1  LIG X 999      46.318 130.023  16.761  1.00  0.00    -0.265 NA
HETATM    7  C1  LIG X 999      45.707 131.052  17.268  1.00  0.00     0.167 C 
BRANCH   7   8
HETATM    8  O1  LIG X 999      45.445 132.166  16.465  1.00  0.00    -0.344 OA
HETATM    9  H1  LIG X 999      45.281 132.092  15.469  1.00  0.00     0.219 HD
ENDBRANCH   7   8
BRANCH   7  10
HETATM   10  C4  LIG X 999      45.290 131.025  18.693  1.00  0.00     0.017 A 
HETATM   11  C5  LIG X 999      46.042 130.324  19.649  1.00  0.00     0.016 A 
HETATM   12  C6  LIG X 999      45.644 130.303  20.987  1.00  0.00     0.011 A 
HETATM   13  C7  LIG X 999      44.488 130.982  21.402  1.00  0.00    -0.024 A 
HETATM   14  C8  LIG X 999      43.705 131.666  20.442  1.00  0.00    -0.049 A 
HETATM   15  C13 LIG X 999      44.060 130.876  22.850  1.00  0.00     0.179 C 
HETATM   16  C9  LIG X 999      44.120 131.690  19.101  1.00  0.00     0.023 A 
HETATM   17  C10 LIG X 999      42.490 132.472  20.839  1.00  0.00     0.039 C 
HETATM   18  C11 LIG X 999      41.932 132.073  22.208  1.00  0.00     0.007 C 
HETATM   19  C12 LIG X 999      43.059 131.979  23.236  1.00  0.00     0.035 C 
BRANCH  15  20
HETATM   20  N5  LIG X 999      43.478 129.553  23.071  1.00  0.00    -0.105 NA
HETATM   21  N6  LIG X 999      42.512 129.398  23.819  1.00  0.00    -0.167 NA
HETATM   22  N7  LIG X 999      41.547 129.242  24.564  1.00  0.00     0.068 N 
ENDBRANCH  15  20
ENDBRANCH   7  10
ENDBRANCH   5   6
ENDBRANCH   4   5
ENDBRANCH   1   4
TORSDOF 6
