REMARK VINA RESULT:      -6.4      2.990      6.906
REMARK  1 active torsions:
REMARK  status: ('A' for Active; 'I' for Inactive)
REMARK    1  A    between atoms: C11_13  and  N2_14 
ROOT
HETATM    1  N2  LIG X 999      43.100 131.840  23.372  1.00  0.00    -0.053 NA
HETATM    2  N3  LIG X 999      42.753 130.838  23.998  1.00  0.00    -0.160 NA
HETATM    3  N4  LIG X 999      42.407 129.838  24.625  1.00  0.00     0.068 N 
ENDROOT
BRANCH   1   4
HETATM    4  C11 LIG X 999      43.074 131.865  21.943  1.00  0.00     0.175 A 
HETATM    5  C10 LIG X 999      44.103 131.431  21.121  1.00  0.00     0.026 A 
HETATM    6  C5  LIG X 999      43.657 131.635  19.859  1.00  0.00     0.017 A 
HETATM    7  C9  LIG X 999      45.367 130.886  21.346  1.00  0.00     0.016 A 
HETATM    8  C4  LIG X 999      42.412 132.169  19.908  1.00  0.00     0.046 A 
HETATM    9  C6  LIG X 999      44.366 131.342  18.714  1.00  0.00     0.005 A 
HETATM   10  C3  LIG X 999      41.686 132.494  18.670  1.00  0.00     0.033 A 
HETATM   11  N5  LIG X 999      42.029 132.321  21.195  1.00  0.00    -0.337 N 
HETATM   12  C2  LIG X 999      42.292 132.245  17.487  1.00  0.00     0.034 A 
HETATM   13  C1  LIG X 999      43.672 131.653  17.426  1.00  0.00     0.059 A 
HETATM   14  N1  LIG X 999      44.218 131.429  16.274  1.00  0.00    -0.300 NA
HETATM   15  H1  LIG X 999      45.171 131.021  16.161  1.00  0.00     0.187 HD
HETATM   16  H7  LIG X 999      41.121 132.708  21.538  1.00  0.00     0.167 HD
HETATM   17  C7  LIG X 999      45.655 130.786  18.895  1.00  0.00     0.015 A 
HETATM   18  C8  LIG X 999      46.148 130.561  20.210  1.00  0.00     0.002 A 
ENDBRANCH   1   4
TORSDOF 1
