REMARK VINA RESULT:      -7.4      1.631      3.089
REMARK  4 active torsions:
REMARK  status: ('A' for Active; 'I' for Inactive)
REMARK    1  A    between atoms: C3_4  and  O1_5 
REMARK    2  A    between atoms: C3_4  and  O2_6 
REMARK    3  A    between atoms: O2_6  and  C4_7 
REMARK    4  A    between atoms: C7_10  and  N2_11 
ROOT
HETATM    1  C4  LIG X 999      44.867 130.952  18.009  1.00  0.00     0.091 A 
HETATM    2  C5  LIG X 999      45.967 130.488  18.742  1.00  0.00     0.040 A 
HETATM    3  C6  LIG X 999      45.996 130.604  20.129  1.00  0.00     0.033 A 
HETATM    4  C7  LIG X 999      44.938 131.200  20.827  1.00  0.00     0.037 A 
HETATM    5  C8  LIG X 999      43.810 131.680  20.106  1.00  0.00     0.003 A 
HETATM    6  C9  LIG X 999      42.695 132.260  20.750  1.00  0.00     0.014 A 
HETATM    7  C10 LIG X 999      41.608 132.732  20.011  1.00  0.00     0.001 A 
HETATM    8  C11 LIG X 999      41.606 132.632  18.622  1.00  0.00     0.001 A 
HETATM    9  C12 LIG X 999      42.686 132.049  17.961  1.00  0.00     0.015 A 
HETATM   10  C13 LIG X 999      43.792 131.564  18.685  1.00  0.00     0.010 A 
ENDROOT
BRANCH   1  11
HETATM   11  O2  LIG X 999      44.840 130.856  16.608  1.00  0.00    -0.273 OA
BRANCH  11  12
HETATM   12  C3  LIG X 999      45.645 130.000  15.841  1.00  0.00     0.265 C 
HETATM   13  N1  LIG X 999      46.493 130.511  14.978  1.00  0.00    -0.350 N 
HETATM   14  C1  LIG X 999      46.598 131.972  14.850  1.00  0.00     0.153 C 
HETATM   15  C2  LIG X 999      47.344 129.655  14.140  1.00  0.00     0.153 C 
BRANCH  12  16
HETATM   16  O1  LIG X 999      45.490 128.615  15.988  1.00  0.00    -0.327 OA
HETATM   17  H7  LIG X 999      44.623 128.164  16.248  1.00  0.00     0.221 HD
ENDBRANCH  12  16
ENDBRANCH  11  12
ENDBRANCH   1  11
BRANCH   4  18
HETATM   18  N2  LIG X 999      45.052 131.315  22.255  1.00  0.00    -0.398 N 
HETATM   19  H10 LIG X 999      45.112 132.226  22.755  1.00  0.00     0.156 HD
HETATM   20  H11 LIG X 999      45.177 130.459  22.841  1.00  0.00     0.156 HD
ENDBRANCH   4  18
TORSDOF 4
