REMARK VINA RESULT:      -5.5      1.943      4.467
REMARK  4 active torsions:
REMARK  status: ('A' for Active; 'I' for Inactive)
REMARK    1  A    between atoms: C3_3  and  O1_4 
REMARK    2  A    between atoms: O1_4  and  C4_5 
REMARK    3  A    between atoms: C9_12  and  N2_13 
REMARK    4  A    between atoms: C11_17  and  C12_18 
ROOT
HETATM    1  C1  LIG X 999      44.986 131.114  21.204  1.00  0.00     0.014 C 
HETATM    2  C2  LIG X 999      44.068 131.000  21.977  1.00  0.00    -0.091 C 
HETATM    3  C3  LIG X 999      42.951 130.857  22.918  1.00  0.00     0.268 C 
ENDROOT
BRANCH   3   4
HETATM    4  O1  LIG X 999      43.198 129.786  23.826  1.00  0.00    -0.339 OA
BRANCH   4   5
HETATM    5  C4  LIG X 999      42.624 128.502  23.763  1.00  0.00     0.085 A 
HETATM    6  C5  LIG X 999      41.224 128.311  23.990  1.00  0.00     0.052 A 
HETATM    7  C6  LIG X 999      40.666 127.023  23.924  1.00  0.00     0.008 A 
HETATM    8  C7  LIG X 999      41.518 125.984  23.642  1.00  0.00     0.018 A 
HETATM    9  C15 LIG X 999      39.236 126.665  24.131  1.00  0.00     0.059 A 
HETATM   10  C8  LIG X 999      41.155 124.683  23.538  1.00  0.00     0.046 A 
HETATM   11  C10 LIG X 999      42.852 126.109  23.420  1.00  0.00     0.042 A 
HETATM   12  N1  LIG X 999      42.234 123.930  23.247  1.00  0.00    -0.337 N 
HETATM   13  C13 LIG X 999      39.753 124.269  23.730  1.00  0.00     0.033 A 
HETATM   14  H5  LIG X 999      42.254 122.895  23.106  1.00  0.00     0.167 HD
HETATM   15  C9  LIG X 999      43.280 124.800  23.172  1.00  0.00     0.176 A 
HETATM   16  C14 LIG X 999      38.837 125.221  24.014  1.00  0.00     0.034 A 
HETATM   17  C11 LIG X 999      43.466 127.378  23.472  1.00  0.00     0.050 A 
HETATM   18  N5  LIG X 999      38.359 127.578  24.402  1.00  0.00    -0.300 NA
HETATM   19  H9  LIG X 999      37.351 127.347  24.548  1.00  0.00     0.187 HD
BRANCH  15  20
HETATM   20  N2  LIG X 999      44.620 124.403  22.874  1.00  0.00    -0.053 NA
HETATM   21  N3  LIG X 999      44.856 123.388  22.218  1.00  0.00    -0.160 NA
HETATM   22  N4  LIG X 999      45.093 122.375  21.562  1.00  0.00     0.068 N 
ENDBRANCH  15  20
BRANCH  17  23
HETATM   23  C12 LIG X 999      44.922 127.532  23.233  1.00  0.00     0.273 C 
HETATM   24  O2  LIG X 999      45.394 127.619  22.070  1.00  0.00    -0.301 OA
ENDBRANCH  17  23
ENDBRANCH   4   5
ENDBRANCH   3   4
TORSDOF 4
