REMARK VINA RESULT:      -6.6      3.831      5.187
REMARK  7 active torsions:
REMARK  status: ('A' for Active; 'I' for Inactive)
REMARK    1  A    between atoms: C2_2  and  C4_4 
REMARK    2  A    between atoms: C4_4  and  C5_5 
REMARK       I    between atoms: C5_5  and  N1_7 
REMARK    3  A    between atoms: N1_7  and  C6_8 
REMARK    4  A    between atoms: C6_8  and  C7_9 
REMARK    5  A    between atoms: C7_9  and  C8_10 
REMARK    6  A    between atoms: C8_10  and  O2_11 
REMARK    7  A    between atoms: O2_11  and  C9_12 
ROOT
HETATM    1  O2  LIG X 999      44.989 130.611  18.739  1.00  0.00    -0.351 OA
ENDROOT
BRANCH   1   2
HETATM    2  C8  LIG X 999      44.909 131.581  19.783  1.00  0.00     0.177 C 
BRANCH   2   3
HETATM    3  C7  LIG X 999      46.203 131.652  20.610  1.00  0.00     0.048 C 
BRANCH   3   4
HETATM    4  C6  LIG X 999      46.319 132.939  21.441  1.00  0.00     0.154 C 
BRANCH   4   5
HETATM    5  N1  LIG X 999      47.715 133.308  21.659  1.00  0.00    -0.256 NA
HETATM    6  C5  LIG X 999      48.170 134.066  22.783  1.00  0.00     0.238 C 
HETATM    7  O1  LIG X 999      47.371 134.384  23.706  1.00  0.00    -0.272 OA
BRANCH   6   8
HETATM    8  C4  LIG X 999      49.609 134.477  22.871  1.00  0.00     0.108 C 
BRANCH   8   9
HETATM    9  C2  LIG X 999      49.818 135.941  22.435  1.00  0.00    -0.014 C 
HETATM   10  C1  LIG X 999      51.311 136.285  22.318  1.00  0.00     0.010 C 
HETATM   11  C3  LIG X 999      49.113 136.198  21.099  1.00  0.00     0.010 C 
ENDBRANCH   8   9
ENDBRANCH   6   8
ENDBRANCH   4   5
ENDBRANCH   3   4
ENDBRANCH   2   3
ENDBRANCH   1   2
BRANCH   1  12
HETATM   12  C9  LIG X 999      45.545 130.815  17.465  1.00  0.00     0.069 A 
HETATM   13  C10 LIG X 999      45.287 132.033  16.827  1.00  0.00     0.037 A 
HETATM   14  C11 LIG X 999      45.773 132.284  15.542  1.00  0.00     0.015 A 
HETATM   15  C12 LIG X 999      46.537 131.317  14.877  1.00  0.00    -0.026 A 
HETATM   16  C13 LIG X 999      47.020 131.552  13.580  1.00  0.00     0.012 A 
HETATM   17  C17 LIG X 999      46.823 130.088  15.520  1.00  0.00    -0.023 A 
HETATM   18  C14 LIG X 999      47.783 130.579  12.928  1.00  0.00     0.001 A 
HETATM   19  C15 LIG X 999      48.069 129.367  13.564  1.00  0.00     0.001 A 
HETATM   20  C16 LIG X 999      47.593 129.121  14.855  1.00  0.00     0.012 A 
HETATM   21  C18 LIG X 999      46.334 129.848  16.814  1.00  0.00     0.049 A 
ENDBRANCH   1  12
TORSDOF 7
