REMARK VINA RESULT:      -6.2      5.901      8.810
REMARK  7 active torsions:
REMARK  status: ('A' for Active; 'I' for Inactive)
REMARK    1  A    between atoms: C14_14  and  N1_15 
REMARK    2  A    between atoms: N1_15  and  C15_17 
REMARK    3  A    between atoms: C15_17  and  C16_18 
REMARK    4  A    between atoms: C16_18  and  C17_19 
REMARK    5  A    between atoms: C17_19  and  C18_20 
REMARK    6  A    between atoms: C18_20  and  C19_21 
REMARK    7  A    between atoms: C19_21  and  N2_22 
ROOT
HETATM    1  C1  LIG X 999      53.364 138.242  23.690  1.00  0.00     0.001 C 
HETATM    2  C2  LIG X 999      52.320 138.787  22.948  1.00  0.00     0.001 C 
HETATM    3  C3  LIG X 999      51.230 137.996  22.576  1.00  0.00     0.013 C 
HETATM    4  C4  LIG X 999      51.183 136.619  22.896  1.00  0.00    -0.013 C 
HETATM    5  C5  LIG X 999      52.199 136.113  23.756  1.00  0.00    -0.025 C 
HETATM    6  C6  LIG X 999      53.296 136.916  24.111  1.00  0.00     0.012 C 
HETATM    7  C7  LIG X 999      52.085 134.833  24.303  1.00  0.00     0.014 C 
HETATM    8  C8  LIG X 999      50.956 134.066  24.058  1.00  0.00     0.031 C 
HETATM    9  C9  LIG X 999      49.965 134.509  23.172  1.00  0.00     0.045 C 
HETATM   10  C10 LIG X 999      50.116 135.749  22.489  1.00  0.00     0.008 C 
HETATM   11  C11 LIG X 999      49.207 136.007  21.418  1.00  0.00    -0.045 C 
HETATM   12  C12 LIG X 999      49.455 137.013  20.319  1.00  0.00     0.049 C 
HETATM   13  C13 LIG X 999      48.071 135.198  21.269  1.00  0.00     0.056 C 
HETATM   14  C14 LIG X 999      47.891 134.057  22.069  1.00  0.00     0.101 C 
HETATM   15  N3  LIG X 999      48.868 133.726  22.960  1.00  0.00    -0.342 N 
HETATM   16  H28 LIG X 999      48.771 132.841  23.511  1.00  0.00     0.167 HD
ENDROOT
BRANCH  14  17
HETATM   17  N1  LIG X 999      46.837 133.281  21.956  1.00  0.00    -0.376 N 
HETATM   18  H11 LIG X 999      46.035 133.425  22.613  1.00  0.00     0.161 HD
BRANCH  17  19
HETATM   19  C15 LIG X 999      46.661 132.196  20.982  1.00  0.00     0.121 C 
BRANCH  19  20
HETATM   20  C16 LIG X 999      45.173 131.875  20.789  1.00  0.00     0.020 C 
BRANCH  20  21
HETATM   21  C17 LIG X 999      44.850 131.638  19.306  1.00  0.00     0.004 C 
BRANCH  21  22
HETATM   22  C18 LIG X 999      45.813 130.643  18.635  1.00  0.00     0.035 C 
BRANCH  22  23
HETATM   23  C19 LIG X 999      45.560 130.450  17.126  1.00  0.00     0.216 C 
HETATM   24  C21 LIG X 999      45.317 131.816  16.459  1.00  0.00     0.042 C 
BRANCH  23  25
HETATM   25  N2  LIG X 999      46.706 129.748  16.516  1.00  0.00     0.083 N 
HETATM   26  H21 LIG X 999      47.582 129.940  17.058  1.00  0.00     0.315 HD
HETATM   27  C20 LIG X 999      46.919 130.144  15.122  1.00  0.00     0.307 C 
ENDBRANCH  23  25
ENDBRANCH  22  23
ENDBRANCH  21  22
ENDBRANCH  20  21
ENDBRANCH  19  20
ENDBRANCH  17  19
ENDBRANCH  14  17
TORSDOF 7
