MODEL 1
REMARK VINA RESULT:      -8.6      0.000      0.000
REMARK  3 active torsions:
REMARK  status: ('A' for Active; 'I' for Inactive)
REMARK    1  A    between atoms: C3_3  and  S1_4 
REMARK    2  A    between atoms: S1_4  and  C4_7 
REMARK    3  A    between atoms: C12_15  and  N1_16 
ROOT
HETATM    1  C1  LIG X 999      47.638 131.001  12.823  1.00  0.00     0.013 C 
HETATM    2  C2  LIG X 999      47.121 131.286  13.874  1.00  0.00    -0.102 C 
HETATM    3  C3  LIG X 999      46.491 131.635  15.151  1.00  0.00     0.233 C 
ENDROOT
BRANCH   3   4
HETATM    4  S1  LIG X 999      45.020 130.657  15.421  1.00  0.00     0.159 S 
HETATM    5  O1  LIG X 999      45.306 129.248  14.983  1.00  0.00    -0.227 OA
HETATM    6  O2  LIG X 999      43.885 131.199  14.597  1.00  0.00    -0.227 OA
BRANCH   4   7
HETATM    7  C4  LIG X 999      44.561 130.641  17.159  1.00  0.00     0.116 C 
HETATM    8  C5  LIG X 999      43.591 131.789  17.456  1.00  0.00     0.059 C 
HETATM    9  C6  LIG X 999      43.275 131.897  18.926  1.00  0.00    -0.049 A 
HETATM   10  C7  LIG X 999      42.103 132.571  19.310  1.00  0.00     0.007 A 
HETATM   11  C11 LIG X 999      44.157 131.398  19.919  1.00  0.00    -0.019 A 
HETATM   12  C8  LIG X 999      41.771 132.703  20.658  1.00  0.00     0.001 A 
HETATM   13  C9  LIG X 999      42.602 132.165  21.637  1.00  0.00     0.001 A 
HETATM   14  C10 LIG X 999      43.779 131.508  21.274  1.00  0.00     0.010 A 
HETATM   15  C12 LIG X 999      45.425 130.632  19.549  1.00  0.00     0.252 C 
HETATM   16  C13 LIG X 999      45.794 130.778  18.056  1.00  0.00     0.060 C 
BRANCH  15  17
HETATM   17  N1  LIG X 999      46.558 131.078  20.371  1.00  0.00     0.087 N 
HETATM   18  H12 LIG X 999      46.207 131.326  21.323  1.00  0.00     0.313 HD
HETATM   19  H13 LIG X 999      47.203 130.270  20.531  1.00  0.00     0.313 HD
ENDBRANCH  15  17
ENDBRANCH   4   7
ENDBRANCH   3   4
TORSDOF 3
ENDMDL
MODEL 2
REMARK VINA RESULT:      -8.6      1.866      2.676
REMARK  3 active torsions:
REMARK  status: ('A' for Active; 'I' for Inactive)
REMARK    1  A    between atoms: C3_3  and  S1_4 
REMARK    2  A    between atoms: S1_4  and  C4_7 
REMARK    3  A    between atoms: C12_15  and  N1_16 
ROOT
HETATM    1  C1  LIG X 999      48.136 129.500  13.745  1.00  0.00     0.013 C 
HETATM    2  C2  LIG X 999      47.202 129.578  14.503  1.00  0.00    -0.102 C 
HETATM    3  C3  LIG X 999      46.068 129.673  15.427  1.00  0.00     0.233 C 
ENDROOT
BRANCH   3   4
HETATM    4  S1  LIG X 999      45.423 131.339  15.471  1.00  0.00     0.159 S 
HETATM    5  O1  LIG X 999      44.290 131.429  14.486  1.00  0.00    -0.227 OA
HETATM    6  O2  LIG X 999      46.494 132.315  15.068  1.00  0.00    -0.227 OA
BRANCH   4   7
HETATM    7  C4  LIG X 999      44.802 131.751  17.106  1.00  0.00     0.116 C 
HETATM    8  C5  LIG X 999      45.403 130.804  18.149  1.00  0.00     0.059 C 
HETATM    9  C6  LIG X 999      44.817 131.026  19.520  1.00  0.00    -0.049 A 
HETATM   10  C7  LIG X 999      45.542 130.581  20.638  1.00  0.00     0.007 A 
HETATM   11  C11 LIG X 999      43.535 131.607  19.700  1.00  0.00    -0.019 A 
HETATM   12  C8  LIG X 999      45.039 130.757  21.927  1.00  0.00     0.001 A 
HETATM   13  C9  LIG X 999      43.808 131.380  22.114  1.00  0.00     0.001 A 
HETATM   14  C10 LIG X 999      43.065 131.812  21.014  1.00  0.00     0.010 A 
HETATM   15  C12 LIG X 999      42.724 132.134  18.518  1.00  0.00     0.252 C 
HETATM   16  C13 LIG X 999      43.275 131.655  17.158  1.00  0.00     0.060 C 
BRANCH  15  17
HETATM   17  N1  LIG X 999      41.316 131.734  18.636  1.00  0.00     0.087 N 
HETATM   18  H12 LIG X 999      41.239 130.981  19.358  1.00  0.00     0.313 HD
HETATM   19  H13 LIG X 999      40.765 132.531  19.028  1.00  0.00     0.313 HD
ENDBRANCH  15  17
ENDBRANCH   4   7
ENDBRANCH   3   4
TORSDOF 3
ENDMDL
MODEL 3
REMARK VINA RESULT:      -8.4      1.673      2.455
REMARK  3 active torsions:
REMARK  status: ('A' for Active; 'I' for Inactive)
REMARK    1  A    between atoms: C3_3  and  S1_4 
REMARK    2  A    between atoms: S1_4  and  C4_7 
REMARK    3  A    between atoms: C12_15  and  N1_16 
ROOT
HETATM    1  C1  LIG X 999      47.648 130.939  12.960  1.00  0.00     0.013 C 
HETATM    2  C2  LIG X 999      47.048 131.404  13.896  1.00  0.00    -0.102 C 
HETATM    3  C3  LIG X 999      46.316 131.969  15.033  1.00  0.00     0.233 C 
ENDROOT
BRANCH   3   4
HETATM    4  S1  LIG X 999      45.727 130.674  16.116  1.00  0.00     0.159 S 
HETATM    5  O1  LIG X 999      46.900 129.819  16.506  1.00  0.00    -0.227 OA
HETATM    6  O2  LIG X 999      44.723 129.819  15.394  1.00  0.00    -0.227 OA
BRANCH   4   7
HETATM    7  C4  LIG X 999      44.989 131.359  17.605  1.00  0.00     0.116 C 
HETATM    8  C5  LIG X 999      45.328 130.477  18.811  1.00  0.00     0.059 C 
HETATM    9  C6  LIG X 999      44.628 130.939  20.064  1.00  0.00    -0.049 A 
HETATM   10  C7  LIG X 999      45.151 130.544  21.307  1.00  0.00     0.007 A 
HETATM   11  C11 LIG X 999      43.429 131.698  20.015  1.00  0.00    -0.019 A 
HETATM   12  C8  LIG X 999      44.535 130.940  22.494  1.00  0.00     0.001 A 
HETATM   13  C9  LIG X 999      43.392 131.734  22.454  1.00  0.00     0.001 A 
HETATM   14  C10 LIG X 999      42.848 132.120  21.228  1.00  0.00     0.010 A 
HETATM   15  C12 LIG X 999      42.842 132.176  18.689  1.00  0.00     0.252 C 
HETATM   16  C13 LIG X 999      43.469 131.467  17.469  1.00  0.00     0.060 C 
BRANCH  15  17
HETATM   17  N1  LIG X 999      41.387 131.977  18.666  1.00  0.00     0.087 N 
HETATM   18  H12 LIG X 999      40.966 132.470  19.486  1.00  0.00     0.313 HD
HETATM   19  H13 LIG X 999      40.987 132.465  17.832  1.00  0.00     0.313 HD
ENDBRANCH  15  17
ENDBRANCH   4   7
ENDBRANCH   3   4
TORSDOF 3
ENDMDL
MODEL 4
REMARK VINA RESULT:      -7.1      4.111      6.490
REMARK  3 active torsions:
REMARK  status: ('A' for Active; 'I' for Inactive)
REMARK    1  A    between atoms: C3_3  and  S1_4 
REMARK    2  A    between atoms: S1_4  and  C4_7 
REMARK    3  A    between atoms: C12_15  and  N1_16 
ROOT
HETATM    1  C1  LIG X 999      45.012 127.892  22.681  1.00  0.00     0.013 C 
HETATM    2  C2  LIG X 999      44.204 128.687  23.092  1.00  0.00    -0.102 C 
HETATM    3  C3  LIG X 999      43.223 129.654  23.593  1.00  0.00     0.233 C 
ENDROOT
BRANCH   3   4
HETATM    4  S1  LIG X 999      43.419 131.235  22.782  1.00  0.00     0.159 S 
HETATM    5  O1  LIG X 999      44.766 131.789  23.156  1.00  0.00    -0.227 OA
HETATM    6  O2  LIG X 999      42.355 132.188  23.253  1.00  0.00    -0.227 OA
BRANCH   4   7
HETATM    7  C4  LIG X 999      43.340 131.062  20.995  1.00  0.00     0.116 C 
HETATM    8  C5  LIG X 999      44.737 131.229  20.389  1.00  0.00     0.059 C 
HETATM    9  C6  LIG X 999      44.706 131.219  18.882  1.00  0.00    -0.049 A 
HETATM   10  C7  LIG X 999      45.891 130.917  18.191  1.00  0.00     0.007 A 
HETATM   11  C11 LIG X 999      43.538 131.569  18.156  1.00  0.00    -0.019 A 
HETATM   12  C8  LIG X 999      45.915 130.901  16.797  1.00  0.00     0.001 A 
HETATM   13  C9  LIG X 999      44.757 131.186  16.077  1.00  0.00     0.001 A 
HETATM   14  C10 LIG X 999      43.575 131.506  16.748  1.00  0.00     0.010 A 
HETATM   15  C12 LIG X 999      42.220 131.874  18.864  1.00  0.00     0.252 C 
HETATM   16  C13 LIG X 999      42.397 132.099  20.381  1.00  0.00     0.060 C 
BRANCH  15  17
HETATM   17  N1  LIG X 999      41.576 133.055  18.273  1.00  0.00     0.087 N 
HETATM   18  H12 LIG X 999      41.687 133.862  18.928  1.00  0.00     0.313 HD
HETATM   19  H13 LIG X 999      42.103 133.338  17.415  1.00  0.00     0.313 HD
ENDBRANCH  15  17
ENDBRANCH   4   7
ENDBRANCH   3   4
TORSDOF 3
ENDMDL
