REMARK VINA RESULT:      -4.5      0.000      0.000
REMARK  2 active torsions:
REMARK  status: ('A' for Active; 'I' for Inactive)
REMARK    1  A    between atoms: C4_4  and  O1_5 
REMARK    2  A    between atoms: C10_11  and  N1_12 
ROOT
HETATM    1  N1  LIG X 999      45.386 127.011  22.047  1.00  0.00    -0.072 NA
HETATM    2  N2  LIG X 999      45.008 127.877  22.836  1.00  0.00    -0.162 NA
HETATM    3  N3  LIG X 999      44.630 128.742  23.624  1.00  0.00     0.068 N 
ENDROOT
BRANCH   1   4
HETATM    4  C10 LIG X 999      45.975 125.777  22.485  1.00  0.00     0.101 C 
HETATM    5  C9  LIG X 999      45.189 124.606  22.408  1.00  0.00     0.007 C 
HETATM    6  C8  LIG X 999      45.635 123.297  22.301  1.00  0.00    -0.022 C 
HETATM    7  C12 LIG X 999      43.711 124.604  22.593  1.00  0.00     0.278 C 
HETATM    8  C7  LIG X 999      46.924 122.870  21.954  1.00  0.00     0.012 C 
HETATM    9  C15 LIG X 999      44.545 122.375  22.697  1.00  0.00     0.276 C 
HETATM   10  C6  LIG X 999      47.737 123.601  21.080  1.00  0.00     0.037 C 
HETATM   11  C4  LIG X 999      49.118 123.791  21.287  1.00  0.00     0.068 C 
HETATM   12  C3  LIG X 999      49.695 123.865  22.571  1.00  0.00     0.037 C 
HETATM   13  C2  LIG X 999      49.028 124.189  23.768  1.00  0.00     0.003 C 
HETATM   14  C1  LIG X 999      47.787 124.834  23.856  1.00  0.00     0.002 C 
HETATM   15  C11 LIG X 999      47.321 125.744  22.898  1.00  0.00     0.035 C 
HETATM   16  N4  LIG X 999      43.289 123.171  22.599  1.00  0.00    -0.067 N 
HETATM   17  C13 LIG X 999      42.396 122.886  23.745  1.00  0.00     0.272 C 
HETATM   18  C14 LIG X 999      42.578 122.844  21.339  1.00  0.00     0.272 C 
BRANCH  11  19
HETATM   19  O1  LIG X 999      49.987 123.955  20.198  1.00  0.00    -0.356 OA
HETATM   20  C5  LIG X 999      50.280 122.941  19.241  1.00  0.00     0.210 C 
ENDBRANCH  11  19
ENDBRANCH   1   4
TORSDOF 2
