REMARK VINA RESULT:      -7.7      0.000      0.000
REMARK  4 active torsions:
REMARK  status: ('A' for Active; 'I' for Inactive)
REMARK    1  A    between atoms: C5_5  and  N1_6 
REMARK    2  A    between atoms: C7_10  and  S1_11 
REMARK    3  A    between atoms: S1_11  and  C8_14 
REMARK    4  A    between atoms: C8_14  and  C9_15 
ROOT
HETATM    1  N1  LIG X 999      45.883 130.104  20.806  1.00  0.00    -0.072 NA
HETATM    2  N2  LIG X 999      45.483 129.176  21.510  1.00  0.00    -0.162 NA
HETATM    3  N3  LIG X 999      45.083 128.250  22.213  1.00  0.00     0.068 N 
ENDROOT
BRANCH   1   4
HETATM    4  C5  LIG X 999      45.046 130.758  19.838  1.00  0.00     0.105 A 
HETATM    5  C4  LIG X 999      43.887 131.447  20.261  1.00  0.00     0.006 A 
HETATM    6  C3  LIG X 999      43.527 131.511  21.623  1.00  0.00     0.014 A 
HETATM    7  C13 LIG X 999      43.060 132.086  19.301  1.00  0.00    -0.022 A 
HETATM    8  C2  LIG X 999      42.372 132.193  22.018  1.00  0.00     0.001 A 
HETATM    9  C1  LIG X 999      41.563 132.816  21.067  1.00  0.00     0.001 A 
HETATM   10  C14 LIG X 999      41.902 132.764  19.714  1.00  0.00     0.012 A 
HETATM   11  C12 LIG X 999      43.398 132.035  17.943  1.00  0.00     0.035 A 
HETATM   12  C7  LIG X 999      44.548 131.357  17.524  1.00  0.00     0.063 A 
HETATM   13  C6  LIG X 999      45.362 130.718  18.466  1.00  0.00     0.058 A 
BRANCH  12  14
HETATM   14  S1  LIG X 999      44.941 131.265  15.809  1.00  0.00     0.186 S 
HETATM   15  O1  LIG X 999      46.134 132.131  15.516  1.00  0.00    -0.222 OA
HETATM   16  O2  LIG X 999      43.779 131.759  14.993  1.00  0.00    -0.222 OA
BRANCH  14  17
HETATM   17  C8  LIG X 999      45.311 129.579  15.366  1.00  0.00     0.239 C 
BRANCH  17  18
HETATM   18  C9  LIG X 999      46.563 129.525  14.609  1.00  0.00    -0.092 C 
HETATM   19  C10 LIG X 999      47.587 129.489  13.973  1.00  0.00    -0.110 C 
HETATM   20  C11 LIG X 999      48.824 129.452  13.196  1.00  0.00     0.112 C 
ENDBRANCH  17  18
ENDBRANCH  14  17
ENDBRANCH  12  14
ENDBRANCH   1   4
TORSDOF 4
