MODEL 1
REMARK VINA RESULT:      -7.7      0.000      0.000
REMARK  4 active torsions:
REMARK  status: ('A' for Active; 'I' for Inactive)
REMARK    1  A    between atoms: C5_5  and  N1_6 
REMARK    2  A    between atoms: C7_10  and  S1_11 
REMARK    3  A    between atoms: S1_11  and  C8_14 
REMARK    4  A    between atoms: C8_14  and  C9_15 
ROOT
HETATM    1  N1  LIG X 999      45.883 130.104  20.806  1.00  0.00    -0.072 NA
HETATM    2  N2  LIG X 999      45.483 129.176  21.510  1.00  0.00    -0.162 NA
HETATM    3  N3  LIG X 999      45.083 128.250  22.213  1.00  0.00     0.068 N 
ENDROOT
BRANCH   1   4
HETATM    4  C5  LIG X 999      45.046 130.758  19.838  1.00  0.00     0.105 A 
HETATM    5  C4  LIG X 999      43.887 131.447  20.261  1.00  0.00     0.006 A 
HETATM    6  C3  LIG X 999      43.527 131.511  21.623  1.00  0.00     0.014 A 
HETATM    7  C13 LIG X 999      43.060 132.086  19.301  1.00  0.00    -0.022 A 
HETATM    8  C2  LIG X 999      42.372 132.193  22.018  1.00  0.00     0.001 A 
HETATM    9  C1  LIG X 999      41.563 132.816  21.067  1.00  0.00     0.001 A 
HETATM   10  C14 LIG X 999      41.902 132.764  19.714  1.00  0.00     0.012 A 
HETATM   11  C12 LIG X 999      43.398 132.035  17.943  1.00  0.00     0.035 A 
HETATM   12  C7  LIG X 999      44.548 131.357  17.524  1.00  0.00     0.063 A 
HETATM   13  C6  LIG X 999      45.362 130.718  18.466  1.00  0.00     0.058 A 
BRANCH  12  14
HETATM   14  S1  LIG X 999      44.941 131.265  15.809  1.00  0.00     0.186 S 
HETATM   15  O1  LIG X 999      46.134 132.131  15.516  1.00  0.00    -0.222 OA
HETATM   16  O2  LIG X 999      43.779 131.759  14.993  1.00  0.00    -0.222 OA
BRANCH  14  17
HETATM   17  C8  LIG X 999      45.311 129.579  15.366  1.00  0.00     0.239 C 
BRANCH  17  18
HETATM   18  C9  LIG X 999      46.563 129.525  14.609  1.00  0.00    -0.092 C 
HETATM   19  C10 LIG X 999      47.587 129.489  13.973  1.00  0.00    -0.110 C 
HETATM   20  C11 LIG X 999      48.824 129.452  13.196  1.00  0.00     0.112 C 
ENDBRANCH  17  18
ENDBRANCH  14  17
ENDBRANCH  12  14
ENDBRANCH   1   4
TORSDOF 4
ENDMDL
MODEL 2
REMARK VINA RESULT:      -6.9      2.377      3.001
REMARK  4 active torsions:
REMARK  status: ('A' for Active; 'I' for Inactive)
REMARK    1  A    between atoms: C5_5  and  N1_6 
REMARK    2  A    between atoms: C7_10  and  S1_11 
REMARK    3  A    between atoms: S1_11  and  C8_14 
REMARK    4  A    between atoms: C8_14  and  C9_15 
ROOT
HETATM    1  N1  LIG X 999      41.457 132.484  19.078  1.00  0.00    -0.072 NA
HETATM    2  N2  LIG X 999      41.211 133.070  20.133  1.00  0.00    -0.162 NA
HETATM    3  N3  LIG X 999      40.965 133.655  21.187  1.00  0.00     0.068 N 
ENDROOT
BRANCH   1   4
HETATM    4  C5  LIG X 999      42.759 131.961  18.769  1.00  0.00     0.105 A 
HETATM    5  C4  LIG X 999      43.614 131.541  19.813  1.00  0.00     0.006 A 
HETATM    6  C3  LIG X 999      43.218 131.620  21.163  1.00  0.00     0.014 A 
HETATM    7  C13 LIG X 999      44.902 131.031  19.502  1.00  0.00    -0.022 A 
HETATM    8  C2  LIG X 999      44.083 131.204  22.179  1.00  0.00     0.001 A 
HETATM    9  C1  LIG X 999      45.349 130.706  21.867  1.00  0.00     0.001 A 
HETATM   10  C14 LIG X 999      45.760 130.619  20.535  1.00  0.00     0.012 A 
HETATM   11  C12 LIG X 999      45.317 130.943  18.168  1.00  0.00     0.035 A 
HETATM   12  C7  LIG X 999      44.468 131.356  17.134  1.00  0.00     0.063 A 
HETATM   13  C6  LIG X 999      43.201 131.867  17.435  1.00  0.00     0.058 A 
BRANCH  12  14
HETATM   14  S1  LIG X 999      45.016 131.278  15.461  1.00  0.00     0.186 S 
HETATM   15  O1  LIG X 999      46.242 132.131  15.290  1.00  0.00    -0.222 OA
HETATM   16  O2  LIG X 999      43.941 131.798  14.548  1.00  0.00    -0.222 OA
BRANCH  14  17
HETATM   17  C8  LIG X 999      45.405 129.593  15.033  1.00  0.00     0.239 C 
BRANCH  17  18
HETATM   18  C9  LIG X 999      46.728 129.529  14.408  1.00  0.00    -0.092 C 
HETATM   19  C10 LIG X 999      47.812 129.487  13.883  1.00  0.00    -0.110 C 
HETATM   20  C11 LIG X 999      49.124 129.444  13.240  1.00  0.00     0.112 C 
ENDBRANCH  17  18
ENDBRANCH  14  17
ENDBRANCH  12  14
ENDBRANCH   1   4
TORSDOF 4
ENDMDL
MODEL 3
REMARK VINA RESULT:      -5.7      2.673      3.341
REMARK  4 active torsions:
REMARK  status: ('A' for Active; 'I' for Inactive)
REMARK    1  A    between atoms: C5_5  and  N1_6 
REMARK    2  A    between atoms: C7_10  and  S1_11 
REMARK    3  A    between atoms: S1_11  and  C8_14 
REMARK    4  A    between atoms: C8_14  and  C9_15 
ROOT
HETATM    1  N1  LIG X 999      41.840 132.802  19.169  1.00  0.00    -0.072 NA
HETATM    2  N2  LIG X 999      41.288 133.217  20.190  1.00  0.00    -0.162 NA
HETATM    3  N3  LIG X 999      40.736 133.631  21.208  1.00  0.00     0.068 N 
ENDROOT
BRANCH   1   4
HETATM    4  C5  LIG X 999      43.019 131.981  19.207  1.00  0.00     0.105 A 
HETATM    5  C4  LIG X 999      43.518 131.523  20.448  1.00  0.00     0.006 A 
HETATM    6  C3  LIG X 999      42.883 131.854  21.662  1.00  0.00     0.014 A 
HETATM    7  C13 LIG X 999      44.686 130.718  20.480  1.00  0.00    -0.022 A 
HETATM    8  C2  LIG X 999      43.398 131.396  22.878  1.00  0.00     0.001 A 
HETATM    9  C1  LIG X 999      44.549 130.606  22.901  1.00  0.00     0.001 A 
HETATM   10  C14 LIG X 999      45.192 130.268  21.710  1.00  0.00     0.012 A 
HETATM   11  C12 LIG X 999      45.334 130.377  19.286  1.00  0.00     0.035 A 
HETATM   12  C7  LIG X 999      44.837 130.826  18.058  1.00  0.00     0.063 A 
HETATM   13  C6  LIG X 999      43.691 131.628  18.021  1.00  0.00     0.058 A 
BRANCH  12  14
HETATM   14  S1  LIG X 999      45.684 130.425  16.566  1.00  0.00     0.186 S 
HETATM   15  O1  LIG X 999      44.845 129.487  15.744  1.00  0.00    -0.222 OA
HETATM   16  O2  LIG X 999      46.986 129.745  16.886  1.00  0.00    -0.222 OA
BRANCH  14  17
HETATM   17  C8  LIG X 999      45.996 131.911  15.633  1.00  0.00     0.239 C 
BRANCH  17  18
HETATM   18  C9  LIG X 999      46.718 131.585  14.401  1.00  0.00    -0.092 C 
HETATM   19  C10 LIG X 999      47.309 131.301  13.390  1.00  0.00    -0.110 C 
HETATM   20  C11 LIG X 999      48.020 130.947  12.162  1.00  0.00     0.112 C 
ENDBRANCH  17  18
ENDBRANCH  14  17
ENDBRANCH  12  14
ENDBRANCH   1   4
TORSDOF 4
ENDMDL
MODEL 4
REMARK VINA RESULT:      -5.1      4.688      7.171
REMARK  4 active torsions:
REMARK  status: ('A' for Active; 'I' for Inactive)
REMARK    1  A    between atoms: C5_5  and  N1_6 
REMARK    2  A    between atoms: C7_10  and  S1_11 
REMARK    3  A    between atoms: S1_11  and  C8_14 
REMARK    4  A    between atoms: C8_14  and  C9_15 
ROOT
HETATM    1  N1  LIG X 999      41.941 132.831  19.921  1.00  0.00    -0.072 NA
HETATM    2  N2  LIG X 999      41.146 133.336  20.715  1.00  0.00    -0.162 NA
HETATM    3  N3  LIG X 999      40.352 133.840  21.507  1.00  0.00     0.068 N 
ENDROOT
BRANCH   1   4
HETATM    4  C5  LIG X 999      42.992 131.943  20.338  1.00  0.00     0.105 A 
HETATM    5  C4  LIG X 999      43.976 131.533  19.410  1.00  0.00     0.006 A 
HETATM    6  C3  LIG X 999      43.954 131.978  18.072  1.00  0.00     0.014 A 
HETATM    7  C13 LIG X 999      45.008 130.651  19.825  1.00  0.00    -0.022 A 
HETATM    8  C2  LIG X 999      44.934 131.554  17.170  1.00  0.00     0.001 A 
HETATM    9  C1  LIG X 999      45.944 130.685  17.585  1.00  0.00     0.001 A 
HETATM   10  C14 LIG X 999      45.983 130.234  18.905  1.00  0.00     0.012 A 
HETATM   11  C12 LIG X 999      45.049 130.197  21.149  1.00  0.00     0.035 A 
HETATM   12  C7  LIG X 999      44.077 130.607  22.068  1.00  0.00     0.063 A 
HETATM   13  C6  LIG X 999      43.053 131.469  21.662  1.00  0.00     0.058 A 
BRANCH  12  14
HETATM   14  S1  LIG X 999      44.116 129.996  23.721  1.00  0.00     0.186 S 
HETATM   15  O1  LIG X 999      44.746 131.018  24.624  1.00  0.00    -0.222 OA
HETATM   16  O2  LIG X 999      44.934 128.736  23.779  1.00  0.00    -0.222 OA
BRANCH  14  17
HETATM   17  C8  LIG X 999      42.456 129.660  24.276  1.00  0.00     0.239 C 
BRANCH  17  18
HETATM   18  C9  LIG X 999      42.110 128.264  24.000  1.00  0.00    -0.092 C 
HETATM   19  C10 LIG X 999      41.816 127.119  23.760  1.00  0.00    -0.110 C 
HETATM   20  C11 LIG X 999      41.456 125.735  23.460  1.00  0.00     0.112 C 
ENDBRANCH  17  18
ENDBRANCH  14  17
ENDBRANCH  12  14
ENDBRANCH   1   4
TORSDOF 4
ENDMDL
MODEL 5
REMARK VINA RESULT:      -4.8      5.653      7.321
REMARK  4 active torsions:
REMARK  status: ('A' for Active; 'I' for Inactive)
REMARK    1  A    between atoms: C5_5  and  N1_6 
REMARK    2  A    between atoms: C7_10  and  S1_11 
REMARK    3  A    between atoms: S1_11  and  C8_14 
REMARK    4  A    between atoms: C8_14  and  C9_15 
ROOT
HETATM    1  N1  LIG X 999      45.918 130.106  20.781  1.00  0.00    -0.072 NA
HETATM    2  N2  LIG X 999      45.429 130.634  19.781  1.00  0.00    -0.162 NA
HETATM    3  N3  LIG X 999      44.941 131.161  18.783  1.00  0.00     0.068 N 
ENDROOT
BRANCH   1   4
HETATM    4  C5  LIG X 999      45.132 129.357  21.723  1.00  0.00     0.105 A 
HETATM    5  C4  LIG X 999      44.169 130.017  22.519  1.00  0.00     0.006 A 
HETATM    6  C3  LIG X 999      43.955 131.407  22.411  1.00  0.00     0.014 A 
HETATM    7  C13 LIG X 999      43.400 129.274  23.451  1.00  0.00    -0.022 A 
HETATM    8  C2  LIG X 999      43.002 132.040  23.213  1.00  0.00     0.001 A 
HETATM    9  C1  LIG X 999      42.251 131.302  24.129  1.00  0.00     0.001 A 
HETATM   10  C14 LIG X 999      42.447 129.925  24.251  1.00  0.00     0.012 A 
HETATM   11  C12 LIG X 999      43.595 127.892  23.575  1.00  0.00     0.035 A 
HETATM   12  C7  LIG X 999      44.546 127.238  22.784  1.00  0.00     0.063 A 
HETATM   13  C6  LIG X 999      45.313 127.968  21.869  1.00  0.00     0.058 A 
BRANCH  12  14
HETATM   14  S1  LIG X 999      44.811 125.507  22.977  1.00  0.00     0.186 S 
HETATM   15  O1  LIG X 999      44.775 125.149  24.437  1.00  0.00    -0.222 OA
HETATM   16  O2  LIG X 999      46.160 125.133  22.427  1.00  0.00    -0.222 OA
BRANCH  14  17
HETATM   17  C8  LIG X 999      43.540 124.604  22.115  1.00  0.00     0.239 C 
BRANCH  17  18
HETATM   18  C9  LIG X 999      42.232 124.896  22.706  1.00  0.00    -0.092 C 
HETATM   19  C10 LIG X 999      41.160 125.152  23.194  1.00  0.00    -0.110 C 
HETATM   20  C11 LIG X 999      39.862 125.473  23.785  1.00  0.00     0.112 C 
ENDBRANCH  17  18
ENDBRANCH  14  17
ENDBRANCH  12  14
ENDBRANCH   1   4
TORSDOF 4
ENDMDL
MODEL 6
REMARK VINA RESULT:      -4.8      3.661      7.268
REMARK  4 active torsions:
REMARK  status: ('A' for Active; 'I' for Inactive)
REMARK    1  A    between atoms: C5_5  and  N1_6 
REMARK    2  A    between atoms: C7_10  and  S1_11 
REMARK    3  A    between atoms: S1_11  and  C8_14 
REMARK    4  A    between atoms: C8_14  and  C9_15 
ROOT
HETATM    1  N1  LIG X 999      43.566 132.329  15.078  1.00  0.00    -0.072 NA
HETATM    2  N2  LIG X 999      43.039 131.767  14.117  1.00  0.00    -0.162 NA
HETATM    3  N3  LIG X 999      42.512 131.207  13.157  1.00  0.00     0.068 N 
ENDROOT
BRANCH   1   4
HETATM    4  C5  LIG X 999      44.498 131.664  15.947  1.00  0.00     0.105 A 
HETATM    5  C4  LIG X 999      45.588 130.951  15.396  1.00  0.00     0.006 A 
HETATM    6  C3  LIG X 999      45.787 130.876  14.002  1.00  0.00     0.014 A 
HETATM    7  C13 LIG X 999      46.502 130.291  16.257  1.00  0.00    -0.022 A 
HETATM    8  C2  LIG X 999      46.867 130.160  13.479  1.00  0.00     0.001 A 
HETATM    9  C1  LIG X 999      47.761 129.512  14.333  1.00  0.00     0.001 A 
HETATM   10  C14 LIG X 999      47.582 129.575  15.716  1.00  0.00     0.012 A 
HETATM   11  C12 LIG X 999      46.324 130.352  17.645  1.00  0.00     0.035 A 
HETATM   12  C7  LIG X 999      45.248 131.061  18.190  1.00  0.00     0.063 A 
HETATM   13  C6  LIG X 999      44.339 131.706  17.345  1.00  0.00     0.058 A 
BRANCH  12  14
HETATM   14  S1  LIG X 999      45.012 131.097  19.936  1.00  0.00     0.186 S 
HETATM   15  O1  LIG X 999      45.779 132.246  20.528  1.00  0.00    -0.222 OA
HETATM   16  O2  LIG X 999      45.519 129.820  20.545  1.00  0.00    -0.222 OA
BRANCH  14  17
HETATM   17  C8  LIG X 999      43.279 131.291  20.304  1.00  0.00     0.239 C 
BRANCH  17  18
HETATM   18  C9  LIG X 999      43.094 131.497  21.742  1.00  0.00    -0.092 C 
HETATM   19  C10 LIG X 999      42.955 131.657  22.929  1.00  0.00    -0.110 C 
HETATM   20  C11 LIG X 999      42.796 131.847  24.370  1.00  0.00     0.112 C 
ENDBRANCH  17  18
ENDBRANCH  14  17
ENDBRANCH  12  14
ENDBRANCH   1   4
TORSDOF 4
ENDMDL
