REMARK VINA RESULT:      -8.4      0.894      1.059
REMARK  1 active torsions:
REMARK  status: ('A' for Active; 'I' for Inactive)
REMARK    1  A    between atoms: C2_2  and  N1_3 
ROOT
HETATM    1  N1  LIG X 999      46.901 129.928  14.792  1.00  0.00    -0.073 NA
HETATM    2  N2  LIG X 999      47.300 130.625  13.858  1.00  0.00    -0.162 NA
HETATM    3  N3  LIG X 999      47.701 131.318  12.924  1.00  0.00     0.068 N 
ENDROOT
BRANCH   1   4
HETATM    4  C2  LIG X 999      45.987 130.423  15.781  1.00  0.00     0.094 A 
HETATM    5  C1  LIG X 999      44.839 131.156  15.426  1.00  0.00     0.035 A 
HETATM    6  C10 LIG X 999      43.965 131.627  16.411  1.00  0.00     0.014 A 
HETATM    7  C9  LIG X 999      44.224 131.372  17.764  1.00  0.00    -0.025 A 
HETATM    8  C4  LIG X 999      45.384 130.630  18.130  1.00  0.00    -0.023 A 
HETATM    9  C8  LIG X 999      43.350 131.843  18.763  1.00  0.00     0.021 A 
HETATM   10  C3  LIG X 999      46.252 130.165  17.131  1.00  0.00     0.046 A 
HETATM   11  C5  LIG X 999      45.650 130.373  19.489  1.00  0.00     0.021 A 
HETATM   12  C6  LIG X 999      44.756 130.852  20.447  1.00  0.00    -0.024 A 
HETATM   13  C7  LIG X 999      43.647 131.561  20.097  1.00  0.00    -0.024 A 
HETATM   14  C14 LIG X 999      44.846 130.722  21.918  1.00  0.00     0.276 C 
HETATM   15  C11 LIG X 999      42.892 131.972  21.300  1.00  0.00     0.276 C 
HETATM   16  N4  LIG X 999      43.570 131.296  22.452  1.00  0.00    -0.067 N 
HETATM   17  C12 LIG X 999      42.710 130.212  22.983  1.00  0.00     0.272 C 
HETATM   18  C13 LIG X 999      43.847 132.266  23.537  1.00  0.00     0.272 C 
ENDBRANCH   1   4
TORSDOF 1
