REMARK VINA RESULT:      -8.4      1.266      1.425
REMARK  3 active torsions:
REMARK  status: ('A' for Active; 'I' for Inactive)
REMARK    1  A    between atoms: O1_2  and  C1_3 
REMARK    2  A    between atoms: C1_3  and  C3_8 
REMARK    3  A    between atoms: C2_4  and  N1_5 
ROOT
HETATM    1  N1  LIG X 999      45.776 130.289  14.042  1.00  0.00    -0.082 NA
HETATM    2  N2  LIG X 999      46.943 129.909  13.955  1.00  0.00    -0.163 NA
HETATM    3  N3  LIG X 999      48.110 129.530  13.867  1.00  0.00     0.068 N 
ENDROOT
BRANCH   1   4
HETATM    4  C2  LIG X 999      45.126 130.358  15.312  1.00  0.00     0.193 C 
HETATM    5  C1  LIG X 999      45.215 131.460  16.075  1.00  0.00     0.096 C 
BRANCH   5   6
HETATM    6  O1  LIG X 999      45.925 132.579  15.627  1.00  0.00    -0.358 OA
HETATM    7  H1  LIG X 999      46.642 133.035  16.176  1.00  0.00     0.217 HD
ENDBRANCH   5   6
BRANCH   5   8
HETATM    8  C3  LIG X 999      44.551 131.540  17.402  1.00  0.00    -0.001 A 
HETATM    9  C4  LIG X 999      43.191 131.888  17.468  1.00  0.00     0.015 A 
HETATM   10  C5  LIG X 999      42.536 131.983  18.698  1.00  0.00     0.013 A 
HETATM   11  C6  LIG X 999      43.233 131.740  19.890  1.00  0.00    -0.026 A 
HETATM   12  C7  LIG X 999      42.583 131.834  21.130  1.00  0.00     0.012 A 
HETATM   13  C11 LIG X 999      44.606 131.404  19.840  1.00  0.00    -0.025 A 
HETATM   14  C8  LIG X 999      43.291 131.597  22.312  1.00  0.00     0.001 A 
HETATM   15  C9  LIG X 999      44.648 131.268  22.264  1.00  0.00     0.001 A 
HETATM   16  C10 LIG X 999      45.306 131.171  21.034  1.00  0.00     0.012 A 
HETATM   17  C12 LIG X 999      45.257 131.310  18.600  1.00  0.00     0.026 A 
ENDBRANCH   5   8
ENDBRANCH   1   4
TORSDOF 3
