REMARK VINA RESULT:      -5.3      8.938     10.656
REMARK  1 active torsions:
REMARK  status: ('A' for Active; 'I' for Inactive)
REMARK    1  A    between atoms: C11_13  and  N2_14 
ROOT
HETATM    1  N2  LIG X 999      50.911 133.371  24.543  1.00  0.00    -0.053 NA
HETATM    2  N3  LIG X 999      51.829 132.577  24.339  1.00  0.00    -0.160 NA
HETATM    3  N4  LIG X 999      52.744 131.778  24.148  1.00  0.00     0.068 N 
ENDROOT
BRANCH   1   4
HETATM    4  C11 LIG X 999      50.576 134.419  23.624  1.00  0.00     0.175 A 
HETATM    5  C10 LIG X 999      51.275 135.611  23.398  1.00  0.00     0.026 A 
HETATM    6  C5  LIG X 999      50.555 136.255  22.445  1.00  0.00     0.017 A 
HETATM    7  C9  LIG X 999      52.440 136.196  23.907  1.00  0.00     0.016 A 
HETATM    8  C4  LIG X 999      49.479 135.507  22.107  1.00  0.00     0.046 A 
HETATM    9  C6  LIG X 999      50.876 137.482  21.910  1.00  0.00     0.005 A 
HETATM   10  C3  LIG X 999      48.525 135.978  21.087  1.00  0.00     0.033 A 
HETATM   11  N5  LIG X 999      49.474 134.365  22.826  1.00  0.00    -0.337 N 
HETATM   12  C2  LIG X 999      48.751 137.175  20.499  1.00  0.00     0.034 A 
HETATM   13  C1  LIG X 999      49.947 138.008  20.875  1.00  0.00     0.059 A 
HETATM   14  N1  LIG X 999      50.164 139.154  20.312  1.00  0.00    -0.300 NA
HETATM   15  H1  LIG X 999      49.523 139.539  19.583  1.00  0.00     0.187 HD
HETATM   16  H7  LIG X 999      48.767 133.598  22.780  1.00  0.00     0.167 HD
HETATM   17  C7  LIG X 999      52.042 138.107  22.395  1.00  0.00     0.015 A 
HETATM   18  C8  LIG X 999      52.821 137.461  23.393  1.00  0.00     0.002 A 
ENDBRANCH   1   4
TORSDOF 1
