REMARK VINA RESULT:      -7.0      1.102      6.096
REMARK  1 active torsions:
REMARK  status: ('A' for Active; 'I' for Inactive)
REMARK    1  A    between atoms: C9_10  and  N2_11 
ROOT
HETATM    1  C1  LIG X 999      42.668 130.385  24.194  1.00  0.00     0.272 C 
HETATM    2  N1  LIG X 999      43.453 131.268  23.302  1.00  0.00    -0.067 N 
HETATM    3  C2  LIG X 999      43.960 132.419  24.088  1.00  0.00     0.272 C 
HETATM    4  C3  LIG X 999      44.599 130.521  22.693  1.00  0.00     0.276 C 
HETATM    5  C4  LIG X 999      44.535 130.806  21.244  1.00  0.00    -0.024 A 
HETATM    6  C5  LIG X 999      45.443 130.422  20.255  1.00  0.00     0.021 A 
HETATM    7  C6  LIG X 999      45.177 130.783  18.919  1.00  0.00    -0.025 A 
HETATM    8  C7  LIG X 999      46.062 130.423  17.893  1.00  0.00     0.014 A 
HETATM    9  C8  LIG X 999      45.788 130.784  16.571  1.00  0.00     0.030 A 
HETATM   10  C9  LIG X 999      44.627 131.506  16.255  1.00  0.00     0.026 A 
HETATM   11  C10 LIG X 999      43.734 131.870  17.273  1.00  0.00     0.041 A 
HETATM   12  C11 LIG X 999      43.997 131.516  18.604  1.00  0.00    -0.023 A 
HETATM   13  C12 LIG X 999      43.103 131.877  19.633  1.00  0.00     0.021 A 
HETATM   14  C13 LIG X 999      43.407 131.507  20.943  1.00  0.00    -0.024 A 
HETATM   15  C14 LIG X 999      42.611 131.756  22.164  1.00  0.00     0.276 C 
ENDROOT
BRANCH  10  16
HETATM   16  N2  LIG X 999      44.356 131.869  14.899  1.00  0.00    -0.399 N 
HETATM   17  H12 LIG X 999      44.373 131.152  14.140  1.00  0.00     0.156 HD
HETATM   18  H13 LIG X 999      44.136 132.858  14.644  1.00  0.00     0.156 HD
ENDBRANCH  10  16
TORSDOF 1
