MODEL 1
REMARK VINA RESULT:      -7.8      0.000      0.000
REMARK  1 active torsions:
REMARK  status: ('A' for Active; 'I' for Inactive)
REMARK    1  A    between atoms: C5_8  and  O1_9 
ROOT
HETATM    1  H1  LIG X 999      47.135 129.665  15.791  1.00  0.00     0.187 HD
HETATM    2  N1  LIG X 999      46.846 129.873  16.773  1.00  0.00    -0.300 NA
HETATM    3  C1  LIG X 999      45.732 130.476  17.041  1.00  0.00     0.059 A 
HETATM    4  C2  LIG X 999      44.797 130.904  15.942  1.00  0.00     0.034 A 
HETATM    5  C3  LIG X 999      43.632 131.535  16.223  1.00  0.00     0.035 A 
HETATM    6  C4  LIG X 999      43.297 131.793  17.636  1.00  0.00     0.071 A 
HETATM    7  N2  LIG X 999      42.204 132.400  18.157  1.00  0.00    -0.224 NA
HETATM    8  C5  LIG X 999      42.414 132.368  19.506  1.00  0.00     0.174 A 
HETATM    9  C6  LIG X 999      43.617 131.753  19.813  1.00  0.00     0.030 A 
HETATM   10  C7  LIG X 999      44.297 131.464  20.998  1.00  0.00     0.017 A 
HETATM   11  C8  LIG X 999      45.545 130.800  20.888  1.00  0.00     0.002 A 
HETATM   12  C9  LIG X 999      46.073 130.447  19.614  1.00  0.00     0.015 A 
HETATM   13  C10 LIG X 999      45.345 130.762  18.447  1.00  0.00     0.005 A 
HETATM   14  C11 LIG X 999      44.141 131.407  18.619  1.00  0.00     0.020 A 
ENDROOT
BRANCH   8  15
HETATM   15  O1  LIG X 999      41.526 132.891  20.438  1.00  0.00    -0.344 OA
HETATM   16  H4  LIG X 999      41.156 132.310  21.180  1.00  0.00     0.219 HD
ENDBRANCH   8  15
TORSDOF 1
ENDMDL
MODEL 2
REMARK VINA RESULT:      -6.9      1.853      3.115
REMARK  1 active torsions:
REMARK  status: ('A' for Active; 'I' for Inactive)
REMARK    1  A    between atoms: C5_8  and  O1_9 
ROOT
HETATM    1  H1  LIG X 999      43.923 131.343  14.564  1.00  0.00     0.187 HD
HETATM    2  N1  LIG X 999      43.507 131.590  15.490  1.00  0.00    -0.300 NA
HETATM    3  C1  LIG X 999      44.126 131.347  16.601  1.00  0.00     0.059 A 
HETATM    4  C2  LIG X 999      45.483 130.696  16.608  1.00  0.00     0.034 A 
HETATM    5  C3  LIG X 999      46.130 130.442  17.770  1.00  0.00     0.035 A 
HETATM    6  C4  LIG X 999      45.474 130.820  19.035  1.00  0.00     0.071 A 
HETATM    7  N2  LIG X 999      45.918 130.669  20.305  1.00  0.00    -0.224 NA
HETATM    8  C5  LIG X 999      44.917 131.189  21.075  1.00  0.00     0.174 A 
HETATM    9  C6  LIG X 999      43.871 131.653  20.292  1.00  0.00     0.030 A 
HETATM   10  C7  LIG X 999      42.641 132.258  20.558  1.00  0.00     0.017 A 
HETATM   11  C8  LIG X 999      41.827 132.594  19.447  1.00  0.00     0.002 A 
HETATM   12  C9  LIG X 999      42.258 132.321  18.118  1.00  0.00     0.015 A 
HETATM   13  C10 LIG X 999      43.511 131.708  17.906  1.00  0.00     0.005 A 
HETATM   14  C11 LIG X 999      44.255 131.405  19.024  1.00  0.00     0.020 A 
ENDROOT
BRANCH   8  15
HETATM   15  O1  LIG X 999      44.957 131.238  22.463  1.00  0.00    -0.344 OA
HETATM   16  H4  LIG X 999      45.669 131.778  22.939  1.00  0.00     0.219 HD
ENDBRANCH   8  15
TORSDOF 1
ENDMDL
MODEL 3
REMARK VINA RESULT:      -6.4      2.230      3.791
REMARK  1 active torsions:
REMARK  status: ('A' for Active; 'I' for Inactive)
REMARK    1  A    between atoms: C5_8  and  O1_9 
ROOT
HETATM    1  H1  LIG X 999      41.166 132.817  21.931  1.00  0.00     0.187 HD
HETATM    2  N1  LIG X 999      42.092 132.388  21.709  1.00  0.00    -0.300 NA
HETATM    3  C1  LIG X 999      42.484 132.208  20.488  1.00  0.00     0.059 A 
HETATM    4  C2  LIG X 999      41.617 132.614  19.327  1.00  0.00     0.034 A 
HETATM    5  C3  LIG X 999      42.027 132.426  18.050  1.00  0.00     0.035 A 
HETATM    6  C4  LIG X 999      43.348 131.812  17.820  1.00  0.00     0.071 A 
HETATM    7  N2  LIG X 999      43.965 131.527  16.649  1.00  0.00    -0.224 NA
HETATM    8  C5  LIG X 999      45.155 130.972  17.023  1.00  0.00     0.174 A 
HETATM    9  C6  LIG X 999      45.271 130.915  18.403  1.00  0.00     0.030 A 
HETATM   10  C7  LIG X 999      46.251 130.459  19.287  1.00  0.00     0.017 A 
HETATM   11  C8  LIG X 999      45.984 130.580  20.674  1.00  0.00     0.002 A 
HETATM   12  C9  LIG X 999      44.763 131.147  21.135  1.00  0.00     0.015 A 
HETATM   13  C10 LIG X 999      43.806 131.593  20.199  1.00  0.00     0.005 A 
HETATM   14  C11 LIG X 999      44.123 131.449  18.867  1.00  0.00     0.020 A 
ENDROOT
BRANCH   8  15
HETATM   15  O1  LIG X 999      46.116 130.527  16.124  1.00  0.00    -0.344 OA
HETATM   16  H4  LIG X 999      47.102 130.635  16.328  1.00  0.00     0.219 HD
ENDBRANCH   8  15
TORSDOF 1
ENDMDL
MODEL 4
REMARK VINA RESULT:      -6.3      2.164      4.046
REMARK  1 active torsions:
REMARK  status: ('A' for Active; 'I' for Inactive)
REMARK    1  A    between atoms: C5_8  and  O1_9 
ROOT
HETATM    1  H1  LIG X 999      45.140 131.179  23.337  1.00  0.00     0.187 HD
HETATM    2  N1  LIG X 999      44.448 131.465  22.609  1.00  0.00    -0.300 NA
HETATM    3  C1  LIG X 999      44.687 131.315  21.346  1.00  0.00     0.059 A 
HETATM    4  C2  LIG X 999      45.981 130.715  20.866  1.00  0.00     0.034 A 
HETATM    5  C3  LIG X 999      46.231 130.558  19.545  1.00  0.00     0.035 A 
HETATM    6  C4  LIG X 999      45.202 130.989  18.580  1.00  0.00     0.071 A 
HETATM    7  N2  LIG X 999      45.224 130.934  17.227  1.00  0.00    -0.224 NA
HETATM    8  C5  LIG X 999      44.023 131.463  16.851  1.00  0.00     0.174 A 
HETATM    9  C6  LIG X 999      43.272 131.840  17.954  1.00  0.00     0.030 A 
HETATM   10  C7  LIG X 999      42.012 132.414  18.132  1.00  0.00     0.017 A 
HETATM   11  C8  LIG X 999      41.586 132.651  19.463  1.00  0.00     0.002 A 
HETATM   12  C9  LIG X 999      42.420 132.312  20.566  1.00  0.00     0.015 A 
HETATM   13  C10 LIG X 999      43.685 131.733  20.330  1.00  0.00     0.005 A 
HETATM   14  C11 LIG X 999      44.041 131.528  19.016  1.00  0.00     0.020 A 
ENDROOT
BRANCH   8  15
HETATM   15  O1  LIG X 999      43.620 131.601  15.528  1.00  0.00    -0.344 OA
HETATM   16  H4  LIG X 999      42.997 132.351  15.254  1.00  0.00     0.219 HD
ENDBRANCH   8  15
TORSDOF 1
ENDMDL
MODEL 5
REMARK VINA RESULT:      -5.8      2.417      4.049
REMARK  1 active torsions:
REMARK  status: ('A' for Active; 'I' for Inactive)
REMARK    1  A    between atoms: C5_8  and  O1_9 
ROOT
HETATM    1  H1  LIG X 999      46.139 130.517  20.707  1.00  0.00     0.187 HD
HETATM    2  N1  LIG X 999      46.282 130.379  19.681  1.00  0.00    -0.300 NA
HETATM    3  C1  LIG X 999      45.415 130.788  18.811  1.00  0.00     0.059 A 
HETATM    4  C2  LIG X 999      44.154 131.488  19.241  1.00  0.00     0.034 A 
HETATM    5  C3  LIG X 999      43.247 131.916  18.331  1.00  0.00     0.035 A 
HETATM    6  C4  LIG X 999      43.523 131.681  16.902  1.00  0.00     0.071 A 
HETATM    7  N2  LIG X 999      42.777 132.013  15.822  1.00  0.00    -0.224 NA
HETATM    8  C5  LIG X 999      43.503 131.559  14.759  1.00  0.00     0.174 A 
HETATM    9  C6  LIG X 999      44.680 130.956  15.176  1.00  0.00     0.030 A 
HETATM   10  C7  LIG X 999      45.752 130.343  14.524  1.00  0.00     0.017 A 
HETATM   11  C8  LIG X 999      46.799 129.833  15.331  1.00  0.00     0.002 A 
HETATM   12  C9  LIG X 999      46.749 129.947  16.749  1.00  0.00     0.015 A 
HETATM   13  C10 LIG X 999      45.642 130.577  17.357  1.00  0.00     0.005 A 
HETATM   14  C11 LIG X 999      44.658 131.051  16.520  1.00  0.00     0.020 A 
ENDROOT
BRANCH   8  15
HETATM   15  O1  LIG X 999      43.101 131.692  13.436  1.00  0.00    -0.344 OA
HETATM   16  H4  LIG X 999      42.355 132.330  13.186  1.00  0.00     0.219 HD
ENDBRANCH   8  15
TORSDOF 1
ENDMDL
MODEL 6
REMARK VINA RESULT:      -5.8      1.940      2.972
REMARK  1 active torsions:
REMARK  status: ('A' for Active; 'I' for Inactive)
REMARK    1  A    between atoms: C5_8  and  O1_9 
ROOT
HETATM    1  H1  LIG X 999      42.849 132.092  15.833  1.00  0.00     0.187 HD
HETATM    2  N1  LIG X 999      43.505 131.766  16.578  1.00  0.00    -0.300 NA
HETATM    3  C1  LIG X 999      43.217 131.878  17.835  1.00  0.00     0.059 A 
HETATM    4  C2  LIG X 999      41.915 132.486  18.283  1.00  0.00     0.034 A 
HETATM    5  C3  LIG X 999      41.615 132.603  19.598  1.00  0.00     0.035 A 
HETATM    6  C4  LIG X 999      42.595 132.119  20.588  1.00  0.00     0.071 A 
HETATM    7  N2  LIG X 999      42.520 132.129  21.940  1.00  0.00    -0.224 NA
HETATM    8  C5  LIG X 999      43.695 131.565  22.345  1.00  0.00     0.174 A 
HETATM    9  C6  LIG X 999      44.484 131.212  21.261  1.00  0.00     0.030 A 
HETATM   10  C7  LIG X 999      45.740 130.620  21.114  1.00  0.00     0.017 A 
HETATM   11  C8  LIG X 999      46.214 130.420  19.793  1.00  0.00     0.002 A 
HETATM   12  C9  LIG X 999      45.433 130.812  18.670  1.00  0.00     0.015 A 
HETATM   13  C10 LIG X 999      44.169 131.407  18.875  1.00  0.00     0.005 A 
HETATM   14  C11 LIG X 999      43.764 131.574  20.180  1.00  0.00     0.020 A 
ENDROOT
BRANCH   8  15
HETATM   15  O1  LIG X 999      44.042 131.376  23.678  1.00  0.00    -0.344 OA
HETATM   16  H4  LIG X 999      43.326 131.279  24.388  1.00  0.00     0.219 HD
ENDBRANCH   8  15
TORSDOF 1
ENDMDL
MODEL 7
REMARK VINA RESULT:      -5.8      2.438      4.968
REMARK  1 active torsions:
REMARK  status: ('A' for Active; 'I' for Inactive)
REMARK    1  A    between atoms: C5_8  and  O1_9 
ROOT
HETATM    1  H1  LIG X 999      41.654 132.463  23.742  1.00  0.00     0.187 HD
HETATM    2  N1  LIG X 999      41.725 132.451  22.700  1.00  0.00    -0.300 NA
HETATM    3  C1  LIG X 999      42.763 131.972  22.093  1.00  0.00     0.059 A 
HETATM    4  C2  LIG X 999      43.921 131.403  22.868  1.00  0.00     0.034 A 
HETATM    5  C3  LIG X 999      45.007 130.901  22.233  1.00  0.00     0.035 A 
HETATM    6  C4  LIG X 999      45.030 130.924  20.759  1.00  0.00     0.071 A 
HETATM    7  N2  LIG X 999      45.992 130.485  19.913  1.00  0.00    -0.224 NA
HETATM    8  C5  LIG X 999      45.494 130.751  18.670  1.00  0.00     0.174 A 
HETATM    9  C6  LIG X 999      44.243 131.344  18.747  1.00  0.00     0.030 A 
HETATM   10  C7  LIG X 999      43.317 131.805  17.809  1.00  0.00     0.017 A 
HETATM   11  C8  LIG X 999      42.113 132.366  18.303  1.00  0.00     0.002 A 
HETATM   12  C9  LIG X 999      41.869 132.451  19.703  1.00  0.00     0.015 A 
HETATM   13  C10 LIG X 999      42.839 131.969  20.609  1.00  0.00     0.005 A 
HETATM   14  C11 LIG X 999      43.987 131.436  20.067  1.00  0.00     0.020 A 
ENDROOT
BRANCH   8  15
HETATM   15  O1  LIG X 999      46.166 130.458  17.490  1.00  0.00    -0.344 OA
HETATM   16  H4  LIG X 999      46.325 129.497  17.212  1.00  0.00     0.219 HD
ENDBRANCH   8  15
TORSDOF 1
ENDMDL
MODEL 8
REMARK VINA RESULT:      -5.7      1.836      3.330
REMARK  1 active torsions:
REMARK  status: ('A' for Active; 'I' for Inactive)
REMARK    1  A    between atoms: C5_8  and  O1_9 
ROOT
HETATM    1  H1  LIG X 999      46.179 130.654  16.565  1.00  0.00     0.187 HD
HETATM    2  N1  LIG X 999      45.313 131.048  16.996  1.00  0.00    -0.300 NA
HETATM    3  C1  LIG X 999      45.119 131.031  18.275  1.00  0.00     0.059 A 
HETATM    4  C2  LIG X 999      46.142 130.439  19.207  1.00  0.00     0.034 A 
HETATM    5  C3  LIG X 999      45.940 130.420  20.546  1.00  0.00     0.035 A 
HETATM    6  C4  LIG X 999      44.689 130.996  21.074  1.00  0.00     0.071 A 
HETATM    7  N2  LIG X 999      44.268 131.091  22.358  1.00  0.00    -0.224 NA
HETATM    8  C5  LIG X 999      43.052 131.704  22.268  1.00  0.00     0.174 A 
HETATM    9  C6  LIG X 999      42.726 131.983  20.949  1.00  0.00     0.030 A 
HETATM   10  C7  LIG X 999      41.637 132.582  20.314  1.00  0.00     0.017 A 
HETATM   11  C8  LIG X 999      41.682 132.685  18.901  1.00  0.00     0.002 A 
HETATM   12  C9  LIG X 999      42.800 132.194  18.170  1.00  0.00     0.015 A 
HETATM   13  C10 LIG X 999      43.876 131.597  18.862  1.00  0.00     0.005 A 
HETATM   14  C11 LIG X 999      43.773 131.526  20.233  1.00  0.00     0.020 A 
ENDROOT
BRANCH   8  15
HETATM   15  O1  LIG X 999      42.254 132.003  23.366  1.00  0.00    -0.344 OA
HETATM   16  H4  LIG X 999      41.246 132.040  23.276  1.00  0.00     0.219 HD
ENDBRANCH   8  15
TORSDOF 1
ENDMDL
MODEL 9
REMARK VINA RESULT:      -5.4      1.604      3.332
REMARK  1 active torsions:
REMARK  status: ('A' for Active; 'I' for Inactive)
REMARK    1  A    between atoms: C5_8  and  O1_9 
ROOT
HETATM    1  H1  LIG X 999      46.815 129.388  21.870  1.00  0.00     0.187 HD
HETATM    2  N1  LIG X 999      46.506 129.681  20.916  1.00  0.00    -0.300 NA
HETATM    3  C1  LIG X 999      45.411 130.345  20.730  1.00  0.00     0.059 A 
HETATM    4  C2  LIG X 999      44.528 130.729  21.887  1.00  0.00     0.034 A 
HETATM    5  C3  LIG X 999      43.382 131.423  21.692  1.00  0.00     0.035 A 
HETATM    6  C4  LIG X 999      43.016 131.798  20.313  1.00  0.00     0.071 A 
HETATM    7  N2  LIG X 999      41.934 132.483  19.874  1.00  0.00    -0.224 NA
HETATM    8  C5  LIG X 999      42.100 132.542  18.520  1.00  0.00     0.174 A 
HETATM    9  C6  LIG X 999      43.267 131.903  18.129  1.00  0.00     0.030 A 
HETATM   10  C7  LIG X 999      43.897 131.675  16.905  1.00  0.00     0.017 A 
HETATM   11  C8  LIG X 999      45.119 130.956  16.924  1.00  0.00     0.002 A 
HETATM   12  C9  LIG X 999      45.671 130.491  18.151  1.00  0.00     0.015 A 
HETATM   13  C10 LIG X 999      44.993 130.748  19.361  1.00  0.00     0.005 A 
HETATM   14  C11 LIG X 999      43.812 131.450  19.277  1.00  0.00     0.020 A 
ENDROOT
BRANCH   8  15
HETATM   15  O1  LIG X 999      41.206 133.166  17.658  1.00  0.00    -0.344 OA
HETATM   16  H4  LIG X 999      41.517 133.524  16.764  1.00  0.00     0.219 HD
ENDBRANCH   8  15
TORSDOF 1
ENDMDL
