REMARK VINA RESULT:      -6.1      2.800      3.878
REMARK  7 active torsions:
REMARK  status: ('A' for Active; 'I' for Inactive)
REMARK    1  A    between atoms: S1_2  and  C1_3 
REMARK    2  A    between atoms: C1_3  and  N2_11 
REMARK    3  A    between atoms: N1_4  and  C2_6 
REMARK    4  A    between atoms: C2_6  and  C3_7 
REMARK    5  A    between atoms: C3_7  and  C4_8 
REMARK    6  A    between atoms: C4_8  and  S2_9 
REMARK    7  A    between atoms: N2_11  and  C5_14 
ROOT
HETATM    1  N2  LIG X 999      45.812 130.111  20.130  1.00  0.00     0.006 N 
HETATM    2  H10 LIG X 999      46.750 129.658  20.231  1.00  0.00     0.293 HD
HETATM    3  H11 LIG X 999      45.088 129.403  20.393  1.00  0.00     0.293 HD
ENDROOT
BRANCH   1   4
HETATM    4  C1  LIG X 999      45.728 131.252  21.009  1.00  0.00     0.240 C 
HETATM    5  N1  LIG X 999      46.706 132.105  21.052  1.00  0.00    -0.365 N 
HETATM    6  H2  LIG X 999      47.559 131.913  20.506  1.00  0.00     0.161 HD
BRANCH   4   7
HETATM    7  S1  LIG X 999      44.234 131.459  22.007  1.00  0.00    -0.100 SA
HETATM    8  H1  LIG X 999      43.559 130.449  21.298  1.00  0.00     0.110 HD
ENDBRANCH   4   7
BRANCH   5   9
HETATM    9  C2  LIG X 999      46.656 133.361  21.780  1.00  0.00     0.122 C 
BRANCH   9  10
HETATM   10  C3  LIG X 999      48.045 134.014  21.861  1.00  0.00     0.029 C 
BRANCH  10  11
HETATM   11  C4  LIG X 999      47.998 135.508  21.522  1.00  0.00     0.072 C 
BRANCH  11  12
HETATM   12  S2  LIG X 999      49.682 136.189  21.425  1.00  0.00    -0.182 SA
HETATM   13  H9  LIG X 999      49.700 136.549  22.787  1.00  0.00     0.101 HD
ENDBRANCH  11  12
ENDBRANCH  10  11
ENDBRANCH   9  10
ENDBRANCH   5   9
ENDBRANCH   1   4
BRANCH   1  14
HETATM   14  C5  LIG X 999      45.580 130.540  18.773  1.00  0.00     0.141 A 
HETATM   15  C6  LIG X 999      44.516 131.407  18.470  1.00  0.00     0.038 A 
HETATM   16  C7  LIG X 999      44.247 131.769  17.148  1.00  0.00     0.014 A 
HETATM   17  C8  LIG X 999      45.034 131.265  16.104  1.00  0.00    -0.026 A 
HETATM   18  C9  LIG X 999      44.765 131.614  14.771  1.00  0.00     0.012 A 
HETATM   19  C13 LIG X 999      46.108 130.390  16.396  1.00  0.00    -0.024 A 
HETATM   20  C10 LIG X 999      45.554 131.099  13.739  1.00  0.00     0.001 A 
HETATM   21  C11 LIG X 999      46.614 130.235  14.026  1.00  0.00     0.001 A 
HETATM   22  C12 LIG X 999      46.892 129.881  15.349  1.00  0.00     0.012 A 
HETATM   23  C14 LIG X 999      46.375 130.036  17.727  1.00  0.00     0.049 A 
ENDBRANCH   1  14
TORSDOF 7
