REMARK VINA RESULT:      -4.8      6.254      7.769
REMARK  1 active torsions:
REMARK  status: ('A' for Active; 'I' for Inactive)
REMARK    1  A    between atoms: N1_2  and  C1_3 
ROOT
HETATM    1  C1  LIG X 999      40.879 125.215  23.226  1.00  0.00     0.120 C 
HETATM    2  C2  LIG X 999      41.258 124.062  22.546  1.00  0.00     0.057 C 
HETATM    3  C3  LIG X 999      42.585 123.884  22.133  1.00  0.00    -0.045 C 
HETATM    4  C4  LIG X 999      42.829 122.769  21.145  1.00  0.00     0.049 C 
HETATM    5  C5  LIG X 999      43.579 124.831  22.542  1.00  0.00     0.008 C 
HETATM    6  C6  LIG X 999      44.995 124.666  22.380  1.00  0.00    -0.013 C 
HETATM    7  C7  LIG X 999      45.615 123.412  22.168  1.00  0.00     0.013 C 
HETATM    8  C8  LIG X 999      46.993 123.313  21.959  1.00  0.00     0.001 C 
HETATM    9  C9  LIG X 999      47.794 124.450  22.005  1.00  0.00     0.001 C 
HETATM   10  C10 LIG X 999      47.230 125.684  22.316  1.00  0.00     0.012 C 
HETATM   11  C11 LIG X 999      45.848 125.796  22.544  1.00  0.00    -0.025 C 
HETATM   12  C12 LIG X 999      45.327 127.012  22.988  1.00  0.00     0.014 C 
HETATM   13  C13 LIG X 999      43.985 127.118  23.326  1.00  0.00     0.031 C 
HETATM   14  C14 LIG X 999      43.108 126.046  23.121  1.00  0.00     0.045 C 
HETATM   15  N2  LIG X 999      41.795 126.192  23.464  1.00  0.00    -0.341 N 
HETATM   16  H12 LIG X 999      41.480 127.077  23.923  1.00  0.00     0.167 HD
ENDROOT
BRANCH   1  17
HETATM   17  N1  LIG X 999      39.644 125.365  23.590  1.00  0.00    -0.284 NA
HETATM   18  H1  LIG X 999      38.849 125.246  22.922  1.00  0.00     0.188 HD
ENDBRANCH   1  17
TORSDOF 1
