REMARK VINA RESULT:      -4.3      4.804      6.024
REMARK  4 active torsions:
REMARK  status: ('A' for Active; 'I' for Inactive)
REMARK    1  A    between atoms: C4_4  and  N1_5 
REMARK    2  A    between atoms: C7_10  and  S1_11 
REMARK    3  A    between atoms: S1_11  and  C8_12 
REMARK    4  A    between atoms: C8_12  and  C9_13 
ROOT
HETATM    1  N1  LIG X 999      42.733 127.092  24.536  1.00  0.00    -0.071 NA
HETATM    2  N2  LIG X 999      42.796 128.118  23.857  1.00  0.00    -0.162 NA
HETATM    3  N3  LIG X 999      42.850 129.144  23.181  1.00  0.00     0.068 N 
ENDROOT
BRANCH   1   4
HETATM    4  C4  LIG X 999      43.298 125.836  24.122  1.00  0.00     0.108 A 
HETATM    5  C3  LIG X 999      42.427 124.761  23.922  1.00  0.00     0.008 A 
HETATM    6  C2  LIG X 999      42.868 123.548  23.505  1.00  0.00    -0.021 A 
HETATM    7  C15 LIG X 999      40.958 124.731  24.124  1.00  0.00     0.278 C 
HETATM    8  C1  LIG X 999      44.212 123.311  23.247  1.00  0.00     0.018 A 
HETATM    9  C18 LIG X 999      41.747 122.588  23.398  1.00  0.00     0.276 C 
HETATM   10  C6  LIG X 999      45.142 124.357  23.418  1.00  0.00    -0.035 A 
HETATM   11  C5  LIG X 999      44.697 125.619  23.924  1.00  0.00    -0.018 A 
HETATM   12  C7  LIG X 999      46.615 124.067  23.162  1.00  0.00     0.081 C 
HETATM   13  C14 LIG X 999      45.703 126.705  24.250  1.00  0.00     0.042 C 
HETATM   14  C13 LIG X 999      47.117 126.161  24.457  1.00  0.00     0.006 C 
HETATM   15  C12 LIG X 999      47.519 125.305  23.263  1.00  0.00     0.020 C 
HETATM   16  N4  LIG X 999      40.506 123.392  23.628  1.00  0.00    -0.067 N 
HETATM   17  C16 LIG X 999      39.758 123.547  22.356  1.00  0.00     0.272 C 
HETATM   18  C17 LIG X 999      39.632 122.732  24.625  1.00  0.00     0.272 C 
BRANCH  12  19
HETATM   19  S1  LIG X 999      46.897 123.203  21.559  1.00  0.00    -0.147 SA
BRANCH  19  20
HETATM   20  C8  LIG X 999      48.667 122.784  21.758  1.00  0.00     0.168 C 
BRANCH  20  21
HETATM   21  C9  LIG X 999      49.389 123.133  20.532  1.00  0.00    -0.097 C 
HETATM   22  C10 LIG X 999      49.979 123.423  19.522  1.00  0.00    -0.110 C 
HETATM   23  C11 LIG X 999      50.694 123.778  18.296  1.00  0.00     0.112 C 
ENDBRANCH  20  21
ENDBRANCH  19  20
ENDBRANCH  12  19
ENDBRANCH   1   4
TORSDOF 4
