REMARK VINA RESULT:      -6.2      1.875      3.140
REMARK  4 active torsions:
REMARK  status: ('A' for Active; 'I' for Inactive)
REMARK    1  A    between atoms: O1_2  and  C1_3 
REMARK    2  A    between atoms: C1_3  and  C5_11 
REMARK       I    between atoms: N1_4  and  C2_5 
REMARK    3  A    between atoms: C2_5  and  O3_7 
REMARK    4  A    between atoms: O3_7  and  C3_8 
ROOT
HETATM    1  C5  LIG X 999      44.524 131.324  16.439  1.00  0.00     0.054 A 
HETATM    2  C6  LIG X 999      44.061 131.673  15.149  1.00  0.00     0.122 A 
HETATM    3  O4  LIG X 999      42.830 132.294  14.968  1.00  0.00    -0.191 OA
HETATM    4  C7  LIG X 999      44.833 131.390  14.018  1.00  0.00     0.053 A 
HETATM    5  C8  LIG X 999      46.074 130.753  14.143  1.00  0.00    -0.023 A 
HETATM    6  C9  LIG X 999      46.849 130.466  13.008  1.00  0.00     0.012 A 
HETATM    7  C10 LIG X 999      48.086 129.830  13.146  1.00  0.00     0.001 A 
HETATM    8  C11 LIG X 999      48.555 129.475  14.414  1.00  0.00     0.001 A 
HETATM    9  C12 LIG X 999      47.792 129.754  15.550  1.00  0.00     0.012 A 
HETATM   10  C13 LIG X 999      46.548 130.394  15.424  1.00  0.00    -0.025 A 
HETATM   11  C14 LIG X 999      45.773 130.680  16.558  1.00  0.00     0.031 A 
ENDROOT
BRANCH   1  12
HETATM   12  C1  LIG X 999      43.722 131.623  17.660  1.00  0.00     0.181 C 
HETATM   13  N1  LIG X 999      44.203 131.305  18.831  1.00  0.00    -0.162 NA
HETATM   14  C2  LIG X 999      43.558 131.408  20.106  1.00  0.00     0.390 C 
HETATM   15  O2  LIG X 999      42.301 131.355  20.204  1.00  0.00    -0.236 OA
BRANCH  12  16
HETATM   16  O1  LIG X 999      42.490 132.269  17.524  1.00  0.00    -0.344 OA
HETATM   17  H1  LIG X 999      42.215 132.794  16.705  1.00  0.00     0.219 HD
ENDBRANCH  12  16
BRANCH  14  18
HETATM   18  O3  LIG X 999      44.350 131.477  21.256  1.00  0.00    -0.282 OA
BRANCH  18  19
HETATM   19  C3  LIG X 999      43.977 130.889  22.500  1.00  0.00     0.225 C 
HETATM   20 CL1  LIG X 999      44.526 131.920  23.852  1.00  0.00    -0.095 Cl
HETATM   21  C4  LIG X 999      44.614 129.512  22.619  1.00  0.00     0.057 C 
ENDBRANCH  18  19
ENDBRANCH  14  18
ENDBRANCH   1  12
TORSDOF 4
