MODEL 1
REMARK VINA RESULT:      -6.6      0.000      0.000
REMARK  4 active torsions:
REMARK  status: ('A' for Active; 'I' for Inactive)
REMARK    1  A    between atoms: C3_3  and  C4_4 
REMARK    2  A    between atoms: C4_4  and  C5_5 
REMARK    3  A    between atoms: C5_5  and  N1_6 
REMARK    4  A    between atoms: N4_15  and  C12_16 
ROOT
HETATM    1  C12 LIG X 999      44.156 131.331  18.584  1.00  0.00     0.059 A 
HETATM    2  C13 LIG X 999      43.415 132.007  17.602  1.00  0.00     0.032 A 
HETATM    3  C14 LIG X 999      43.845 132.024  16.273  1.00  0.00     0.014 A 
HETATM    4  C15 LIG X 999      45.032 131.374  15.908  1.00  0.00    -0.024 A 
HETATM    5  C16 LIG X 999      45.474 131.385  14.575  1.00  0.00     0.034 A 
HETATM    6  C17 LIG X 999      46.664 130.735  14.223  1.00  0.00     0.045 A 
HETATM    7  C18 LIG X 999      47.114 130.748  12.855  1.00  0.00     0.099 C 
HETATM    8  N5  LIG X 999      47.475 130.758  11.756  1.00  0.00    -0.191 NA
HETATM    9  C19 LIG X 999      47.417 130.073  15.200  1.00  0.00     0.023 A 
HETATM   10  C20 LIG X 999      46.985 130.057  16.530  1.00  0.00     0.014 A 
HETATM   11  C21 LIG X 999      45.795 130.703  16.894  1.00  0.00    -0.024 A 
HETATM   12  C22 LIG X 999      45.354 130.693  18.225  1.00  0.00     0.043 A 
ENDROOT
BRANCH   1  13
HETATM   13  N4  LIG X 999      43.725 131.325  19.955  1.00  0.00    -0.243 N 
HETATM   14  C2  LIG X 999      44.308 130.729  21.018  1.00  0.00     0.058 A 
HETATM   15  C1  LIG X 999      45.571 129.917  21.000  1.00  0.00     0.072 C 
HETATM   16  C3  LIG X 999      43.501 130.996  22.111  1.00  0.00     0.082 A 
HETATM   17  N2  LIG X 999      42.460 131.746  21.694  1.00  0.00    -0.161 NA
HETATM   18  N3  LIG X 999      42.634 131.935  20.395  1.00  0.00    -0.212 N 
HETATM   19  H20 LIG X 999      41.972 132.475  19.794  1.00  0.00     0.211 HD
BRANCH  16  20
HETATM   20  C4  LIG X 999      43.667 130.501  23.517  1.00  0.00     0.093 C 
BRANCH  20  21
HETATM   21  C5  LIG X 999      42.530 129.545  23.892  1.00  0.00     0.279 C 
BRANCH  21  22
HETATM   22  N1  LIG X 999      43.074 128.272  24.406  1.00  0.00     0.093 N 
HETATM   23  C6  LIG X 999      44.546 128.203  24.300  1.00  0.00     0.273 C 
HETATM   24  C7  LIG X 999      44.911 126.977  23.478  1.00  0.00     0.036 C 
HETATM   25  C8  LIG X 999      43.676 126.101  23.543  1.00  0.00     0.016 C 
HETATM   26  C9  LIG X 999      43.542 125.191  22.316  1.00  0.00     0.012 C 
HETATM   27  C10 LIG X 999      42.533 127.110  23.675  1.00  0.00     0.222 C 
HETATM   28  C11 LIG X 999      41.344 126.521  24.441  1.00  0.00     0.043 C 
ENDBRANCH  21  22
ENDBRANCH  20  21
ENDBRANCH  16  20
ENDBRANCH   1  13
TORSDOF 4
ENDMDL
MODEL 2
REMARK VINA RESULT:      -6.3      1.045      2.106
REMARK  4 active torsions:
REMARK  status: ('A' for Active; 'I' for Inactive)
REMARK    1  A    between atoms: C3_3  and  C4_4 
REMARK    2  A    between atoms: C4_4  and  C5_5 
REMARK    3  A    between atoms: C5_5  and  N1_6 
REMARK    4  A    between atoms: N4_15  and  C12_16 
ROOT
HETATM    1  C12 LIG X 999      44.367 131.331  19.248  1.00  0.00     0.059 A 
HETATM    2  C13 LIG X 999      45.655 130.779  19.319  1.00  0.00     0.032 A 
HETATM    3  C14 LIG X 999      46.406 130.574  18.159  1.00  0.00     0.014 A 
HETATM    4  C15 LIG X 999      45.873 130.907  16.906  1.00  0.00    -0.024 A 
HETATM    5  C16 LIG X 999      46.618 130.704  15.734  1.00  0.00     0.034 A 
HETATM    6  C17 LIG X 999      46.073 131.037  14.487  1.00  0.00     0.045 A 
HETATM    7  C18 LIG X 999      46.841 130.829  13.287  1.00  0.00     0.099 C 
HETATM    8  N5  LIG X 999      47.458 130.661  12.322  1.00  0.00    -0.191 NA
HETATM    9  C19 LIG X 999      44.782 131.573  14.407  1.00  0.00     0.023 A 
HETATM   10  C20 LIG X 999      44.032 131.778  15.569  1.00  0.00     0.014 A 
HETATM   11  C21 LIG X 999      44.568 131.449  16.823  1.00  0.00    -0.024 A 
HETATM   12  C22 LIG X 999      43.823 131.651  17.993  1.00  0.00     0.043 A 
ENDROOT
BRANCH   1  13
HETATM   13  N4  LIG X 999      43.585 131.529  20.438  1.00  0.00    -0.243 N 
HETATM   14  C2  LIG X 999      44.007 131.602  21.719  1.00  0.00     0.058 A 
HETATM   15  C1  LIG X 999      45.426 131.488  22.195  1.00  0.00     0.072 C 
HETATM   16  C3  LIG X 999      42.874 131.778  22.497  1.00  0.00     0.082 A 
HETATM   17  N2  LIG X 999      41.802 131.814  21.680  1.00  0.00    -0.161 NA
HETATM   18  N3  LIG X 999      42.268 131.675  20.448  1.00  0.00    -0.212 N 
HETATM   19  H20 LIG X 999      41.661 131.653  19.598  1.00  0.00     0.211 HD
BRANCH  16  20
HETATM   20  C4  LIG X 999      42.791 131.846  23.993  1.00  0.00     0.093 C 
BRANCH  20  21
HETATM   21  C5  LIG X 999      43.124 130.486  24.615  1.00  0.00     0.279 C 
BRANCH  21  22
HETATM   22  N1  LIG X 999      42.753 129.393  23.694  1.00  0.00     0.093 N 
HETATM   23  C6  LIG X 999      41.381 128.899  23.926  1.00  0.00     0.273 C 
HETATM   24  C7  LIG X 999      41.449 127.408  24.217  1.00  0.00     0.036 C 
HETATM   25  C8  LIG X 999      42.794 126.981  23.665  1.00  0.00     0.016 C 
HETATM   26  C9  LIG X 999      43.361 125.758  24.396  1.00  0.00     0.012 C 
HETATM   27  C10 LIG X 999      43.657 128.234  23.826  1.00  0.00     0.222 C 
HETATM   28  C11 LIG X 999      44.755 128.307  22.761  1.00  0.00     0.043 C 
ENDBRANCH  21  22
ENDBRANCH  20  21
ENDBRANCH  16  20
ENDBRANCH   1  13
TORSDOF 4
ENDMDL
MODEL 3
REMARK VINA RESULT:      -6.1      1.066      1.853
REMARK  4 active torsions:
REMARK  status: ('A' for Active; 'I' for Inactive)
REMARK    1  A    between atoms: C3_3  and  C4_4 
REMARK    2  A    between atoms: C4_4  and  C5_5 
REMARK    3  A    between atoms: C5_5  and  N1_6 
REMARK    4  A    between atoms: N4_15  and  C12_16 
ROOT
HETATM    1  C12 LIG X 999      44.637 131.274  18.601  1.00  0.00     0.059 A 
HETATM    2  C13 LIG X 999      45.698 130.381  18.820  1.00  0.00     0.032 A 
HETATM    3  C14 LIG X 999      46.512 129.972  17.761  1.00  0.00     0.014 A 
HETATM    4  C15 LIG X 999      46.270 130.443  16.462  1.00  0.00    -0.024 A 
HETATM    5  C16 LIG X 999      47.082 130.038  15.392  1.00  0.00     0.034 A 
HETATM    6  C17 LIG X 999      46.827 130.511  14.097  1.00  0.00     0.045 A 
HETATM    7  C18 LIG X 999      47.663 130.095  13.001  1.00  0.00     0.099 C 
HETATM    8  N5  LIG X 999      48.335 129.761  12.120  1.00  0.00    -0.191 NA
HETATM    9  C19 LIG X 999      45.761 131.389  13.870  1.00  0.00     0.023 A 
HETATM   10  C20 LIG X 999      44.946 131.797  14.930  1.00  0.00     0.014 A 
HETATM   11  C21 LIG X 999      45.192 131.330  16.230  1.00  0.00    -0.024 A 
HETATM   12  C22 LIG X 999      44.380 131.733  17.300  1.00  0.00     0.043 A 
ENDROOT
BRANCH   1  13
HETATM   13  N4  LIG X 999      43.786 131.683  19.685  1.00  0.00    -0.243 N 
HETATM   14  C2  LIG X 999      43.945 131.464  21.008  1.00  0.00     0.058 A 
HETATM   15  C1  LIG X 999      45.077 130.721  21.657  1.00  0.00     0.072 C 
HETATM   16  C3  LIG X 999      42.851 132.037  21.637  1.00  0.00     0.082 A 
HETATM   17  N2  LIG X 999      42.064 132.591  20.692  1.00  0.00    -0.161 NA
HETATM   18  N3  LIG X 999      42.663 132.371  19.532  1.00  0.00    -0.212 N 
HETATM   19  H20 LIG X 999      42.276 132.678  18.612  1.00  0.00     0.211 HD
BRANCH  16  20
HETATM   20  C4  LIG X 999      42.515 132.009  23.098  1.00  0.00     0.093 C 
BRANCH  20  21
HETATM   21  C5  LIG X 999      41.548 130.862  23.408  1.00  0.00     0.279 C 
BRANCH  21  22
HETATM   22  N1  LIG X 999      42.141 129.940  24.398  1.00  0.00     0.093 N 
HETATM   23  C6  LIG X 999      43.577 130.203  24.625  1.00  0.00     0.273 C 
HETATM   24  C7  LIG X 999      44.351 128.929  24.325  1.00  0.00     0.036 C 
HETATM   25  C8  LIG X 999      43.311 127.831  24.407  1.00  0.00     0.016 C 
HETATM   26  C9  LIG X 999      43.668 126.624  23.529  1.00  0.00     0.012 C 
HETATM   27  C10 LIG X 999      42.021 128.531  23.976  1.00  0.00     0.222 C 
HETATM   28  C11 LIG X 999      40.787 127.897  24.625  1.00  0.00     0.043 C 
ENDBRANCH  21  22
ENDBRANCH  20  21
ENDBRANCH  16  20
ENDBRANCH   1  13
TORSDOF 4
ENDMDL
