MODEL 1
REMARK VINA RESULT:      -7.2      0.000      0.000
REMARK  4 active torsions:
REMARK  status: ('A' for Active; 'I' for Inactive)
REMARK    1  A    between atoms: C2_2  and  N1_3 
REMARK    2  A    between atoms: C3_6  and  O1_7 
REMARK    3  A    between atoms: O1_7  and  C4_8 
REMARK    4  A    between atoms: C4_8  and  C5_9 
ROOT
HETATM    1  N1  LIG X 999      44.898 131.659  15.236  1.00  0.00    -0.070 NA
HETATM    2  N2  LIG X 999      43.829 131.701  14.623  1.00  0.00    -0.162 NA
HETATM    3  N3  LIG X 999      42.765 131.745  14.009  1.00  0.00     0.068 N 
ENDROOT
BRANCH   1   4
HETATM    4  C2  LIG X 999      44.970 131.352  16.638  1.00  0.00     0.127 A 
HETATM    5  C1  LIG X 999      44.009 131.842  17.542  1.00  0.00     0.049 A 
HETATM    6  C14 LIG X 999      44.094 131.531  18.905  1.00  0.00    -0.023 A 
HETATM    7  C9  LIG X 999      45.160 130.718  19.376  1.00  0.00    -0.022 A 
HETATM    8  C13 LIG X 999      43.134 132.020  19.813  1.00  0.00     0.021 A 
HETATM    9  C8  LIG X 999      46.115 130.235  18.470  1.00  0.00     0.051 A 
HETATM   10  C10 LIG X 999      45.251 130.405  20.746  1.00  0.00     0.021 A 
HETATM   11  C3  LIG X 999      46.023 130.546  17.099  1.00  0.00     0.102 A 
HETATM   12  C11 LIG X 999      44.276 130.903  21.612  1.00  0.00    -0.024 A 
HETATM   13  C12 LIG X 999      43.254 131.682  21.161  1.00  0.00    -0.024 A 
HETATM   14  C18 LIG X 999      44.184 130.722  23.076  1.00  0.00     0.276 C 
HETATM   15  C15 LIG X 999      42.384 132.097  22.282  1.00  0.00     0.276 C 
HETATM   16  N4  LIG X 999      42.885 131.349  23.479  1.00  0.00    -0.067 N 
HETATM   17  C16 LIG X 999      43.082 132.267  24.625  1.00  0.00     0.272 C 
HETATM   18  C17 LIG X 999      41.914 130.298  23.867  1.00  0.00     0.272 C 
BRANCH  11  19
HETATM   19  O1  LIG X 999      46.961 130.075  16.161  1.00  0.00    -0.337 OA
BRANCH  19  20
HETATM   20  C4  LIG X 999      46.653 129.347  14.973  1.00  0.00     0.269 C 
BRANCH  20  21
HETATM   21  C5  LIG X 999      47.155 130.058  13.792  1.00  0.00    -0.080 C 
HETATM   22  C6  LIG X 999      47.567 130.647  12.824  1.00  0.00    -0.109 C 
HETATM   23  C7  LIG X 999      48.064 131.366  11.652  1.00  0.00     0.112 C 
ENDBRANCH  20  21
ENDBRANCH  19  20
ENDBRANCH  11  19
ENDBRANCH   1   4
TORSDOF 4
ENDMDL
MODEL 2
REMARK VINA RESULT:      -6.2      4.421      6.893
REMARK  4 active torsions:
REMARK  status: ('A' for Active; 'I' for Inactive)
REMARK    1  A    between atoms: C2_2  and  N1_3 
REMARK    2  A    between atoms: C3_6  and  O1_7 
REMARK    3  A    between atoms: O1_7  and  C4_8 
REMARK    4  A    between atoms: C4_8  and  C5_9 
ROOT
HETATM    1  N1  LIG X 999      42.992 131.529  23.063  1.00  0.00    -0.070 NA
HETATM    2  N2  LIG X 999      43.432 132.374  23.845  1.00  0.00    -0.162 NA
HETATM    3  N3  LIG X 999      43.868 133.219  24.625  1.00  0.00     0.068 N 
ENDROOT
BRANCH   1   4
HETATM    4  C2  LIG X 999      43.658 130.278  22.827  1.00  0.00     0.127 A 
HETATM    5  C1  LIG X 999      43.291 129.112  23.525  1.00  0.00     0.049 A 
HETATM    6  C14 LIG X 999      43.950 127.901  23.281  1.00  0.00    -0.023 A 
HETATM    7  C9  LIG X 999      44.999 127.852  22.323  1.00  0.00    -0.022 A 
HETATM    8  C13 LIG X 999      43.585 126.733  23.979  1.00  0.00     0.021 A 
HETATM    9  C8  LIG X 999      45.362 129.017  21.633  1.00  0.00     0.051 A 
HETATM   10  C10 LIG X 999      45.667 126.637  22.077  1.00  0.00     0.021 A 
HETATM   11  C3  LIG X 999      44.693 130.233  21.878  1.00  0.00     0.102 A 
HETATM   12  C11 LIG X 999      45.270 125.500  22.783  1.00  0.00    -0.024 A 
HETATM   13  C12 LIG X 999      44.265 125.547  23.700  1.00  0.00    -0.024 A 
HETATM   14  C18 LIG X 999      45.837 124.138  22.702  1.00  0.00     0.276 C 
HETATM   15  C15 LIG X 999      44.066 124.219  24.321  1.00  0.00     0.276 C 
HETATM   16  N4  LIG X 999      44.960 123.284  23.566  1.00  0.00    -0.067 N 
HETATM   17  C16 LIG X 999      45.776 122.473  24.499  1.00  0.00     0.272 C 
HETATM   18  C17 LIG X 999      44.148 122.375  22.722  1.00  0.00     0.272 C 
BRANCH  11  19
HETATM   19  O1  LIG X 999      45.027 131.420  21.201  1.00  0.00    -0.337 OA
BRANCH  19  20
HETATM   20  C4  LIG X 999      44.389 131.912  20.024  1.00  0.00     0.269 C 
BRANCH  20  21
HETATM   21  C5  LIG X 999      44.979 131.302  18.828  1.00  0.00    -0.080 C 
HETATM   22  C6  LIG X 999      45.469 130.801  17.847  1.00  0.00    -0.109 C 
HETATM   23  C7  LIG X 999      46.069 130.195  16.659  1.00  0.00     0.112 C 
ENDBRANCH  20  21
ENDBRANCH  19  20
ENDBRANCH  11  19
ENDBRANCH   1   4
TORSDOF 4
ENDMDL
MODEL 3
REMARK VINA RESULT:      -6.1      2.223      7.916
REMARK  4 active torsions:
REMARK  status: ('A' for Active; 'I' for Inactive)
REMARK    1  A    between atoms: C2_2  and  N1_3 
REMARK    2  A    between atoms: C3_6  and  O1_7 
REMARK    3  A    between atoms: O1_7  and  C4_8 
REMARK    4  A    between atoms: C4_8  and  C5_9 
ROOT
HETATM    1  N1  LIG X 999      42.402 131.807  22.547  1.00  0.00    -0.070 NA
HETATM    2  N2  LIG X 999      42.779 132.352  23.587  1.00  0.00    -0.162 NA
HETATM    3  N3  LIG X 999      43.152 132.896  24.625  1.00  0.00     0.068 N 
ENDROOT
BRANCH   1   4
HETATM    4  C2  LIG X 999      43.316 131.400  21.516  1.00  0.00     0.127 A 
HETATM    5  C1  LIG X 999      43.129 131.793  20.178  1.00  0.00     0.049 A 
HETATM    6  C14 LIG X 999      44.031 131.388  19.186  1.00  0.00    -0.023 A 
HETATM    7  C9  LIG X 999      45.142 130.573  19.537  1.00  0.00    -0.022 A 
HETATM    8  C13 LIG X 999      43.845 131.779  17.845  1.00  0.00     0.021 A 
HETATM    9  C8  LIG X 999      45.322 130.184  20.871  1.00  0.00     0.051 A 
HETATM   10  C10 LIG X 999      46.050 130.162  18.542  1.00  0.00     0.021 A 
HETATM   11  C3  LIG X 999      44.414 130.597  21.867  1.00  0.00     0.102 A 
HETATM   12  C11 LIG X 999      45.836 130.576  17.227  1.00  0.00    -0.024 A 
HETATM   13  C12 LIG X 999      44.772 131.357  16.891  1.00  0.00    -0.024 A 
HETATM   14  C18 LIG X 999      46.639 130.251  16.030  1.00  0.00     0.276 C 
HETATM   15  C15 LIG X 999      44.763 131.626  15.437  1.00  0.00     0.276 C 
HETATM   16  N4  LIG X 999      46.046 131.056  14.915  1.00  0.00    -0.067 N 
HETATM   17  C16 LIG X 999      45.794 130.202  13.731  1.00  0.00     0.272 C 
HETATM   18  C17 LIG X 999      46.970 132.149  14.531  1.00  0.00     0.272 C 
BRANCH  11  19
HETATM   19  O1  LIG X 999      44.566 130.229  23.216  1.00  0.00    -0.337 OA
BRANCH  19  20
HETATM   20  C4  LIG X 999      44.464 128.903  23.731  1.00  0.00     0.269 C 
BRANCH  20  21
HETATM   21  C5  LIG X 999      43.066 128.458  23.727  1.00  0.00    -0.080 C 
HETATM   22  C6  LIG X 999      41.918 128.089  23.719  1.00  0.00    -0.109 C 
HETATM   23  C7  LIG X 999      40.527 127.638  23.705  1.00  0.00     0.112 C 
ENDBRANCH  20  21
ENDBRANCH  19  20
ENDBRANCH  11  19
ENDBRANCH   1   4
TORSDOF 4
ENDMDL
MODEL 4
REMARK VINA RESULT:      -6.1      2.359      7.588
REMARK  4 active torsions:
REMARK  status: ('A' for Active; 'I' for Inactive)
REMARK    1  A    between atoms: C2_2  and  N1_3 
REMARK    2  A    between atoms: C3_6  and  O1_7 
REMARK    3  A    between atoms: O1_7  and  C4_8 
REMARK    4  A    between atoms: C4_8  and  C5_9 
ROOT
HETATM    1  N1  LIG X 999      42.409 131.758  22.559  1.00  0.00    -0.070 NA
HETATM    2  N2  LIG X 999      42.781 132.317  23.593  1.00  0.00    -0.162 NA
HETATM    3  N3  LIG X 999      43.150 132.875  24.625  1.00  0.00     0.068 N 
ENDROOT
BRANCH   1   4
HETATM    4  C2  LIG X 999      43.324 131.371  21.521  1.00  0.00     0.127 A 
HETATM    5  C1  LIG X 999      43.119 131.762  20.185  1.00  0.00     0.049 A 
HETATM    6  C14 LIG X 999      44.022 131.377  19.186  1.00  0.00    -0.023 A 
HETATM    7  C9  LIG X 999      45.151 130.584  19.527  1.00  0.00    -0.022 A 
HETATM    8  C13 LIG X 999      43.819 131.768  17.848  1.00  0.00     0.021 A 
HETATM    9  C8  LIG X 999      45.348 130.195  20.859  1.00  0.00     0.051 A 
HETATM   10  C10 LIG X 999      46.060 130.192  18.525  1.00  0.00     0.021 A 
HETATM   11  C3  LIG X 999      44.439 130.588  21.862  1.00  0.00     0.102 A 
HETATM   12  C11 LIG X 999      45.828 130.605  17.212  1.00  0.00    -0.024 A 
HETATM   13  C12 LIG X 999      44.746 131.366  16.886  1.00  0.00    -0.024 A 
HETATM   14  C18 LIG X 999      46.629 130.298  16.009  1.00  0.00     0.276 C 
HETATM   15  C15 LIG X 999      44.722 131.638  15.432  1.00  0.00     0.276 C 
HETATM   16  N4  LIG X 999      46.012 131.094  14.900  1.00  0.00    -0.067 N 
HETATM   17  C16 LIG X 999      45.769 130.238  13.715  1.00  0.00     0.272 C 
HETATM   18  C17 LIG X 999      46.912 132.206  14.512  1.00  0.00     0.272 C 
BRANCH  11  19
HETATM   19  O1  LIG X 999      44.608 130.221  23.210  1.00  0.00    -0.337 OA
BRANCH  19  20
HETATM   20  C4  LIG X 999      44.104 129.031  23.814  1.00  0.00     0.269 C 
BRANCH  20  21
HETATM   21  C5  LIG X 999      44.821 127.856  23.308  1.00  0.00    -0.080 C 
HETATM   22  C6  LIG X 999      45.414 126.893  22.890  1.00  0.00    -0.109 C 
HETATM   23  C7  LIG X 999      46.136 125.729  22.378  1.00  0.00     0.112 C 
ENDBRANCH  20  21
ENDBRANCH  19  20
ENDBRANCH  11  19
ENDBRANCH   1   4
TORSDOF 4
ENDMDL
MODEL 5
REMARK VINA RESULT:      -6.0      2.559      8.084
REMARK  4 active torsions:
REMARK  status: ('A' for Active; 'I' for Inactive)
REMARK    1  A    between atoms: C2_2  and  N1_3 
REMARK    2  A    between atoms: C3_6  and  O1_7 
REMARK    3  A    between atoms: O1_7  and  C4_8 
REMARK    4  A    between atoms: C4_8  and  C5_9 
ROOT
HETATM    1  N1  LIG X 999      44.459 129.607  23.720  1.00  0.00    -0.070 NA
HETATM    2  N2  LIG X 999      44.629 128.398  23.892  1.00  0.00    -0.162 NA
HETATM    3  N3  LIG X 999      44.798 127.193  24.067  1.00  0.00     0.068 N 
ENDROOT
BRANCH   1   4
HETATM    4  C2  LIG X 999      44.363 130.192  22.411  1.00  0.00     0.127 A 
HETATM    5  C1  LIG X 999      45.163 129.736  21.347  1.00  0.00     0.049 A 
HETATM    6  C14 LIG X 999      45.054 130.317  20.077  1.00  0.00    -0.023 A 
HETATM    7  C9  LIG X 999      44.130 131.377  19.866  1.00  0.00    -0.022 A 
HETATM    8  C13 LIG X 999      45.854 129.863  19.010  1.00  0.00     0.021 A 
HETATM    9  C8  LIG X 999      43.337 131.828  20.930  1.00  0.00     0.051 A 
HETATM   10  C10 LIG X 999      44.019 131.966  18.591  1.00  0.00     0.021 A 
HETATM   11  C3  LIG X 999      43.447 131.237  22.206  1.00  0.00     0.102 A 
HETATM   12  C11 LIG X 999      44.824 131.482  17.559  1.00  0.00    -0.024 A 
HETATM   13  C12 LIG X 999      45.709 130.467  17.761  1.00  0.00    -0.024 A 
HETATM   14  C18 LIG X 999      44.891 131.959  16.161  1.00  0.00     0.276 C 
HETATM   15  C15 LIG X 999      46.452 130.170  16.518  1.00  0.00     0.276 C 
HETATM   16  N4  LIG X 999      45.813 131.013  15.456  1.00  0.00    -0.067 N 
HETATM   17  C16 LIG X 999      46.840 131.757  14.691  1.00  0.00     0.272 C 
HETATM   18  C17 LIG X 999      45.044 130.156  14.522  1.00  0.00     0.272 C 
BRANCH  11  19
HETATM   19  O1  LIG X 999      42.665 131.661  23.296  1.00  0.00    -0.337 OA
BRANCH  19  20
HETATM   20  C4  LIG X 999      43.138 131.870  24.625  1.00  0.00     0.269 C 
BRANCH  20  21
HETATM   21  C5  LIG X 999      44.305 132.758  24.619  1.00  0.00    -0.080 C 
HETATM   22  C6  LIG X 999      45.266 133.487  24.619  1.00  0.00    -0.109 C 
HETATM   23  C7  LIG X 999      46.431 134.371  24.625  1.00  0.00     0.112 C 
ENDBRANCH  20  21
ENDBRANCH  19  20
ENDBRANCH  11  19
ENDBRANCH   1   4
TORSDOF 4
ENDMDL
MODEL 6
REMARK VINA RESULT:      -5.5      6.293      8.916
REMARK  4 active torsions:
REMARK  status: ('A' for Active; 'I' for Inactive)
REMARK    1  A    between atoms: C2_2  and  N1_3 
REMARK    2  A    between atoms: C3_6  and  O1_7 
REMARK    3  A    between atoms: O1_7  and  C4_8 
REMARK    4  A    between atoms: C4_8  and  C5_9 
ROOT
HETATM    1  N1  LIG X 999      45.627 123.339  22.360  1.00  0.00    -0.070 NA
HETATM    2  N2  LIG X 999      46.687 123.436  21.739  1.00  0.00    -0.162 NA
HETATM    3  N3  LIG X 999      47.745 123.530  21.120  1.00  0.00     0.068 N 
ENDROOT
BRANCH   1   4
HETATM    4  C2  LIG X 999      44.851 124.486  22.743  1.00  0.00     0.127 A 
HETATM    5  C1  LIG X 999      45.312 125.793  22.499  1.00  0.00     0.049 A 
HETATM    6  C14 LIG X 999      44.542 126.900  22.878  1.00  0.00    -0.023 A 
HETATM    7  C9  LIG X 999      43.287 126.698  23.515  1.00  0.00    -0.022 A 
HETATM    8  C13 LIG X 999      45.001 128.210  22.636  1.00  0.00     0.021 A 
HETATM    9  C8  LIG X 999      42.834 125.394  23.757  1.00  0.00     0.051 A 
HETATM   10  C10 LIG X 999      42.510 127.808  23.900  1.00  0.00     0.021 A 
HETATM   11  C3  LIG X 999      43.611 124.283  23.370  1.00  0.00     0.102 A 
HETATM   12  C11 LIG X 999      42.997 129.089  23.635  1.00  0.00    -0.024 A 
HETATM   13  C12 LIG X 999      44.199 129.283  23.025  1.00  0.00    -0.024 A 
HETATM   14  C18 LIG X 999      42.368 130.385  23.966  1.00  0.00     0.276 C 
HETATM   15  C15 LIG X 999      44.487 130.727  22.891  1.00  0.00     0.276 C 
HETATM   16  N4  LIG X 999      43.244 131.429  23.345  1.00  0.00    -0.067 N 
HETATM   17  C16 LIG X 999      43.571 132.489  24.327  1.00  0.00     0.272 C 
HETATM   18  C17 LIG X 999      42.555 132.044  22.185  1.00  0.00     0.272 C 
BRANCH  11  19
HETATM   19  O1  LIG X 999      43.186 122.960  23.593  1.00  0.00    -0.337 OA
BRANCH  19  20
HETATM   20  C4  LIG X 999      41.989 122.376  23.084  1.00  0.00     0.269 C 
BRANCH  20  21
HETATM   21  C5  LIG X 999      40.813 123.067  23.623  1.00  0.00    -0.080 C 
HETATM   22  C6  LIG X 999      39.849 123.638  24.070  1.00  0.00    -0.109 C 
HETATM   23  C7  LIG X 999      38.683 124.330  24.617  1.00  0.00     0.112 C 
ENDBRANCH  20  21
ENDBRANCH  19  20
ENDBRANCH  11  19
ENDBRANCH   1   4
TORSDOF 4
ENDMDL
MODEL 7
REMARK VINA RESULT:      -4.9      2.438      7.421
REMARK  4 active torsions:
REMARK  status: ('A' for Active; 'I' for Inactive)
REMARK    1  A    between atoms: C2_2  and  N1_3 
REMARK    2  A    between atoms: C3_6  and  O1_7 
REMARK    3  A    between atoms: O1_7  and  C4_8 
REMARK    4  A    between atoms: C4_8  and  C5_9 
ROOT
HETATM    1  N1  LIG X 999      42.467 132.118  22.128  1.00  0.00    -0.070 NA
HETATM    2  N2  LIG X 999      41.532 132.872  21.849  1.00  0.00    -0.162 NA
HETATM    3  N3  LIG X 999      40.600 133.624  21.573  1.00  0.00     0.068 N 
ENDROOT
BRANCH   1   4
HETATM    4  C2  LIG X 999      43.384 131.628  21.136  1.00  0.00     0.127 A 
HETATM    5  C1  LIG X 999      43.274 132.014  19.787  1.00  0.00     0.049 A 
HETATM    6  C14 LIG X 999      44.178 131.528  18.834  1.00  0.00    -0.023 A 
HETATM    7  C9  LIG X 999      45.211 130.637  19.235  1.00  0.00    -0.022 A 
HETATM    8  C13 LIG X 999      44.071 131.912  17.483  1.00  0.00     0.021 A 
HETATM    9  C8  LIG X 999      45.313 130.255  20.579  1.00  0.00     0.051 A 
HETATM   10  C10 LIG X 999      46.120 130.143  18.279  1.00  0.00     0.021 A 
HETATM   11  C3  LIG X 999      44.404 130.750  21.536  1.00  0.00     0.102 A 
HETATM   12  C11 LIG X 999      45.985 130.554  16.952  1.00  0.00    -0.024 A 
HETATM   13  C12 LIG X 999      44.996 131.408  16.568  1.00  0.00    -0.024 A 
HETATM   14  C18 LIG X 999      46.804 130.152  15.789  1.00  0.00     0.276 C 
HETATM   15  C15 LIG X 999      45.060 131.656  15.112  1.00  0.00     0.276 C 
HETATM   16  N4  LIG X 999      46.313 130.982  14.644  1.00  0.00    -0.067 N 
HETATM   17  C16 LIG X 999      46.040 130.133  13.461  1.00  0.00     0.272 C 
HETATM   18  C17 LIG X 999      47.331 131.998  14.281  1.00  0.00     0.272 C 
BRANCH  11  19
HETATM   19  O1  LIG X 999      44.479 130.391  22.894  1.00  0.00    -0.337 OA
BRANCH  19  20
HETATM   20  C4  LIG X 999      43.959 129.192  23.466  1.00  0.00     0.269 C 
BRANCH  20  21
HETATM   21  C5  LIG X 999      44.845 128.060  23.175  1.00  0.00    -0.080 C 
HETATM   22  C6  LIG X 999      45.574 127.129  22.941  1.00  0.00    -0.109 C 
HETATM   23  C7  LIG X 999      46.460 125.999  22.661  1.00  0.00     0.112 C 
ENDBRANCH  20  21
ENDBRANCH  19  20
ENDBRANCH  11  19
ENDBRANCH   1   4
TORSDOF 4
ENDMDL
