REMARK VINA RESULT:      -7.8      2.629      3.243
REMARK  5 active torsions:
REMARK  status: ('A' for Active; 'I' for Inactive)
REMARK    1  A    between atoms: C1_1  and  N1_2 
REMARK    2  A    between atoms: C2_5  and  O1_6 
REMARK    3  A    between atoms: C2_5  and  C5_12 
REMARK    4  A    between atoms: O1_6  and  C3_7 
REMARK    5  A    between atoms: C3_7  and  C4_9 
ROOT
HETATM    1  N1  LIG X 999      42.918 131.662  19.967  1.00  0.00    -0.082 NA
HETATM    2  N2  LIG X 999      42.137 132.542  20.329  1.00  0.00    -0.163 NA
HETATM    3  N3  LIG X 999      41.357 133.421  20.690  1.00  0.00     0.068 N 
ENDROOT
BRANCH   1   4
HETATM    4  C1  LIG X 999      43.601 131.766  18.718  1.00  0.00     0.193 C 
HETATM    5  C2  LIG X 999      44.716 131.063  18.496  1.00  0.00     0.101 C 
BRANCH   5   6
HETATM    6  O1  LIG X 999      45.181 130.193  19.494  1.00  0.00    -0.324 OA
BRANCH   6   7
HETATM    7  C3  LIG X 999      45.647 130.597  20.788  1.00  0.00     0.273 C 
HETATM    8 CL1  LIG X 999      46.186 132.302  20.834  1.00  0.00    -0.090 Cl
BRANCH   7   9
HETATM    9  C4  LIG X 999      44.623 130.295  21.894  1.00  0.00     0.309 C 
HETATM   10  F1  LIG X 999      44.686 131.273  22.869  1.00  0.00    -0.229 F 
HETATM   11 CL2  LIG X 999      44.867 128.696  22.652  1.00  0.00    -0.086 Cl
ENDBRANCH   7   9
ENDBRANCH   6   7
ENDBRANCH   5   6
BRANCH   5  12
HETATM   12  C5  LIG X 999      45.408 131.149  17.190  1.00  0.00    -0.000 A 
HETATM   13  C6  LIG X 999      45.354 132.344  16.455  1.00  0.00     0.015 A 
HETATM   14  C7  LIG X 999      45.999 132.448  15.219  1.00  0.00     0.013 A 
HETATM   15  C8  LIG X 999      46.710 131.357  14.700  1.00  0.00    -0.026 A 
HETATM   16  C9  LIG X 999      47.358 131.450  13.459  1.00  0.00     0.012 A 
HETATM   17  C13 LIG X 999      46.774 130.148  15.436  1.00  0.00    -0.025 A 
HETATM   18  C10 LIG X 999      48.063 130.355  12.952  1.00  0.00     0.001 A 
HETATM   19  C11 LIG X 999      48.125 129.162  13.677  1.00  0.00     0.001 A 
HETATM   20  C12 LIG X 999      47.485 129.055  14.915  1.00  0.00     0.012 A 
HETATM   21  C14 LIG X 999      46.125 130.054  16.676  1.00  0.00     0.026 A 
ENDBRANCH   5  12
ENDBRANCH   1   4
TORSDOF 5
