REMARK VINA RESULT:      -3.7      3.291      5.935
REMARK  4 active torsions:
REMARK  status: ('A' for Active; 'I' for Inactive)
REMARK    1  A    between atoms: C3_3  and  O1_4 
REMARK    2  A    between atoms: O1_4  and  C4_5 
REMARK    3  A    between atoms: C9_12  and  N2_13 
REMARK    4  A    between atoms: C11_17  and  C12_18 
ROOT
HETATM    1  C1  LIG X 999      46.090 129.739  16.617  1.00  0.00     0.014 C 
HETATM    2  C2  LIG X 999      45.665 130.366  17.554  1.00  0.00    -0.091 C 
HETATM    3  C3  LIG X 999      45.148 131.125  18.693  1.00  0.00     0.268 C 
ENDROOT
BRANCH   3   4
HETATM    4  O1  LIG X 999      45.899 130.794  19.856  1.00  0.00    -0.339 OA
BRANCH   4   5
HETATM    5  C4  LIG X 999      45.450 129.949  20.885  1.00  0.00     0.085 A 
HETATM    6  C5  LIG X 999      46.004 128.643  21.063  1.00  0.00     0.052 A 
HETATM    7  C6  LIG X 999      45.547 127.819  22.106  1.00  0.00     0.008 A 
HETATM    8  C7  LIG X 999      44.563 128.325  22.921  1.00  0.00     0.018 A 
HETATM    9  C15 LIG X 999      45.995 126.430  22.397  1.00  0.00     0.059 A 
HETATM   10  C8  LIG X 999      43.963 127.646  23.930  1.00  0.00     0.046 A 
HETATM   11  C10 LIG X 999      43.992 129.552  22.786  1.00  0.00     0.042 A 
HETATM   12  N1  LIG X 999      42.986 128.402  24.469  1.00  0.00    -0.337 N 
HETATM   13  C13 LIG X 999      44.356 126.264  24.255  1.00  0.00     0.033 A 
HETATM   14  H5  LIG X 999      42.336 128.124  25.237  1.00  0.00     0.167 HD
HETATM   15  C9  LIG X 999      42.994 129.571  23.768  1.00  0.00     0.176 A 
HETATM   16  C14 LIG X 999      45.334 125.686  23.522  1.00  0.00     0.034 A 
HETATM   17  C11 LIG X 999      44.429 130.424  21.764  1.00  0.00     0.050 A 
HETATM   18  N5  LIG X 999      46.928 125.876  21.690  1.00  0.00    -0.300 NA
HETATM   19  H9  LIG X 999      47.254 124.901  21.876  1.00  0.00     0.187 HD
BRANCH  15  20
HETATM   20  N2  LIG X 999      42.040 130.616  23.968  1.00  0.00    -0.053 NA
HETATM   21  N3  LIG X 999      42.392 131.750  24.297  1.00  0.00    -0.160 NA
HETATM   22  N4  LIG X 999      42.742 132.882  24.625  1.00  0.00     0.068 N 
ENDBRANCH  15  20
BRANCH  17  23
HETATM   23  C12 LIG X 999      43.890 131.789  21.582  1.00  0.00     0.273 C 
HETATM   24  O2  LIG X 999      42.867 132.008  20.884  1.00  0.00    -0.301 OA
ENDBRANCH  17  23
ENDBRANCH   4   5
ENDBRANCH   3   4
TORSDOF 4
