REMARK VINA RESULT:      -8.6      0.000      0.000
REMARK  1 active torsions:
REMARK  status: ('A' for Active; 'I' for Inactive)
REMARK    1  A    between atoms: C12_13  and  N2_14 
ROOT
HETATM    1  C1  LIG X 999      44.935 129.606  15.262  1.00  0.00     0.272 C 
HETATM    2  N1  LIG X 999      45.322 130.876  15.922  1.00  0.00    -0.067 N 
HETATM    3  C2  LIG X 999      46.099 131.698  14.966  1.00  0.00     0.272 C 
HETATM    4  C3  LIG X 999      46.128 130.591  17.149  1.00  0.00     0.276 C 
HETATM    5  C4  LIG X 999      45.250 130.927  18.289  1.00  0.00    -0.021 A 
HETATM    6  C5  LIG X 999      45.508 130.719  19.639  1.00  0.00     0.022 A 
HETATM    7  C6  LIG X 999      44.552 131.130  20.584  1.00  0.00    -0.023 A 
HETATM    8  C7  LIG X 999      44.798 130.932  21.951  1.00  0.00     0.012 A 
HETATM    9  C8  LIG X 999      43.868 131.352  22.902  1.00  0.00     0.001 A 
HETATM   10  C9  LIG X 999      42.688 131.976  22.499  1.00  0.00     0.001 A 
HETATM   11  C10 LIG X 999      42.423 132.182  21.143  1.00  0.00     0.014 A 
HETATM   12  C11 LIG X 999      43.339 131.755  20.156  1.00  0.00     0.001 A 
HETATM   13  C12 LIG X 999      43.105 131.942  18.761  1.00  0.00     0.045 A 
HETATM   14  C13 LIG X 999      44.098 131.513  17.862  1.00  0.00     0.003 A 
HETATM   15  C14 LIG X 999      44.100 131.610  16.380  1.00  0.00     0.278 C 
ENDROOT
BRANCH  13  16
HETATM   16  N2  LIG X 999      41.901 132.538  18.250  1.00  0.00    -0.398 N 
HETATM   17  H14 LIG X 999      40.957 132.331  18.635  1.00  0.00     0.156 HD
HETATM   18  H15 LIG X 999      41.926 133.152  17.405  1.00  0.00     0.156 HD
ENDBRANCH  13  16
TORSDOF 1
