REMARK VINA RESULT:      -4.8      3.914      6.244
REMARK  4 active torsions:
REMARK  status: ('A' for Active; 'I' for Inactive)
REMARK    1  A    between atoms: C1_1  and  C2_6 
REMARK    2  A    between atoms: N1_2  and  N2_3 
REMARK    3  A    between atoms: C2_6  and  C3_8 
REMARK    4  A    between atoms: C11_16  and  N4_17 
ROOT
HETATM    1  N4  LIG X 999      46.120 132.960  20.952  1.00  0.00    -0.105 NA
HETATM    2  N5  LIG X 999      47.187 133.166  21.533  1.00  0.00    -0.167 NA
HETATM    3  N6  LIG X 999      48.251 133.372  22.114  1.00  0.00     0.068 N 
ENDROOT
BRANCH   1   4
HETATM    4  C11 LIG X 999      45.657 131.603  20.668  1.00  0.00     0.179 C 
HETATM    5  C10 LIG X 999      44.792 131.595  19.421  1.00  0.00    -0.024 A 
HETATM    6  C5  LIG X 999      43.377 131.605  19.497  1.00  0.00    -0.049 A 
HETATM    7  C9  LIG X 999      45.413 131.652  18.161  1.00  0.00     0.010 A 
HETATM    8  C4  LIG X 999      42.649 131.428  20.810  1.00  0.00     0.051 C 
HETATM    9  C6  LIG X 999      42.622 131.655  18.314  1.00  0.00     0.007 A 
HETATM   10  C3  LIG X 999      43.527 131.752  22.029  1.00  0.00     0.068 C 
HETATM   11  C12 LIG X 999      44.897 131.062  21.889  1.00  0.00     0.048 C 
HETATM   12  C7  LIG X 999      43.255 131.717  17.071  1.00  0.00     0.001 A 
HETATM   13  C8  LIG X 999      44.647 131.713  16.994  1.00  0.00     0.001 A 
BRANCH  10  14
HETATM   14  C2  LIG X 999      42.824 131.330  23.301  1.00  0.00     0.172 C 
HETATM   15  O1  LIG X 999      42.034 132.129  23.875  1.00  0.00    -0.291 OA
BRANCH  14  16
HETATM   16  C1  LIG X 999      43.086 130.027  23.934  1.00  0.00     0.190 C 
HETATM   17  N1  LIG X 999      42.422 128.970  23.588  1.00  0.00    -0.165 NA
BRANCH  17  18
HETATM   18  N2  LIG X 999      42.664 127.720  24.176  1.00  0.00    -0.177 N 
HETATM   19  H2  LIG X 999      42.387 127.528  25.166  1.00  0.00     0.214 HD
HETATM   20  N3  LIG X 999      43.229 126.806  23.501  1.00  0.00    -0.031 N 
ENDBRANCH  17  18
ENDBRANCH  14  16
ENDBRANCH  10  14
ENDBRANCH   1   4
TORSDOF 4
