REMARK VINA RESULT:      -7.0      0.000      0.000
REMARK  1 active torsions:
REMARK  status: ('A' for Active; 'I' for Inactive)
REMARK    1  A    between atoms: C1_2  and  C2_3 
ROOT
HETATM    1  C2  LIG X 999      43.342 131.896  19.480  1.00  0.00     0.013 A 
HETATM    2  C3  LIG X 999      43.892 131.640  20.751  1.00  0.00     0.015 A 
HETATM    3  C4  LIG X 999      45.122 131.001  20.890  1.00  0.00     0.002 A 
HETATM    4  C5  LIG X 999      45.834 130.600  19.766  1.00  0.00     0.012 A 
HETATM    5  C6  LIG X 999      45.324 130.833  18.484  1.00  0.00    -0.025 A 
HETATM    6  C7  LIG X 999      46.059 130.420  17.362  1.00  0.00     0.012 A 
HETATM    7  C8  LIG X 999      45.567 130.643  16.078  1.00  0.00     0.001 A 
HETATM    8  C9  LIG X 999      44.341 131.281  15.900  1.00  0.00     0.001 A 
HETATM    9  C10 LIG X 999      43.595 131.699  17.004  1.00  0.00     0.013 A 
HETATM   10  C11 LIG X 999      44.067 131.486  18.321  1.00  0.00    -0.013 A 
ENDROOT
BRANCH   1  11
HETATM   11  C1  LIG X 999      42.024 132.583  19.411  1.00  0.00     0.270 C 
HETATM   12  O1  LIG X 999      41.544 133.163  20.423  1.00  0.00    -0.301 OA
ENDBRANCH   1  11
TORSDOF 1
