REMARK VINA RESULT:      -7.8      1.491      2.647
REMARK  2 active torsions:
REMARK  status: ('A' for Active; 'I' for Inactive)
REMARK    1  A    between atoms: N1_1  and  C1_2 
REMARK    2  A    between atoms: C7_8  and  N2_9 
ROOT
HETATM    1  C1  LIG X 999      45.153 131.002  15.171  1.00  0.00     0.103 A 
HETATM    2  C2  LIG X 999      43.948 131.507  15.665  1.00  0.00     0.049 A 
HETATM    3  C3  LIG X 999      43.736 131.568  17.045  1.00  0.00     0.001 A 
HETATM    4  C4  LIG X 999      42.539 132.062  17.571  1.00  0.00     0.015 A 
HETATM    5  C5  LIG X 999      42.345 132.117  18.952  1.00  0.00     0.015 A 
HETATM    6  C6  LIG X 999      43.350 131.686  19.844  1.00  0.00     0.003 A 
HETATM    7  C7  LIG X 999      43.183 131.739  21.257  1.00  0.00     0.037 A 
HETATM    8  C8  LIG X 999      44.198 131.247  22.089  1.00  0.00     0.030 A 
HETATM    9  C9  LIG X 999      45.376 130.732  21.554  1.00  0.00     0.003 A 
HETATM   10  C10 LIG X 999      45.563 130.695  20.176  1.00  0.00     0.015 A 
HETATM   11  C11 LIG X 999      44.563 131.165  19.306  1.00  0.00     0.011 A 
HETATM   12  C12 LIG X 999      44.752 131.113  17.910  1.00  0.00     0.101 A 
HETATM   13  O1  LIG X 999      45.887 130.637  17.398  1.00  0.00    -0.272 OA
HETATM   14  C13 LIG X 999      46.122 130.565  16.090  1.00  0.00     0.314 A 
HETATM   15  O2  LIG X 999      47.222 130.103  15.687  1.00  0.00    -0.257 OA
ENDROOT
BRANCH   1  16
HETATM   16  N1  LIG X 999      45.382 130.934  13.759  1.00  0.00    -0.394 N 
HETATM   17  H1  LIG X 999      45.969 131.646  13.270  1.00  0.00     0.156 HD
HETATM   18  H2  LIG X 999      44.964 130.166  13.189  1.00  0.00     0.156 HD
ENDBRANCH   1  16
BRANCH   7  19
HETATM   19  N2  LIG X 999      42.011 132.293  21.879  1.00  0.00    -0.398 N 
HETATM   20  H6  LIG X 999      41.502 131.827  22.658  1.00  0.00     0.156 HD
HETATM   21  H7  LIG X 999      41.566 133.151  21.484  1.00  0.00     0.156 HD
ENDBRANCH   7  19
TORSDOF 2
