REMARK VINA RESULT:      -4.4      3.294      4.963
REMARK  4 active torsions:
REMARK  status: ('A' for Active; 'I' for Inactive)
REMARK    1  A    between atoms: O1_2  and  C1_3 
REMARK    2  A    between atoms: C1_3  and  O4_18 
REMARK       I    between atoms: N1_4  and  C2_5 
REMARK    3  A    between atoms: C2_5  and  C3_7 
REMARK    4  A    between atoms: O4_18  and  C13_19 
ROOT
HETATM    1  C3  LIG X 999      44.347 131.289  19.681  1.00  0.00     0.071 A 
HETATM    2  C4  LIG X 999      43.300 131.914  18.974  1.00  0.00     0.123 A 
HETATM    3  O3  LIG X 999      42.238 132.507  19.651  1.00  0.00    -0.191 OA
HETATM    4  C5  LIG X 999      43.305 131.930  17.576  1.00  0.00     0.053 A 
HETATM    5  C6  LIG X 999      44.339 131.308  16.864  1.00  0.00    -0.023 A 
HETATM    6  C7  LIG X 999      44.348 131.317  15.460  1.00  0.00     0.012 A 
HETATM    7  C8  LIG X 999      45.382 130.688  14.760  1.00  0.00     0.001 A 
HETATM    8  C9  LIG X 999      46.411 130.045  15.454  1.00  0.00     0.001 A 
HETATM    9  C10 LIG X 999      46.412 130.028  16.851  1.00  0.00     0.012 A 
HETATM   10  C11 LIG X 999      45.380 130.656  17.565  1.00  0.00    -0.025 A 
HETATM   11  C12 LIG X 999      45.372 130.646  18.969  1.00  0.00     0.032 A 
ENDROOT
BRANCH   1  12
HETATM   12  C2  LIG X 999      44.366 131.263  21.162  1.00  0.00     0.283 C 
HETATM   13  N1  LIG X 999      45.188 132.149  21.937  1.00  0.00    -0.162 NA
HETATM   14  C1  LIG X 999      46.379 132.561  21.610  1.00  0.00     0.289 C 
HETATM   15  O2  LIG X 999      43.607 130.461  21.770  1.00  0.00    -0.265 OA
BRANCH  14  16
HETATM   16  O1  LIG X 999      47.003 132.086  20.459  1.00  0.00    -0.325 OA
HETATM   17  H1  LIG X 999      47.203 132.708  19.686  1.00  0.00     0.221 HD
ENDBRANCH  14  16
BRANCH  14  18
HETATM   18  O4  LIG X 999      47.073 133.469  22.424  1.00  0.00    -0.294 OA
BRANCH  18  19
HETATM   19  C13 LIG X 999      48.321 134.091  22.098  1.00  0.00     0.224 C 
HETATM   20 CL1  LIG X 999      49.416 134.132  23.511  1.00  0.00    -0.095 Cl
HETATM   21  C14 LIG X 999      48.114 135.491  21.523  1.00  0.00     0.057 C 
ENDBRANCH  18  19
ENDBRANCH  14  18
ENDBRANCH   1  12
TORSDOF 4
