REMARK VINA RESULT:      -6.1      5.496      7.448
REMARK  2 active torsions:
REMARK  status: ('A' for Active; 'I' for Inactive)
REMARK    1  A    between atoms: C2_5  and  C3_6 
REMARK    2  A    between atoms: N3_17  and  C13_18 
ROOT
HETATM    1  H1  LIG X 999      44.002 131.957  24.032  1.00  0.00     0.190 HD
HETATM    2  N1  LIG X 999      43.449 131.247  24.559  1.00  0.00    -0.260 NA
HETATM    3  C1  LIG X 999      42.795 130.292  23.977  1.00  0.00     0.269 A 
HETATM    4  O1  LIG X 999      42.060 129.422  24.623  1.00  0.00    -0.255 OA
HETATM    5  C2  LIG X 999      41.523 128.666  23.688  1.00  0.00     0.203 A 
HETATM    6  N2  LIG X 999      41.929 129.048  22.455  1.00  0.00    -0.137 NA
HETATM    7  N3  LIG X 999      42.738 130.078  22.646  1.00  0.00    -0.189 N 
ENDROOT
BRANCH   5   8
HETATM    8  C3  LIG X 999      40.627 127.513  23.939  1.00  0.00     0.030 A 
HETATM    9  C4  LIG X 999      39.302 127.790  24.319  1.00  0.00     0.017 A 
HETATM   10  C5  LIG X 999      38.377 126.763  24.498  1.00  0.00     0.002 A 
HETATM   11  C6  LIG X 999      38.753 125.438  24.302  1.00  0.00     0.012 A 
HETATM   12  C7  LIG X 999      40.071 125.122  23.950  1.00  0.00    -0.025 A 
HETATM   13  C8  LIG X 999      40.444 123.779  23.781  1.00  0.00     0.012 A 
HETATM   14  C12 LIG X 999      41.032 126.158  23.779  1.00  0.00    -0.011 A 
HETATM   15  C9  LIG X 999      41.761 123.448  23.467  1.00  0.00     0.001 A 
HETATM   16  C10 LIG X 999      42.721 124.451  23.333  1.00  0.00     0.001 A 
HETATM   17  C11 LIG X 999      42.368 125.793  23.493  1.00  0.00     0.013 A 
ENDBRANCH   5   8
BRANCH   7  18
HETATM   18  C13 LIG X 999      43.418 130.765  21.583  1.00  0.00     0.107 A 
HETATM   19  C14 LIG X 999      42.793 131.819  20.898  1.00  0.00     0.054 A 
HETATM   20  C15 LIG X 999      43.488 132.493  19.891  1.00  0.00     0.122 A 
HETATM   21  N4  LIG X 999      44.764 132.137  19.587  1.00  0.00    -0.230 NA
HETATM   22  C16 LIG X 999      45.401 131.132  20.245  1.00  0.00     0.251 A 
HETATM   23  F1  LIG X 999      46.675 130.813  19.913  1.00  0.00    -0.181 F 
HETATM   24  C17 LIG X 999      44.743 130.433  21.261  1.00  0.00     0.203 A 
HETATM   25  F2  LIG X 999      45.381 129.427  21.912  1.00  0.00    -0.199 F 
ENDBRANCH   7  18
TORSDOF 2
