REMARK VINA RESULT:      -8.7      0.000      0.000
REMARK  2 active torsions:
REMARK  status: ('A' for Active; 'I' for Inactive)
REMARK    1  A    between atoms: C1_1  and  N1_2 
REMARK    2  A    between atoms: C2_5  and  C3_7 
ROOT
HETATM    1  N1  LIG X 999      46.906 131.379  13.987  1.00  0.00    -0.082 NA
HETATM    2  N2  LIG X 999      47.649 130.447  13.679  1.00  0.00    -0.163 NA
HETATM    3  N3  LIG X 999      48.391 129.516  13.370  1.00  0.00     0.068 N 
ENDROOT
BRANCH   1   4
HETATM    4  C1  LIG X 999      46.394 131.490  15.315  1.00  0.00     0.196 C 
HETATM    5  C2  LIG X 999      45.084 131.336  15.546  1.00  0.00     0.137 C 
HETATM    6  O1  LIG X 999      44.241 131.041  14.479  1.00  0.00    -0.190 OA
BRANCH   5   7
HETATM    7  C3  LIG X 999      44.501 131.447  16.910  1.00  0.00     0.003 A 
HETATM    8  C4  LIG X 999      43.150 131.806  17.050  1.00  0.00     0.015 A 
HETATM    9  C5  LIG X 999      42.570 131.929  18.315  1.00  0.00     0.013 A 
HETATM   10  C6  LIG X 999      43.336 131.702  19.467  1.00  0.00    -0.026 A 
HETATM   11  C7  LIG X 999      42.762 131.823  20.743  1.00  0.00     0.012 A 
HETATM   12  C11 LIG X 999      44.701 131.354  19.342  1.00  0.00    -0.025 A 
HETATM   13  C8  LIG X 999      43.538 131.602  21.884  1.00  0.00     0.001 A 
HETATM   14  C9  LIG X 999      44.887 131.261  21.761  1.00  0.00     0.001 A 
HETATM   15  C10 LIG X 999      45.470 131.137  20.497  1.00  0.00     0.012 A 
HETATM   16  C12 LIG X 999      45.276 131.232  18.067  1.00  0.00     0.026 A 
ENDBRANCH   5   7
ENDBRANCH   1   4
TORSDOF 2
