MODEL 1
REMARK VINA RESULT:      -7.5      0.000      0.000
REMARK  1 active torsions:
REMARK  status: ('A' for Active; 'I' for Inactive)
REMARK    1  A    between atoms: N1_2  and  C1_3 
ROOT
HETATM    1  C1  LIG X 999      43.225 131.759  22.811  1.00  0.00     0.120 C 
HETATM    2  C2  LIG X 999      44.349 130.992  22.503  1.00  0.00     0.057 C 
HETATM    3  C3  LIG X 999      44.677 130.716  21.168  1.00  0.00    -0.045 C 
HETATM    4  C4  LIG X 999      45.710 129.638  20.949  1.00  0.00     0.049 C 
HETATM    5  C5  LIG X 999      43.934 131.347  20.120  1.00  0.00     0.008 C 
HETATM    6  C6  LIG X 999      44.288 131.330  18.729  1.00  0.00    -0.013 C 
HETATM    7  C7  LIG X 999      45.593 131.045  18.260  1.00  0.00     0.013 C 
HETATM    8  C8  LIG X 999      45.871 130.986  16.893  1.00  0.00     0.001 C 
HETATM    9  C9  LIG X 999      44.875 131.258  15.960  1.00  0.00     0.001 C 
HETATM   10  C10 LIG X 999      43.610 131.647  16.390  1.00  0.00     0.012 C 
HETATM   11  C11 LIG X 999      43.319 131.725  17.763  1.00  0.00    -0.025 C 
HETATM   12  C12 LIG X 999      42.090 132.247  18.171  1.00  0.00     0.014 C 
HETATM   13  C13 LIG X 999      41.823 132.438  19.518  1.00  0.00     0.031 C 
HETATM   14  C14 LIG X 999      42.728 132.008  20.496  1.00  0.00     0.045 C 
HETATM   15  N2  LIG X 999      42.426 132.212  21.811  1.00  0.00    -0.341 N 
HETATM   16  H12 LIG X 999      41.555 132.734  22.067  1.00  0.00     0.167 HD
ENDROOT
BRANCH   1  17
HETATM   17  N1  LIG X 999      42.912 132.006  24.045  1.00  0.00    -0.284 NA
HETATM   18  H1  LIG X 999      43.544 132.528  24.693  1.00  0.00     0.188 HD
ENDBRANCH   1  17
TORSDOF 1
ENDMDL
MODEL 2
REMARK VINA RESULT:      -7.3      2.143      4.794
REMARK  1 active torsions:
REMARK  status: ('A' for Active; 'I' for Inactive)
REMARK    1  A    between atoms: N1_2  and  C1_3 
ROOT
HETATM    1  C1  LIG X 999      44.147 131.491  17.098  1.00  0.00     0.120 C 
HETATM    2  C2  LIG X 999      45.201 130.994  17.865  1.00  0.00     0.057 C 
HETATM    3  C3  LIG X 999      45.142 131.038  19.266  1.00  0.00    -0.045 C 
HETATM    4  C4  LIG X 999      46.438 130.771  19.992  1.00  0.00     0.049 C 
HETATM    5  C5  LIG X 999      43.932 131.462  19.902  1.00  0.00     0.008 C 
HETATM    6  C6  LIG X 999      43.655 131.354  21.306  1.00  0.00    -0.013 C 
HETATM    7  C7  LIG X 999      44.346 130.473  22.172  1.00  0.00     0.013 C 
HETATM    8  C8  LIG X 999      44.075 130.448  23.542  1.00  0.00     0.001 C 
HETATM    9  C9  LIG X 999      43.079 131.259  24.077  1.00  0.00     0.001 C 
HETATM   10  C10 LIG X 999      42.309 132.058  23.237  1.00  0.00     0.012 C 
HETATM   11  C11 LIG X 999      42.560 132.082  21.854  1.00  0.00    -0.025 C 
HETATM   12  C12 LIG X 999      41.691 132.783  21.017  1.00  0.00     0.014 C 
HETATM   13  C13 LIG X 999      41.852 132.732  19.640  1.00  0.00     0.031 C 
HETATM   14  C14 LIG X 999      42.949 132.075  19.071  1.00  0.00     0.045 C 
HETATM   15  N2  LIG X 999      43.073 132.049  17.712  1.00  0.00    -0.341 N 
HETATM   16  H12 LIG X 999      42.321 132.470  17.117  1.00  0.00     0.167 HD
ENDROOT
BRANCH   1  17
HETATM   17  N1  LIG X 999      44.203 131.462  15.803  1.00  0.00    -0.284 NA
HETATM   18  H1  LIG X 999      43.349 131.499  15.200  1.00  0.00     0.188 HD
ENDBRANCH   1  17
TORSDOF 1
ENDMDL
MODEL 3
REMARK VINA RESULT:      -7.0      0.975      2.771
REMARK  1 active torsions:
REMARK  status: ('A' for Active; 'I' for Inactive)
REMARK    1  A    between atoms: N1_2  and  C1_3 
ROOT
HETATM    1  C1  LIG X 999      43.234 131.308  23.262  1.00  0.00     0.120 C 
HETATM    2  C2  LIG X 999      42.319 132.018  22.484  1.00  0.00     0.057 C 
HETATM    3  C3  LIG X 999      42.558 132.226  21.118  1.00  0.00    -0.045 C 
HETATM    4  C4  LIG X 999      41.685 133.254  20.441  1.00  0.00     0.049 C 
HETATM    5  C5  LIG X 999      43.675 131.582  20.497  1.00  0.00     0.008 C 
HETATM    6  C6  LIG X 999      43.918 131.528  19.084  1.00  0.00    -0.013 C 
HETATM    7  C7  LIG X 999      42.913 131.744  18.111  1.00  0.00     0.013 C 
HETATM    8  C8  LIG X 999      43.215 131.736  16.748  1.00  0.00     0.001 C 
HETATM    9  C9  LIG X 999      44.509 131.463  16.315  1.00  0.00     0.001 C 
HETATM   10  C10 LIG X 999      45.496 131.141  17.242  1.00  0.00     0.012 C 
HETATM   11  C11 LIG X 999      45.204 131.131  18.616  1.00  0.00    -0.025 C 
HETATM   12  C12 LIG X 999      46.169 130.673  19.515  1.00  0.00     0.014 C 
HETATM   13  C13 LIG X 999      45.868 130.549  20.863  1.00  0.00     0.031 C 
HETATM   14  C14 LIG X 999      44.636 130.983  21.365  1.00  0.00     0.045 C 
HETATM   15  N2  LIG X 999      44.379 130.845  22.698  1.00  0.00    -0.341 N 
HETATM   16  H12 LIG X 999      45.081 130.368  23.313  1.00  0.00     0.167 HD
ENDROOT
BRANCH   1  17
HETATM   17  N1  LIG X 999      43.022 131.124  24.528  1.00  0.00    -0.284 NA
HETATM   18  H1  LIG X 999      43.619 130.498  25.115  1.00  0.00     0.188 HD
ENDBRANCH   1  17
TORSDOF 1
ENDMDL
MODEL 4
REMARK VINA RESULT:      -6.3      2.349      5.454
REMARK  1 active torsions:
REMARK  status: ('A' for Active; 'I' for Inactive)
REMARK    1  A    between atoms: N1_2  and  C1_3 
ROOT
HETATM    1  C1  LIG X 999      44.973 131.543  16.588  1.00  0.00     0.120 C 
HETATM    2  C2  LIG X 999      43.658 131.922  16.862  1.00  0.00     0.057 C 
HETATM    3  C3  LIG X 999      43.138 131.798  18.158  1.00  0.00    -0.045 C 
HETATM    4  C4  LIG X 999      41.641 131.934  18.288  1.00  0.00     0.049 C 
HETATM    5  C5  LIG X 999      44.010 131.418  19.228  1.00  0.00     0.008 C 
HETATM    6  C6  LIG X 999      43.674 131.459  20.623  1.00  0.00    -0.013 C 
HETATM    7  C7  LIG X 999      42.616 132.239  21.148  1.00  0.00     0.013 C 
HETATM    8  C8  LIG X 999      42.296 132.200  22.506  1.00  0.00     0.001 C 
HETATM    9  C9  LIG X 999      43.048 131.426  23.385  1.00  0.00     0.001 C 
HETATM   10  C10 LIG X 999      44.160 130.732  22.918  1.00  0.00     0.012 C 
HETATM   11  C11 LIG X 999      44.504 130.774  21.556  1.00  0.00    -0.025 C 
HETATM   12  C12 LIG X 999      45.697 130.184  21.136  1.00  0.00     0.014 C 
HETATM   13  C13 LIG X 999      46.114 130.306  19.819  1.00  0.00     0.031 C 
HETATM   14  C14 LIG X 999      45.297 130.922  18.864  1.00  0.00     0.045 C 
HETATM   15  N2  LIG X 999      45.742 131.021  17.578  1.00  0.00    -0.341 N 
HETATM   16  H12 LIG X 999      46.705 130.687  17.337  1.00  0.00     0.167 HD
ENDROOT
BRANCH   1  17
HETATM   17  N1  LIG X 999      45.453 131.646  15.388  1.00  0.00    -0.284 NA
HETATM   18  H1  LIG X 999      45.172 131.006  14.612  1.00  0.00     0.188 HD
ENDBRANCH   1  17
TORSDOF 1
ENDMDL
MODEL 5
REMARK VINA RESULT:      -5.4      3.422      6.181
REMARK  1 active torsions:
REMARK  status: ('A' for Active; 'I' for Inactive)
REMARK    1  A    between atoms: N1_2  and  C1_3 
ROOT
HETATM    1  C1  LIG X 999      46.785 130.657  14.290  1.00  0.00     0.120 C 
HETATM    2  C2  LIG X 999      45.500 131.051  13.917  1.00  0.00     0.057 C 
HETATM    3  C3  LIG X 999      44.500 131.223  14.885  1.00  0.00    -0.045 C 
HETATM    4  C4  LIG X 999      43.088 131.341  14.366  1.00  0.00     0.049 C 
HETATM    5  C5  LIG X 999      44.845 131.134  16.271  1.00  0.00     0.008 C 
HETATM    6  C6  LIG X 999      43.986 131.496  17.362  1.00  0.00    -0.013 C 
HETATM    7  C7  LIG X 999      42.863 132.346  17.222  1.00  0.00     0.013 C 
HETATM    8  C8  LIG X 999      42.027 132.622  18.306  1.00  0.00     0.001 C 
HETATM    9  C9  LIG X 999      42.312 132.102  19.565  1.00  0.00     0.001 C 
HETATM   10  C10 LIG X 999      43.468 131.350  19.759  1.00  0.00     0.012 C 
HETATM   11  C11 LIG X 999      44.327 131.077  18.680  1.00  0.00    -0.025 C 
HETATM   12  C12 LIG X 999      45.545 130.441  18.924  1.00  0.00     0.014 C 
HETATM   13  C13 LIG X 999      46.458 130.259  17.897  1.00  0.00     0.031 C 
HETATM   14  C14 LIG X 999      46.133 130.605  16.580  1.00  0.00     0.045 C 
HETATM   15  N2  LIG X 999      47.059 130.409  15.597  1.00  0.00    -0.341 N 
HETATM   16  H12 LIG X 999      48.013 130.056  15.848  1.00  0.00     0.167 HD
ENDROOT
BRANCH   1  17
HETATM   17  N1  LIG X 999      47.709 130.486  13.397  1.00  0.00    -0.284 NA
HETATM   18  H1  LIG X 999      48.504 129.821  13.528  1.00  0.00     0.188 HD
ENDBRANCH   1  17
TORSDOF 1
ENDMDL
MODEL 6
REMARK VINA RESULT:      -5.4      7.170      8.760
REMARK  1 active torsions:
REMARK  status: ('A' for Active; 'I' for Inactive)
REMARK    1  A    between atoms: N1_2  and  C1_3 
ROOT
HETATM    1  C1  LIG X 999      41.847 128.555  23.690  1.00  0.00     0.120 C 
HETATM    2  C2  LIG X 999      42.645 127.415  23.799  1.00  0.00     0.057 C 
HETATM    3  C3  LIG X 999      42.067 126.167  24.073  1.00  0.00    -0.045 C 
HETATM    4  C4  LIG X 999      43.021 125.070  24.476  1.00  0.00     0.049 C 
HETATM    5  C5  LIG X 999      40.641 126.046  24.095  1.00  0.00     0.008 C 
HETATM    6  C6  LIG X 999      39.917 124.808  24.147  1.00  0.00    -0.013 C 
HETATM    7  C7  LIG X 999      40.479 123.560  23.784  1.00  0.00     0.013 C 
HETATM    8  C8  LIG X 999      39.748 122.377  23.906  1.00  0.00     0.001 C 
HETATM    9  C9  LIG X 999      38.427 122.408  24.343  1.00  0.00     0.001 C 
HETATM   10  C10 LIG X 999      37.812 123.629  24.605  1.00  0.00     0.012 C 
HETATM   11  C11 LIG X 999      38.531 124.829  24.472  1.00  0.00    -0.025 C 
HETATM   12  C12 LIG X 999      37.858 126.045  24.607  1.00  0.00     0.014 C 
HETATM   13  C13 LIG X 999      38.519 127.241  24.371  1.00  0.00     0.031 C 
HETATM   14  C14 LIG X 999      39.893 127.260  24.107  1.00  0.00     0.045 C 
HETATM   15  N2  LIG X 999      40.507 128.458  23.883  1.00  0.00    -0.341 N 
HETATM   16  H12 LIG X 999      39.935 129.335  23.857  1.00  0.00     0.167 HD
ENDROOT
BRANCH   1  17
HETATM   17  N1  LIG X 999      42.379 129.712  23.448  1.00  0.00    -0.284 NA
HETATM   18  H1  LIG X 999      41.990 130.375  22.740  1.00  0.00     0.188 HD
ENDBRANCH   1  17
TORSDOF 1
ENDMDL
MODEL 7
REMARK VINA RESULT:      -5.1      6.954      8.781
REMARK  1 active torsions:
REMARK  status: ('A' for Active; 'I' for Inactive)
REMARK    1  A    between atoms: N1_2  and  C1_3 
ROOT
HETATM    1  C1  LIG X 999      43.946 127.368  23.365  1.00  0.00     0.120 C 
HETATM    2  C2  LIG X 999      42.726 127.825  23.863  1.00  0.00     0.057 C 
HETATM    3  C3  LIG X 999      41.601 126.987  23.867  1.00  0.00    -0.045 C 
HETATM    4  C4  LIG X 999      40.275 127.658  24.128  1.00  0.00     0.049 C 
HETATM    5  C5  LIG X 999      41.751 125.614  23.491  1.00  0.00     0.008 C 
HETATM    6  C6  LIG X 999      40.749 124.599  23.651  1.00  0.00    -0.013 C 
HETATM    7  C7  LIG X 999      39.658 124.714  24.545  1.00  0.00     0.013 C 
HETATM    8  C8  LIG X 999      38.679 123.721  24.622  1.00  0.00     0.001 C 
HETATM    9  C9  LIG X 999      38.787 122.567  23.851  1.00  0.00     0.001 C 
HETATM   10  C10 LIG X 999      39.903 122.375  23.042  1.00  0.00     0.012 C 
HETATM   11  C11 LIG X 999      40.903 123.360  22.966  1.00  0.00    -0.025 C 
HETATM   12  C12 LIG X 999      42.074 123.087  22.258  1.00  0.00     0.014 C 
HETATM   13  C13 LIG X 999      43.121 123.997  22.260  1.00  0.00     0.031 C 
HETATM   14  C14 LIG X 999      42.982 125.247  22.873  1.00  0.00     0.045 C 
HETATM   15  N2  LIG X 999      44.036 126.115  22.851  1.00  0.00    -0.341 N 
HETATM   16  H12 LIG X 999      44.945 125.814  22.427  1.00  0.00     0.167 HD
ENDROOT
BRANCH   1  17
HETATM   17  N1  LIG X 999      44.985 128.145  23.349  1.00  0.00    -0.284 NA
HETATM   18  H1  LIG X 999      44.920 129.170  23.160  1.00  0.00     0.188 HD
ENDBRANCH   1  17
TORSDOF 1
ENDMDL
MODEL 8
REMARK VINA RESULT:      -5.1      1.946      3.418
REMARK  1 active torsions:
REMARK  status: ('A' for Active; 'I' for Inactive)
REMARK    1  A    between atoms: N1_2  and  C1_3 
ROOT
HETATM    1  C1  LIG X 999      43.113 132.134  19.178  1.00  0.00     0.120 C 
HETATM    2  C2  LIG X 999      44.250 131.385  19.481  1.00  0.00     0.057 C 
HETATM    3  C3  LIG X 999      45.026 130.825  18.455  1.00  0.00    -0.045 C 
HETATM    4  C4  LIG X 999      46.038 129.789  18.880  1.00  0.00     0.049 C 
HETATM    5  C5  LIG X 999      44.725 131.148  17.094  1.00  0.00     0.008 C 
HETATM    6  C6  LIG X 999      45.551 130.827  15.965  1.00  0.00    -0.013 C 
HETATM    7  C7  LIG X 999      46.929 130.518  16.070  1.00  0.00     0.013 C 
HETATM    8  C8  LIG X 999      47.675 130.158  14.947  1.00  0.00     0.001 C 
HETATM    9  C9  LIG X 999      47.087 130.145  13.686  1.00  0.00     0.001 C 
HETATM   10  C10 LIG X 999      45.763 130.547  13.534  1.00  0.00     0.012 C 
HETATM   11  C11 LIG X 999      45.004 130.927  14.654  1.00  0.00    -0.025 C 
HETATM   12  C12 LIG X 999      43.726 131.455  14.463  1.00  0.00     0.014 C 
HETATM   13  C13 LIG X 999      43.000 131.939  15.542  1.00  0.00     0.031 C 
HETATM   14  C14 LIG X 999      43.483 131.805  16.848  1.00  0.00     0.045 C 
HETATM   15  N2  LIG X 999      42.737 132.292  17.883  1.00  0.00    -0.341 N 
HETATM   16  H12 LIG X 999      41.847 132.806  17.680  1.00  0.00     0.167 HD
ENDROOT
BRANCH   1  17
HETATM   17  N1  LIG X 999      42.387 132.644  20.123  1.00  0.00    -0.284 NA
HETATM   18  H1  LIG X 999      41.596 133.301  19.936  1.00  0.00     0.188 HD
ENDBRANCH   1  17
TORSDOF 1
ENDMDL
MODEL 9
REMARK VINA RESULT:      -4.8      6.303      7.833
REMARK  1 active torsions:
REMARK  status: ('A' for Active; 'I' for Inactive)
REMARK    1  A    between atoms: N1_2  and  C1_3 
ROOT
HETATM    1  C1  LIG X 999      40.747 125.038  23.090  1.00  0.00     0.120 C 
HETATM    2  C2  LIG X 999      41.179 123.900  22.409  1.00  0.00     0.057 C 
HETATM    3  C3  LIG X 999      42.524 123.764  22.034  1.00  0.00    -0.045 C 
HETATM    4  C4  LIG X 999      42.828 122.666  21.044  1.00  0.00     0.049 C 
HETATM    5  C5  LIG X 999      43.477 124.733  22.483  1.00  0.00     0.008 C 
HETATM    6  C6  LIG X 999      44.902 124.610  22.362  1.00  0.00    -0.013 C 
HETATM    7  C7  LIG X 999      45.563 123.375  22.158  1.00  0.00     0.013 C 
HETATM    8  C8  LIG X 999      46.948 123.317  21.990  1.00  0.00     0.001 C 
HETATM    9  C9  LIG X 999      47.715 124.475  22.071  1.00  0.00     0.001 C 
HETATM   10  C10 LIG X 999      47.108 125.689  22.377  1.00  0.00     0.012 C 
HETATM   11  C11 LIG X 999      45.717 125.760  22.563  1.00  0.00    -0.025 C 
HETATM   12  C12 LIG X 999      45.148 126.957  23.002  1.00  0.00     0.014 C 
HETATM   13  C13 LIG X 999      43.795 127.022  23.300  1.00  0.00     0.031 C 
HETATM   14  C14 LIG X 999      42.956 125.929  23.059  1.00  0.00     0.045 C 
HETATM   15  N2  LIG X 999      41.629 126.034  23.363  1.00  0.00    -0.341 N 
HETATM   16  H12 LIG X 999      41.271 126.905  23.821  1.00  0.00     0.167 HD
ENDROOT
BRANCH   1  17
HETATM   17  N1  LIG X 999      39.503 125.172  23.428  1.00  0.00    -0.284 NA
HETATM   18  H1  LIG X 999      39.149 125.998  23.963  1.00  0.00     0.188 HD
ENDBRANCH   1  17
TORSDOF 1
ENDMDL
