REMARK VINA RESULT:      -3.7      5.606      6.969
REMARK  6 active torsions:
REMARK  status: ('A' for Active; 'I' for Inactive)
REMARK    1  A    between atoms: C8_8  and  O1_9 
REMARK    2  A    between atoms: O1_9  and  C9_10 
REMARK    3  A    between atoms: C9_10  and  C10_11 
REMARK    4  A    between atoms: C10_11  and  C11_12 
REMARK    5  A    between atoms: C11_12  and  N1_13 
REMARK    6  A    between atoms: C13_18  and  N4_19 
ROOT
HETATM    1  N1  LIG X 999      48.918 135.484  21.649  1.00  0.00    -0.116 NA
HETATM    2  N2  LIG X 999      48.853 136.451  20.888  1.00  0.00    -0.168 NA
HETATM    3  N3  LIG X 999      48.789 137.416  20.130  1.00  0.00     0.068 N 
ENDROOT
BRANCH   1   4
HETATM    4  C11 LIG X 999      47.723 134.727  21.986  1.00  0.00     0.191 C 
BRANCH   4   5
HETATM    5  C10 LIG X 999      47.964 133.240  21.717  1.00  0.00     0.051 C 
BRANCH   5   6
HETATM    6  C9  LIG X 999      46.651 132.467  21.588  1.00  0.00     0.170 C 
BRANCH   6   7
HETATM    7  O1  LIG X 999      46.465 132.074  20.244  1.00  0.00    -0.384 OA
BRANCH   7   8
HETATM    8  C8  LIG X 999      45.866 130.789  20.169  1.00  0.00     0.146 C 
HETATM    9  C7  LIG X 999      44.830 130.631  21.290  1.00  0.00     0.072 C 
HETATM   10  C5  LIG X 999      43.632 131.527  21.096  1.00  0.00    -0.047 A 
HETATM   11  C4  LIG X 999      43.257 131.997  19.813  1.00  0.00    -0.023 A 
HETATM   12  C6  LIG X 999      42.831 131.834  22.209  1.00  0.00     0.008 A 
HETATM   13  C3  LIG X 999      42.128 132.829  19.695  1.00  0.00     0.010 A 
HETATM   14  C13 LIG X 999      44.113 131.733  18.584  1.00  0.00     0.199 C 
HETATM   15  C2  LIG X 999      41.351 133.139  20.814  1.00  0.00     0.001 A 
HETATM   16  C1  LIG X 999      41.698 132.637  22.067  1.00  0.00     0.001 A 
HETATM   17  C12 LIG X 999      45.166 130.629  18.813  1.00  0.00     0.143 C 
HETATM   18 CL1  LIG X 999      46.379 130.655  17.499  1.00  0.00    -0.120 Cl
BRANCH  14  19
HETATM   19  N4  LIG X 999      43.261 131.346  17.461  1.00  0.00    -0.104 NA
HETATM   20  N5  LIG X 999      43.632 131.501  16.297  1.00  0.00    -0.167 NA
HETATM   21  N6  LIG X 999      44.003 131.656  15.134  1.00  0.00     0.068 N 
ENDBRANCH  14  19
ENDBRANCH   7   8
ENDBRANCH   6   7
ENDBRANCH   5   6
ENDBRANCH   4   5
ENDBRANCH   1   4
TORSDOF 6
