REMARK VINA RESULT:      -6.1      2.661      5.858
REMARK  3 active torsions:
REMARK  status: ('A' for Active; 'I' for Inactive)
REMARK    1  A    between atoms: C3_3  and  N1_4 
REMARK    2  A    between atoms: C3_3  and  C4_7 
REMARK    3  A    between atoms: C3_3  and  C14_17 
ROOT
HETATM    1  C1  LIG X 999      45.501 129.513  21.138  1.00  0.00     0.015 C 
HETATM    2  C2  LIG X 999      45.001 130.448  20.562  1.00  0.00    -0.075 C 
HETATM    3  C3  LIG X 999      44.388 131.602  19.852  1.00  0.00     0.183 C 
ENDROOT
BRANCH   3   4
HETATM    4  N1  LIG X 999      45.065 132.811  20.344  1.00  0.00    -0.085 NA
HETATM    5  N2  LIG X 999      46.151 132.764  20.927  1.00  0.00    -0.165 NA
HETATM    6  N3  LIG X 999      47.234 132.717  21.508  1.00  0.00     0.068 N 
ENDBRANCH   3   4
BRANCH   3   7
HETATM    7  C4  LIG X 999      44.615 131.457  18.333  1.00  0.00    -0.012 A 
HETATM    8  C5  LIG X 999      43.646 131.920  17.416  1.00  0.00     0.012 A 
HETATM    9  C6  LIG X 999      43.823 131.770  16.039  1.00  0.00     0.013 A 
HETATM   10  C7  LIG X 999      44.968 131.139  15.539  1.00  0.00    -0.026 A 
HETATM   11  C8  LIG X 999      45.152 130.983  14.156  1.00  0.00     0.012 A 
HETATM   12  C12 LIG X 999      45.943 130.650  16.436  1.00  0.00    -0.025 A 
HETATM   13  C9  LIG X 999      46.295 130.343  13.669  1.00  0.00     0.001 A 
HETATM   14  C10 LIG X 999      47.259 129.857  14.556  1.00  0.00     0.001 A 
HETATM   15  C11 LIG X 999      47.086 130.007  15.935  1.00  0.00     0.012 A 
HETATM   16  C13 LIG X 999      45.758 130.805  17.818  1.00  0.00     0.023 A 
ENDBRANCH   3   7
BRANCH   3  17
HETATM   17  C14 LIG X 999      42.845 131.701  20.207  1.00  0.00    -0.005 C 
HETATM   18  C15 LIG X 999      42.373 133.177  20.227  1.00  0.00     0.018 C 
HETATM   19  C16 LIG X 999      41.967 130.936  19.185  1.00  0.00     0.018 C 
HETATM   20  C17 LIG X 999      42.568 131.105  21.613  1.00  0.00     0.018 C 
ENDBRANCH   3  17
TORSDOF 3
