REMARK VINA RESULT:      -8.4      2.850      8.033
REMARK  5 active torsions:
REMARK  status: ('A' for Active; 'I' for Inactive)
REMARK    1  A    between atoms: C2_2  and  C3_3 
REMARK    2  A    between atoms: C2_2  and  N1_13 
REMARK    3  A    between atoms: C14_15  and  C15_16 
REMARK    4  A    between atoms: C15_16  and  C16_17 
REMARK       I    between atoms: C16_17  and  N2_19 
REMARK    5  A    between atoms: N2_19  and  C17_20 
ROOT
HETATM    1  N1  LIG X 999      43.869 131.421  21.580  1.00  0.00    -0.274 N 
HETATM    2  C13 LIG X 999      43.350 131.272  20.347  1.00  0.00     0.137 A 
HETATM    3  C14 LIG X 999      44.312 131.722  19.472  1.00  0.00     0.078 A 
HETATM    4  N4  LIG X 999      45.372 132.154  20.185  1.00  0.00    -0.163 NA
HETATM    5  N5  LIG X 999      45.076 131.955  21.461  1.00  0.00     0.005 NA
ENDROOT
BRANCH   1   6
HETATM    6  C2  LIG X 999      43.223 131.143  22.866  1.00  0.00     0.134 C 
HETATM    7  C1  LIG X 999      43.879 131.945  23.999  1.00  0.00     0.039 C 
BRANCH   6   8
HETATM    8  C3  LIG X 999      43.200 129.648  23.132  1.00  0.00    -0.033 A 
HETATM    9  C4  LIG X 999      42.084 129.023  23.723  1.00  0.00     0.010 A 
HETATM   10  C5  LIG X 999      42.097 127.653  23.998  1.00  0.00     0.013 A 
HETATM   11  C6  LIG X 999      43.228 126.882  23.701  1.00  0.00    -0.026 A 
HETATM   12  C7  LIG X 999      43.248 125.505  23.975  1.00  0.00     0.012 A 
HETATM   13  C11 LIG X 999      44.364 127.501  23.126  1.00  0.00    -0.025 A 
HETATM   14  C8  LIG X 999      44.388 124.749  23.682  1.00  0.00     0.001 A 
HETATM   15  C9  LIG X 999      45.512 125.359  23.117  1.00  0.00     0.001 A 
HETATM   16  C10 LIG X 999      45.502 126.730  22.838  1.00  0.00     0.012 A 
HETATM   17  C12 LIG X 999      44.344 128.877  22.852  1.00  0.00     0.021 A 
ENDBRANCH   6   8
ENDBRANCH   1   6
BRANCH   3  18
HETATM   18  C15 LIG X 999      44.180 131.850  17.988  1.00  0.00     0.167 C 
BRANCH  18  19
HETATM   19  C16 LIG X 999      45.285 131.100  17.316  1.00  0.00     0.251 C 
HETATM   20  O1  LIG X 999      45.747 130.058  17.852  1.00  0.00    -0.271 OA
HETATM   21  N2  LIG X 999      45.801 131.581  16.068  1.00  0.00    -0.189 NA
BRANCH  21  22
HETATM   22  C17 LIG X 999      46.650 130.859  15.167  1.00  0.00     0.173 A 
HETATM   23  N3  LIG X 999      47.137 129.615  15.383  1.00  0.00    -0.344 N 
HETATM   24  C18 LIG X 999      47.863 129.160  14.327  1.00  0.00     0.097 A 
HETATM   25  H15 LIG X 999      46.965 129.038  16.234  1.00  0.00     0.167 HD
HETATM   26  C19 LIG X 999      47.940 130.037  13.249  1.00  0.00     0.070 A 
HETATM   27  S1  LIG X 999      47.066 131.422  13.640  1.00  0.00    -0.062 SA
ENDBRANCH  21  22
ENDBRANCH  18  19
ENDBRANCH   3  18
TORSDOF 5
