REMARK VINA RESULT:      -5.4      8.957     10.364
REMARK  2 active torsions:
REMARK  status: ('A' for Active; 'I' for Inactive)
REMARK    1  A    between atoms: N1_1  and  C1_2 
REMARK    2  A    between atoms: C2_5  and  C3_6 
ROOT
HETATM    1  C3  LIG X 999      51.458 136.876  23.005  1.00  0.00     0.030 A 
HETATM    2  C4  LIG X 999      52.233 137.803  23.724  1.00  0.00     0.017 A 
HETATM    3  C5  LIG X 999      52.199 139.161  23.412  1.00  0.00     0.002 A 
HETATM    4  C6  LIG X 999      51.391 139.625  22.379  1.00  0.00     0.012 A 
HETATM    5  C7  LIG X 999      50.584 138.733  21.659  1.00  0.00    -0.025 A 
HETATM    6  C8  LIG X 999      49.753 139.218  20.636  1.00  0.00     0.012 A 
HETATM    7  C9  LIG X 999      48.917 138.349  19.937  1.00  0.00     0.001 A 
HETATM    8  C10 LIG X 999      48.892 136.993  20.261  1.00  0.00     0.001 A 
HETATM    9  C11 LIG X 999      49.714 136.492  21.272  1.00  0.00     0.013 A 
HETATM   10  C12 LIG X 999      50.595 137.346  21.975  1.00  0.00    -0.011 A 
ENDROOT
BRANCH   1  11
HETATM   11  C2  LIG X 999      51.616 135.441  23.344  1.00  0.00     0.205 A 
HETATM   12  N3  LIG X 999      52.748 134.737  23.130  1.00  0.00    -0.119 NA
HETATM   13  N2  LIG X 999      52.503 133.496  23.521  1.00  0.00    -0.103 NA
HETATM   14  C1  LIG X 999      51.229 133.495  23.952  1.00  0.00     0.265 A 
HETATM   15  O1  LIG X 999      50.674 134.675  23.845  1.00  0.00    -0.255 OA
BRANCH  14  16
HETATM   16  N1  LIG X 999      50.564 132.343  24.462  1.00  0.00    -0.362 N 
HETATM   17  H1  LIG X 999      49.523 132.280  24.437  1.00  0.00     0.159 HD
HETATM   18  H2  LIG X 999      51.117 131.554  24.865  1.00  0.00     0.159 HD
ENDBRANCH  14  16
ENDBRANCH   1  11
TORSDOF 2
