REMARK VINA RESULT:      -6.4      2.773      5.810
REMARK  1 active torsions:
REMARK  status: ('A' for Active; 'I' for Inactive)
REMARK    1  A    between atoms: C8_8  and  N1_9 
ROOT
HETATM    1  N1  LIG X 999      42.342 132.317  18.231  1.00  0.00    -0.072 NA
HETATM    2  N2  LIG X 999      42.089 132.676  19.382  1.00  0.00    -0.162 NA
HETATM    3  N3  LIG X 999      41.835 133.035  20.530  1.00  0.00     0.068 N 
ENDROOT
BRANCH   1   4
HETATM    4  C8  LIG X 999      43.572 131.666  17.884  1.00  0.00     0.104 A 
HETATM    5  C7  LIG X 999      44.477 131.197  18.888  1.00  0.00     0.038 A 
HETATM    6  C6  LIG X 999      45.689 130.557  18.537  1.00  0.00     0.035 A 
HETATM    7  C5  LIG X 999      45.979 130.393  17.184  1.00  0.00     0.073 A 
HETATM    8  C4  LIG X 999      45.105 130.846  16.242  1.00  0.00     0.021 A 
HETATM    9  N4  LIG X 999      47.130 129.784  16.589  1.00  0.00    -0.209 NA
HETATM   10  C3  LIG X 999      45.561 130.597  14.989  1.00  0.00     0.047 A 
HETATM   11  C9  LIG X 999      43.907 131.480  16.522  1.00  0.00     0.009 A 
HETATM   12  C2  LIG X 999      44.819 130.979  13.872  1.00  0.00     0.018 A 
HETATM   13  C11 LIG X 999      46.842 129.924  15.187  1.00  0.00     0.278 A 
HETATM   14  C1  LIG X 999      43.583 131.631  14.097  1.00  0.00     0.002 A 
HETATM   15  C10 LIG X 999      43.124 131.884  15.417  1.00  0.00     0.015 A 
HETATM   16  O1  LIG X 999      47.602 129.516  14.271  1.00  0.00    -0.265 OA
ENDBRANCH   1   4
TORSDOF 1
