MODEL 1
REMARK VINA RESULT:      -6.5      0.000      0.000
REMARK  4 active torsions:
REMARK  status: ('A' for Active; 'I' for Inactive)
REMARK    1  A    between atoms: C4_4  and  N1_5 
REMARK    2  A    between atoms: C7_10  and  S1_11 
REMARK    3  A    between atoms: S1_11  and  C8_12 
REMARK    4  A    between atoms: C8_12  and  C9_13 
ROOT
HETATM    1  N1  LIG X 999      41.455 128.021  24.506  1.00  0.00    -0.071 NA
HETATM    2  N2  LIG X 999      40.407 127.614  24.008  1.00  0.00    -0.162 NA
HETATM    3  N3  LIG X 999      39.360 127.193  23.518  1.00  0.00     0.068 N 
ENDROOT
BRANCH   1   4
HETATM    4  C4  LIG X 999      42.711 128.046  23.799  1.00  0.00     0.108 A 
HETATM    5  C3  LIG X 999      43.509 126.897  23.621  1.00  0.00     0.008 A 
HETATM    6  C2  LIG X 999      44.710 126.965  22.981  1.00  0.00    -0.021 A 
HETATM    7  C15 LIG X 999      43.244 125.486  24.013  1.00  0.00     0.278 C 
HETATM    8  C1  LIG X 999      45.186 128.152  22.437  1.00  0.00     0.018 A 
HETATM    9  C18 LIG X 999      45.355 125.635  22.927  1.00  0.00     0.276 C 
HETATM   10  C6  LIG X 999      44.390 129.313  22.507  1.00  0.00    -0.035 A 
HETATM   11  C5  LIG X 999      43.166 129.272  23.245  1.00  0.00    -0.018 A 
HETATM   12  C7  LIG X 999      44.911 130.606  21.899  1.00  0.00     0.081 C 
HETATM   13  C14 LIG X 999      42.296 130.504  23.382  1.00  0.00     0.042 C 
HETATM   14  C13 LIG X 999      43.029 131.809  23.062  1.00  0.00     0.006 C 
HETATM   15  C12 LIG X 999      43.816 131.671  21.764  1.00  0.00     0.020 C 
HETATM   16  N4  LIG X 999      44.285 124.672  23.317  1.00  0.00    -0.067 N 
HETATM   17  C16 LIG X 999      43.709 124.044  22.104  1.00  0.00     0.272 C 
HETATM   18  C17 LIG X 999      44.820 123.617  24.205  1.00  0.00     0.272 C 
BRANCH  12  19
HETATM   19  S1  LIG X 999      45.604 130.317  20.217  1.00  0.00    -0.147 SA
BRANCH  19  20
HETATM   20  C8  LIG X 999      44.550 131.508  19.325  1.00  0.00     0.168 C 
BRANCH  20  21
HETATM   21  C9  LIG X 999      44.973 131.613  17.926  1.00  0.00    -0.097 C 
HETATM   22  C10 LIG X 999      45.325 131.705  16.776  1.00  0.00    -0.110 C 
HETATM   23  C11 LIG X 999      45.752 131.816  15.380  1.00  0.00     0.112 C 
ENDBRANCH  20  21
ENDBRANCH  19  20
ENDBRANCH  12  19
ENDBRANCH   1   4
TORSDOF 4
ENDMDL
MODEL 2
REMARK VINA RESULT:      -5.4      1.320      2.076
REMARK  4 active torsions:
REMARK  status: ('A' for Active; 'I' for Inactive)
REMARK    1  A    between atoms: C4_4  and  N1_5 
REMARK    2  A    between atoms: C7_10  and  S1_11 
REMARK    3  A    between atoms: S1_11  and  C8_12 
REMARK    4  A    between atoms: C8_12  and  C9_13 
ROOT
HETATM    1  N1  LIG X 999      42.956 129.792  23.999  1.00  0.00    -0.071 NA
HETATM    2  N2  LIG X 999      41.906 129.172  24.156  1.00  0.00    -0.162 NA
HETATM    3  N3  LIG X 999      40.862 128.543  24.326  1.00  0.00     0.068 N 
ENDROOT
BRANCH   1   4
HETATM    4  C4  LIG X 999      43.929 129.463  22.988  1.00  0.00     0.108 A 
HETATM    5  C3  LIG X 999      44.639 128.245  22.981  1.00  0.00     0.008 A 
HETATM    6  C2  LIG X 999      45.580 127.982  22.030  1.00  0.00    -0.021 A 
HETATM    7  C15 LIG X 999      44.520 127.071  23.888  1.00  0.00     0.278 C 
HETATM    8  C1  LIG X 999      45.854 128.875  21.002  1.00  0.00     0.018 A 
HETATM    9  C18 LIG X 999      46.185 126.649  22.242  1.00  0.00     0.276 C 
HETATM   10  C6  LIG X 999      45.111 130.069  20.907  1.00  0.00    -0.035 A 
HETATM   11  C5  LIG X 999      44.179 130.391  21.942  1.00  0.00    -0.018 A 
HETATM   12  C7  LIG X 999      45.407 131.038  19.772  1.00  0.00     0.081 C 
HETATM   13  C14 LIG X 999      43.387 131.682  21.905  1.00  0.00     0.042 C 
HETATM   14  C13 LIG X 999      43.973 132.733  20.961  1.00  0.00     0.006 C 
HETATM   15  C12 LIG X 999      44.317 132.105  19.615  1.00  0.00     0.020 C 
HETATM   16  N4  LIG X 999      45.298 125.975  23.233  1.00  0.00    -0.067 N 
HETATM   17  C16 LIG X 999      44.376 125.049  22.533  1.00  0.00     0.272 C 
HETATM   18  C17 LIG X 999      46.091 125.218  24.225  1.00  0.00     0.272 C 
BRANCH  12  19
HETATM   19  S1  LIG X 999      45.542 130.152  18.163  1.00  0.00    -0.147 SA
BRANCH  19  20
HETATM   20  C8  LIG X 999      45.245 131.590  17.082  1.00  0.00     0.168 C 
BRANCH  20  21
HETATM   21  C9  LIG X 999      45.938 131.417  15.803  1.00  0.00    -0.097 C 
HETATM   22  C10 LIG X 999      46.515 131.278  14.752  1.00  0.00    -0.110 C 
HETATM   23  C11 LIG X 999      47.214 131.106  13.478  1.00  0.00     0.112 C 
ENDBRANCH  20  21
ENDBRANCH  19  20
ENDBRANCH  12  19
ENDBRANCH   1   4
TORSDOF 4
ENDMDL
MODEL 3
REMARK VINA RESULT:      -4.7      5.604      6.797
REMARK  4 active torsions:
REMARK  status: ('A' for Active; 'I' for Inactive)
REMARK    1  A    between atoms: C4_4  and  N1_5 
REMARK    2  A    between atoms: C7_10  and  S1_11 
REMARK    3  A    between atoms: S1_11  and  C8_12 
REMARK    4  A    between atoms: C8_12  and  C9_13 
ROOT
HETATM    1  N1  LIG X 999      45.535 126.208  24.513  1.00  0.00    -0.071 NA
HETATM    2  N2  LIG X 999      45.038 127.270  24.143  1.00  0.00    -0.162 NA
HETATM    3  N3  LIG X 999      44.524 128.327  23.779  1.00  0.00     0.068 N 
ENDROOT
BRANCH   1   4
HETATM    4  C4  LIG X 999      45.838 125.119  23.618  1.00  0.00     0.108 A 
HETATM    5  C3  LIG X 999      44.853 124.231  23.139  1.00  0.00     0.008 A 
HETATM    6  C2  LIG X 999      45.180 123.188  22.325  1.00  0.00    -0.021 A 
HETATM    7  C15 LIG X 999      43.380 124.238  23.355  1.00  0.00     0.278 C 
HETATM    8  C1  LIG X 999      46.483 122.976  21.892  1.00  0.00     0.018 A 
HETATM    9  C18 LIG X 999      43.980 122.403  21.965  1.00  0.00     0.276 C 
HETATM   10  C6  LIG X 999      47.493 123.884  22.267  1.00  0.00    -0.035 A 
HETATM   11  C5  LIG X 999      47.177 124.934  23.185  1.00  0.00    -0.018 A 
HETATM   12  C7  LIG X 999      48.916 123.653  21.780  1.00  0.00     0.081 C 
HETATM   13  C14 LIG X 999      48.238 125.911  23.649  1.00  0.00     0.042 C 
HETATM   14  C13 LIG X 999      49.668 125.421  23.409  1.00  0.00     0.006 C 
HETATM   15  C12 LIG X 999      49.812 124.879  21.992  1.00  0.00     0.020 C 
HETATM   16  N4  LIG X 999      42.825 123.251  22.380  1.00  0.00    -0.067 N 
HETATM   17  C16 LIG X 999      42.274 123.960  21.201  1.00  0.00     0.272 C 
HETATM   18  C17 LIG X 999      41.761 122.431  22.999  1.00  0.00     0.272 C 
BRANCH  12  19
HETATM   19  S1  LIG X 999      48.946 123.255  19.983  1.00  0.00    -0.147 SA
BRANCH  19  20
HETATM   20  C8  LIG X 999      50.573 122.432  19.955  1.00  0.00     0.168 C 
BRANCH  20  21
HETATM   21  C9  LIG X 999      51.457 123.086  18.987  1.00  0.00    -0.097 C 
HETATM   22  C10 LIG X 999      52.189 123.627  18.194  1.00  0.00    -0.110 C 
HETATM   23  C11 LIG X 999      53.077 124.281  17.232  1.00  0.00     0.112 C 
ENDBRANCH  20  21
ENDBRANCH  19  20
ENDBRANCH  12  19
ENDBRANCH   1   4
TORSDOF 4
ENDMDL
MODEL 4
REMARK VINA RESULT:      -4.3      1.590      2.247
REMARK  4 active torsions:
REMARK  status: ('A' for Active; 'I' for Inactive)
REMARK    1  A    between atoms: C4_4  and  N1_5 
REMARK    2  A    between atoms: C7_10  and  S1_11 
REMARK    3  A    between atoms: S1_11  and  C8_12 
REMARK    4  A    between atoms: C8_12  and  C9_13 
ROOT
HETATM    1  N1  LIG X 999      40.880 127.723  24.625  1.00  0.00    -0.071 NA
HETATM    2  N2  LIG X 999      39.870 127.275  24.086  1.00  0.00    -0.162 NA
HETATM    3  N3  LIG X 999      38.860 126.812  23.556  1.00  0.00     0.068 N 
ENDROOT
BRANCH   1   4
HETATM    4  C4  LIG X 999      42.172 127.757  23.985  1.00  0.00     0.108 A 
HETATM    5  C3  LIG X 999      42.909 126.591  23.694  1.00  0.00     0.008 A 
HETATM    6  C2  LIG X 999      44.144 126.661  23.123  1.00  0.00    -0.021 A 
HETATM    7  C15 LIG X 999      42.540 125.161  23.885  1.00  0.00     0.278 C 
HETATM    8  C1  LIG X 999      44.717 127.874  22.761  1.00  0.00     0.018 A 
HETATM    9  C18 LIG X 999      44.711 125.310  22.923  1.00  0.00     0.276 C 
HETATM   10  C6  LIG X 999      43.989 129.066  22.947  1.00  0.00    -0.035 A 
HETATM   11  C5  LIG X 999      42.727 129.011  23.617  1.00  0.00    -0.018 A 
HETATM   12  C7  LIG X 999      44.617 130.390  22.539  1.00  0.00     0.081 C 
HETATM   13  C14 LIG X 999      41.926 130.270  23.876  1.00  0.00     0.042 C 
HETATM   14  C13 LIG X 999      42.750 131.555  23.764  1.00  0.00     0.006 C 
HETATM   15  C12 LIG X 999      43.596 131.533  22.496  1.00  0.00     0.020 C 
HETATM   16  N4  LIG X 999      43.567 124.377  23.135  1.00  0.00    -0.067 N 
HETATM   17  C16 LIG X 999      43.020 123.949  21.825  1.00  0.00     0.272 C 
HETATM   18  C17 LIG X 999      43.991 123.184  23.901  1.00  0.00     0.272 C 
BRANCH  12  19
HETATM   19  S1  LIG X 999      45.380 130.274  20.867  1.00  0.00    -0.147 SA
BRANCH  19  20
HETATM   20  C8  LIG X 999      45.295 132.047  20.450  1.00  0.00     0.168 C 
BRANCH  20  21
HETATM   21  C9  LIG X 999      46.376 132.778  21.115  1.00  0.00    -0.097 C 
HETATM   22  C10 LIG X 999      47.263 133.386  21.663  1.00  0.00    -0.110 C 
HETATM   23  C11 LIG X 999      48.338 134.123  22.329  1.00  0.00     0.112 C 
ENDBRANCH  20  21
ENDBRANCH  19  20
ENDBRANCH  12  19
ENDBRANCH   1   4
TORSDOF 4
ENDMDL
MODEL 5
REMARK VINA RESULT:      -4.3      4.156      5.408
REMARK  4 active torsions:
REMARK  status: ('A' for Active; 'I' for Inactive)
REMARK    1  A    between atoms: C4_4  and  N1_5 
REMARK    2  A    between atoms: C7_10  and  S1_11 
REMARK    3  A    between atoms: S1_11  and  C8_12 
REMARK    4  A    between atoms: C8_12  and  C9_13 
ROOT
HETATM    1  N1  LIG X 999      40.286 127.483  23.502  1.00  0.00    -0.071 NA
HETATM    2  N2  LIG X 999      39.065 127.451  23.645  1.00  0.00    -0.162 NA
HETATM    3  N3  LIG X 999      37.845 127.429  23.803  1.00  0.00     0.068 N 
ENDROOT
BRANCH   1   4
HETATM    4  C4  LIG X 999      41.156 126.394  23.869  1.00  0.00     0.108 A 
HETATM    5  C3  LIG X 999      40.696 125.071  24.031  1.00  0.00     0.008 A 
HETATM    6  C2  LIG X 999      41.540 124.073  24.417  1.00  0.00    -0.021 A 
HETATM    7  C15 LIG X 999      39.337 124.504  23.810  1.00  0.00     0.278 C 
HETATM    8  C1  LIG X 999      42.895 124.297  24.625  1.00  0.00     0.018 A 
HETATM    9  C18 LIG X 999      40.820 122.785  24.521  1.00  0.00     0.276 C 
HETATM   10  C6  LIG X 999      43.428 125.581  24.391  1.00  0.00    -0.035 A 
HETATM   11  C5  LIG X 999      42.539 126.652  24.064  1.00  0.00    -0.018 A 
HETATM   12  C7  LIG X 999      44.915 125.817  24.610  1.00  0.00     0.081 C 
HETATM   13  C14 LIG X 999      43.060 128.057  23.843  1.00  0.00     0.042 C 
HETATM   14  C13 LIG X 999      44.463 128.286  24.409  1.00  0.00     0.006 C 
HETATM   15  C12 LIG X 999      45.390 127.145  24.008  1.00  0.00     0.020 C 
HETATM   16  N4  LIG X 999      39.509 123.020  23.851  1.00  0.00    -0.067 N 
HETATM   17  C16 LIG X 999      39.545 122.478  22.472  1.00  0.00     0.272 C 
HETATM   18  C17 LIG X 999      38.407 122.377  24.600  1.00  0.00     0.272 C 
BRANCH  12  19
HETATM   19  S1  LIG X 999      45.919 124.477  23.843  1.00  0.00    -0.147 SA
BRANCH  19  20
HETATM   20  C8  LIG X 999      46.555 125.444  22.433  1.00  0.00     0.168 C 
BRANCH  20  21
HETATM   21  C9  LIG X 999      47.396 124.602  21.578  1.00  0.00    -0.097 C 
HETATM   22  C10 LIG X 999      48.094 123.908  20.880  1.00  0.00    -0.110 C 
HETATM   23  C11 LIG X 999      48.938 123.065  20.032  1.00  0.00     0.112 C 
ENDBRANCH  20  21
ENDBRANCH  19  20
ENDBRANCH  12  19
ENDBRANCH   1   4
TORSDOF 4
ENDMDL
MODEL 6
REMARK VINA RESULT:      -3.9      3.512      5.682
REMARK  4 active torsions:
REMARK  status: ('A' for Active; 'I' for Inactive)
REMARK    1  A    between atoms: C4_4  and  N1_5 
REMARK    2  A    between atoms: C7_10  and  S1_11 
REMARK    3  A    between atoms: S1_11  and  C8_12 
REMARK    4  A    between atoms: C8_12  and  C9_13 
ROOT
HETATM    1  N1  LIG X 999      41.343 132.445  19.729  1.00  0.00    -0.071 NA
HETATM    2  N2  LIG X 999      40.893 133.144  20.635  1.00  0.00    -0.162 NA
HETATM    3  N3  LIG X 999      40.443 133.857  21.531  1.00  0.00     0.068 N 
ENDROOT
BRANCH   1   4
HETATM    4  C4  LIG X 999      42.711 131.995  19.681  1.00  0.00     0.108 A 
HETATM    5  C3  LIG X 999      43.465 131.721  20.841  1.00  0.00     0.008 A 
HETATM    6  C2  LIG X 999      44.769 131.333  20.759  1.00  0.00    -0.021 A 
HETATM    7  C15 LIG X 999      43.053 131.751  22.271  1.00  0.00     0.278 C 
HETATM    8  C1  LIG X 999      45.404 131.146  19.538  1.00  0.00     0.018 A 
HETATM    9  C18 LIG X 999      45.339 131.112  22.107  1.00  0.00     0.276 C 
HETATM   10  C6  LIG X 999      44.674 131.319  18.345  1.00  0.00    -0.035 A 
HETATM   11  C5  LIG X 999      43.331 131.802  18.417  1.00  0.00    -0.018 A 
HETATM   12  C7  LIG X 999      45.373 131.102  17.011  1.00  0.00     0.081 C 
HETATM   13  C14 LIG X 999      42.519 132.042  17.161  1.00  0.00     0.042 C 
HETATM   14  C13 LIG X 999      43.369 132.142  15.893  1.00  0.00     0.006 C 
HETATM   15  C12 LIG X 999      44.383 131.005  15.843  1.00  0.00     0.020 C 
HETATM   16  N4  LIG X 999      44.163 131.093  23.024  1.00  0.00    -0.067 N 
HETATM   17  C16 LIG X 999      43.798 129.692  23.342  1.00  0.00     0.272 C 
HETATM   18  C17 LIG X 999      44.459 131.817  24.280  1.00  0.00     0.272 C 
BRANCH  12  19
HETATM   19  S1  LIG X 999      46.360 129.547  17.025  1.00  0.00    -0.147 SA
BRANCH  19  20
HETATM   20  C8  LIG X 999      45.936 128.991  15.341  1.00  0.00     0.168 C 
BRANCH  20  21
HETATM   21  C9  LIG X 999      46.675 129.772  14.346  1.00  0.00    -0.097 C 
HETATM   22  C10 LIG X 999      47.279 130.416  13.523  1.00  0.00    -0.110 C 
HETATM   23  C11 LIG X 999      48.011 131.199  12.526  1.00  0.00     0.112 C 
ENDBRANCH  20  21
ENDBRANCH  19  20
ENDBRANCH  12  19
ENDBRANCH   1   4
TORSDOF 4
ENDMDL
MODEL 7
REMARK VINA RESULT:      -3.7      3.021      6.257
REMARK  4 active torsions:
REMARK  status: ('A' for Active; 'I' for Inactive)
REMARK    1  A    between atoms: C4_4  and  N1_5 
REMARK    2  A    between atoms: C7_10  and  S1_11 
REMARK    3  A    between atoms: S1_11  and  C8_12 
REMARK    4  A    between atoms: C8_12  and  C9_13 
ROOT
HETATM    1  N1  LIG X 999      42.492 130.066  23.775  1.00  0.00    -0.071 NA
HETATM    2  N2  LIG X 999      42.592 131.216  24.198  1.00  0.00    -0.162 NA
HETATM    3  N3  LIG X 999      42.683 132.373  24.608  1.00  0.00     0.068 N 
ENDROOT
BRANCH   1   4
HETATM    4  C4  LIG X 999      43.541 129.394  23.049  1.00  0.00     0.108 A 
HETATM    5  C3  LIG X 999      44.258 130.008  22.002  1.00  0.00     0.008 A 
HETATM    6  C2  LIG X 999      45.218 129.330  21.312  1.00  0.00    -0.021 A 
HETATM    7  C15 LIG X 999      44.175 131.401  21.483  1.00  0.00     0.278 C 
HETATM    8  C1  LIG X 999      45.566 128.024  21.630  1.00  0.00     0.018 A 
HETATM    9  C18 LIG X 999      45.819 130.186  20.266  1.00  0.00     0.276 C 
HETATM   10  C6  LIG X 999      44.944 127.389  22.724  1.00  0.00    -0.035 A 
HETATM   11  C5  LIG X 999      43.882 128.061  23.404  1.00  0.00    -0.018 A 
HETATM   12  C7  LIG X 999      45.338 125.962  23.074  1.00  0.00     0.081 C 
HETATM   13  C14 LIG X 999      43.156 127.404  24.560  1.00  0.00     0.042 C 
HETATM   14  C13 LIG X 999      43.354 125.888  24.625  1.00  0.00     0.006 C 
HETATM   15  C12 LIG X 999      44.828 125.538  24.457  1.00  0.00     0.020 C 
HETATM   16  N4  LIG X 999      45.359 131.568  20.587  1.00  0.00    -0.067 N 
HETATM   17  C16 LIG X 999      46.433 132.302  21.298  1.00  0.00     0.272 C 
HETATM   18  C17 LIG X 999      44.996 132.305  19.356  1.00  0.00     0.272 C 
BRANCH  12  19
HETATM   19  S1  LIG X 999      47.168 125.761  23.079  1.00  0.00    -0.147 SA
BRANCH  19  20
HETATM   20  C8  LIG X 999      47.206 123.985  22.666  1.00  0.00     0.168 C 
BRANCH  20  21
HETATM   21  C9  LIG X 999      48.065 123.752  21.502  1.00  0.00    -0.097 C 
HETATM   22  C10 LIG X 999      48.777 123.557  20.547  1.00  0.00    -0.110 C 
HETATM   23  C11 LIG X 999      49.639 123.320  19.389  1.00  0.00     0.112 C 
ENDBRANCH  20  21
ENDBRANCH  19  20
ENDBRANCH  12  19
ENDBRANCH   1   4
TORSDOF 4
ENDMDL
