REMARK VINA RESULT:      -4.6      4.606      6.396
REMARK  6 active torsions:
REMARK  status: ('A' for Active; 'I' for Inactive)
REMARK    1  A    between atoms: N1_1  and  C1_2 
REMARK    2  A    between atoms: C1_2  and  C2_3 
REMARK    3  A    between atoms: C2_3  and  O1_4 
REMARK    4  A    between atoms: C2_3  and  C3_5 
REMARK    5  A    between atoms: C3_5  and  O2_6 
REMARK    6  A    between atoms: O2_6  and  C4_7 
ROOT
HETATM    1  C4  LIG X 999      44.282 129.595  23.053  1.00  0.00     0.080 A 
HETATM    2  C5  LIG X 999      43.277 130.038  23.935  1.00  0.00     0.037 A 
HETATM    3  C6  LIG X 999      42.506 131.160  23.627  1.00  0.00     0.004 A 
HETATM    4  C7  LIG X 999      42.718 131.858  22.440  1.00  0.00     0.012 A 
HETATM    5  C8  LIG X 999      43.712 131.438  21.544  1.00  0.00    -0.023 A 
HETATM    6  C9  LIG X 999      43.929 132.140  20.347  1.00  0.00     0.012 A 
HETATM    7  C10 LIG X 999      44.919 131.718  19.457  1.00  0.00     0.001 A 
HETATM    8  C11 LIG X 999      45.699 130.599  19.751  1.00  0.00     0.001 A 
HETATM    9  C12 LIG X 999      45.494 129.890  20.938  1.00  0.00     0.015 A 
HETATM   10  C13 LIG X 999      44.501 130.299  21.849  1.00  0.00     0.007 A 
ENDROOT
BRANCH   1  11
HETATM   11  O2  LIG X 999      45.071 128.469  23.341  1.00  0.00    -0.348 OA
BRANCH  11  12
HETATM   12  C3  LIG X 999      45.019 127.730  24.560  1.00  0.00     0.209 C 
BRANCH  12  13
HETATM   13  C2  LIG X 999      45.475 126.290  24.304  1.00  0.00     0.170 C 
BRANCH  13  14
HETATM   14  C1  LIG X 999      44.629 125.624  23.205  1.00  0.00     0.300 C 
BRANCH  14  15
HETATM   15  N1  LIG X 999      43.239 126.066  23.277  1.00  0.00     0.080 N 
HETATM   16  H1  LIG X 999      42.944 126.030  24.280  1.00  0.00     0.312 HD
HETATM   17  H2  LIG X 999      43.200 127.073  22.992  1.00  0.00     0.312 HD
ENDBRANCH  14  15
ENDBRANCH  13  14
BRANCH  13  18
HETATM   18  O1  LIG X 999      46.823 126.302  23.913  1.00  0.00    -0.392 OA
HETATM   19  H6  LIG X 999      47.211 127.157  24.240  1.00  0.00     0.210 HD
ENDBRANCH  13  18
ENDBRANCH  12  13
ENDBRANCH  11  12
ENDBRANCH   1  11
TORSDOF 6
