REMARK VINA RESULT:      -6.9      2.457      5.808
REMARK  4 active torsions:
REMARK  status: ('A' for Active; 'I' for Inactive)
REMARK    1  A    between atoms: C3_3  and  O1_4 
REMARK    2  A    between atoms: O1_4  and  C4_5 
REMARK    3  A    between atoms: C4_5  and  O2_6 
REMARK    4  A    between atoms: C5_8  and  C6_9 
ROOT
HETATM    1  C1  LIG X 999      44.587 129.479  22.667  1.00  0.00     0.014 C 
HETATM    2  C2  LIG X 999      43.806 130.368  22.435  1.00  0.00    -0.091 C 
HETATM    3  C3  LIG X 999      42.859 131.447  22.153  1.00  0.00     0.270 C 
ENDROOT
BRANCH   3   4
HETATM    4  O1  LIG X 999      43.293 132.161  21.004  1.00  0.00    -0.319 OA
BRANCH   4   5
HETATM    5  C4  LIG X 999      42.421 132.528  19.976  1.00  0.00     0.179 C 
HETATM    6  C5  LIG X 999      42.706 132.217  18.704  1.00  0.00     0.075 C 
BRANCH   5   7
HETATM    7  O2  LIG X 999      41.238 133.205  20.281  1.00  0.00    -0.341 OA
HETATM    8  H4  LIG X 999      41.238 134.143  20.665  1.00  0.00     0.220 HD
ENDBRANCH   5   7
BRANCH   6   9
HETATM    9  C6  LIG X 999      43.948 131.513  18.299  1.00  0.00    -0.021 A 
HETATM   10  C7  LIG X 999      44.835 131.062  19.292  1.00  0.00     0.012 A 
HETATM   11  C8  LIG X 999      46.034 130.437  18.950  1.00  0.00     0.002 A 
HETATM   12  C9  LIG X 999      46.379 130.262  17.612  1.00  0.00     0.012 A 
HETATM   13  C10 LIG X 999      45.522 130.710  16.597  1.00  0.00    -0.025 A 
HETATM   14  C11 LIG X 999      45.877 130.532  15.251  1.00  0.00     0.012 A 
HETATM   15  C15 LIG X 999      44.293 131.343  16.932  1.00  0.00    -0.015 A 
HETATM   16  C12 LIG X 999      45.025 130.965  14.235  1.00  0.00     0.001 A 
HETATM   17  C13 LIG X 999      43.812 131.576  14.551  1.00  0.00     0.001 A 
HETATM   18  C14 LIG X 999      43.443 131.763  15.886  1.00  0.00     0.013 A 
ENDBRANCH   6   9
ENDBRANCH   4   5
ENDBRANCH   3   4
TORSDOF 4
