REMARK VINA RESULT:      -8.0      4.130      6.515
REMARK  3 active torsions:
REMARK  status: ('A' for Active; 'I' for Inactive)
REMARK    1  A    between atoms: C6_6  and  C7_7 
REMARK    2  A    between atoms: C7_7  and  C8_9 
REMARK    3  A    between atoms: C8_9  and  N1_10 
ROOT
HETATM    1  N1  LIG X 999      43.656 132.236  20.194  1.00  0.00    -0.108 NA
HETATM    2  N2  LIG X 999      43.519 131.690  21.288  1.00  0.00    -0.167 NA
HETATM    3  N3  LIG X 999      43.382 131.144  22.382  1.00  0.00     0.068 N 
ENDROOT
BRANCH   1   4
HETATM    4  C8  LIG X 999      43.634 131.463  18.957  1.00  0.00     0.272 C 
BRANCH   4   5
HETATM    5  C7  LIG X 999      45.007 130.934  18.628  1.00  0.00     0.181 C 
HETATM    6  O1  LIG X 999      45.668 130.344  19.527  1.00  0.00    -0.290 OA
BRANCH   5   7
HETATM    7  C6  LIG X 999      45.588 131.069  17.264  1.00  0.00     0.012 A 
HETATM    8  C5  LIG X 999      46.342 130.029  16.681  1.00  0.00     0.027 A 
HETATM    9  C4  LIG X 999      46.883 130.172  15.394  1.00  0.00    -0.025 A 
HETATM   10  C3  LIG X 999      47.633 129.136  14.814  1.00  0.00     0.012 A 
HETATM   11  C11 LIG X 999      46.673 131.370  14.673  1.00  0.00    -0.026 A 
HETATM   12  C2  LIG X 999      48.168 129.289  13.532  1.00  0.00     0.001 A 
HETATM   13  C1  LIG X 999      47.959 130.474  12.819  1.00  0.00     0.001 A 
HETATM   14  C12 LIG X 999      47.215 131.512  13.386  1.00  0.00     0.012 A 
HETATM   15  C10 LIG X 999      45.927 132.405  15.251  1.00  0.00     0.013 A 
HETATM   16  C9  LIG X 999      45.391 132.255  16.533  1.00  0.00     0.016 A 
ENDBRANCH   5   7
ENDBRANCH   4   5
ENDBRANCH   1   4
TORSDOF 3
