REMARK VINA RESULT:      -6.1      1.601      2.472
REMARK  3 active torsions:
REMARK  status: ('A' for Active; 'I' for Inactive)
REMARK    1  A    between atoms: C6_6  and  C7_7 
REMARK    2  A    between atoms: C7_7  and  C8_9 
REMARK    3  A    between atoms: C8_9  and  N1_10 
ROOT
HETATM    1  N1  LIG X 999      45.603 130.539  16.365  1.00  0.00    -0.108 NA
HETATM    2  N2  LIG X 999      45.832 130.723  15.169  1.00  0.00    -0.167 NA
HETATM    3  N3  LIG X 999      46.060 130.906  13.975  1.00  0.00     0.068 N 
ENDROOT
BRANCH   1   4
HETATM    4  C8  LIG X 999      45.382 131.661  17.271  1.00  0.00     0.272 C 
BRANCH   4   5
HETATM    5  C7  LIG X 999      43.946 131.710  17.727  1.00  0.00     0.181 C 
HETATM    6  O1  LIG X 999      43.028 131.715  16.860  1.00  0.00    -0.290 OA
BRANCH   5   7
HETATM    7  C6  LIG X 999      43.587 131.725  19.171  1.00  0.00     0.012 A 
HETATM    8  C5  LIG X 999      44.282 130.936  20.110  1.00  0.00     0.027 A 
HETATM    9  C4  LIG X 999      43.930 130.962  21.468  1.00  0.00    -0.025 A 
HETATM   10  C3  LIG X 999      44.624 130.175  22.402  1.00  0.00     0.012 A 
HETATM   11  C11 LIG X 999      42.867 131.787  21.903  1.00  0.00    -0.026 A 
HETATM   12  C2  LIG X 999      44.265 130.209  23.753  1.00  0.00     0.001 A 
HETATM   13  C1  LIG X 999      43.214 131.025  24.181  1.00  0.00     0.001 A 
HETATM   14  C12 LIG X 999      42.516 131.812  23.262  1.00  0.00     0.012 A 
HETATM   15  C10 LIG X 999      42.174 132.570  20.972  1.00  0.00     0.013 A 
HETATM   16  C9  LIG X 999      42.530 132.539  19.621  1.00  0.00     0.016 A 
ENDBRANCH   5   7
ENDBRANCH   4   5
ENDBRANCH   1   4
TORSDOF 3
