REMARK VINA RESULT:      -4.8      3.802      6.512
REMARK  4 active torsions:
REMARK  status: ('A' for Active; 'I' for Inactive)
REMARK    1  A    between atoms: C4_4  and  N1_5 
REMARK    2  A    between atoms: C7_10  and  S1_11 
REMARK    3  A    between atoms: S1_11  and  C8_12 
REMARK    4  A    between atoms: C8_12  and  C9_13 
ROOT
HETATM    1  N1  LIG X 999      41.729 132.239  19.014  1.00  0.00    -0.071 NA
HETATM    2  N2  LIG X 999      41.368 132.929  19.967  1.00  0.00    -0.162 NA
HETATM    3  N3  LIG X 999      40.992 133.616  20.917  1.00  0.00     0.068 N 
ENDROOT
BRANCH   1   4
HETATM    4  C4  LIG X 999      43.058 131.705  18.868  1.00  0.00     0.108 A 
HETATM    5  C3  LIG X 999      43.698 131.247  20.025  1.00  0.00     0.008 A 
HETATM    6  C2  LIG X 999      44.973 130.782  20.006  1.00  0.00    -0.021 A 
HETATM    7  C15 LIG X 999      43.169 131.229  21.410  1.00  0.00     0.278 C 
HETATM    8  C1  LIG X 999      45.690 130.685  18.823  1.00  0.00     0.018 A 
HETATM    9  C18 LIG X 999      45.423 130.406  21.362  1.00  0.00     0.276 C 
HETATM   10  C6  LIG X 999      45.075 131.046  17.610  1.00  0.00    -0.035 A 
HETATM   11  C5  LIG X 999      43.752 131.595  17.620  1.00  0.00    -0.018 A 
HETATM   12  C7  LIG X 999      45.822 130.789  16.317  1.00  0.00     0.081 C 
HETATM   13  C14 LIG X 999      43.144 132.152  16.345  1.00  0.00     0.042 C 
HETATM   14  C13 LIG X 999      43.873 131.760  15.055  1.00  0.00     0.006 C 
HETATM   15  C12 LIG X 999      45.390 131.787  15.238  1.00  0.00     0.020 C 
HETATM   16  N4  LIG X 999      44.309 130.801  22.282  1.00  0.00    -0.067 N 
HETATM   17  C16 LIG X 999      44.739 131.926  23.148  1.00  0.00     0.272 C 
HETATM   18  C17 LIG X 999      43.912 129.661  23.139  1.00  0.00     0.272 C 
BRANCH  12  19
HETATM   19  S1  LIG X 999      45.525 129.073  15.709  1.00  0.00    -0.147 SA
BRANCH  19  20
HETATM   20  C8  LIG X 999      47.192 128.697  15.066  1.00  0.00     0.168 C 
BRANCH  20  21
HETATM   21  C9  LIG X 999      47.530 129.647  14.005  1.00  0.00    -0.097 C 
HETATM   22  C10 LIG X 999      47.789 130.429  13.125  1.00  0.00    -0.110 C 
HETATM   23  C11 LIG X 999      48.085 131.377  12.051  1.00  0.00     0.112 C 
ENDBRANCH  20  21
ENDBRANCH  19  20
ENDBRANCH  12  19
ENDBRANCH   1   4
TORSDOF 4
