REMARK VINA RESULT:      -5.6      0.000      0.000
REMARK  1 active torsions:
REMARK  status: ('A' for Active; 'I' for Inactive)
REMARK    1  A    between atoms: C7_7  and  N1_8 
ROOT
HETATM    1  N1  LIG X 999      47.251 130.697  14.221  1.00  0.00    -0.110 NA
HETATM    2  N2  LIG X 999      47.624 130.910  13.067  1.00  0.00    -0.167 NA
HETATM    3  N3  LIG X 999      47.997 131.122  11.915  1.00  0.00     0.068 N 
ENDROOT
BRANCH   1   4
HETATM    4  C7  LIG X 999      46.125 131.428  14.797  1.00  0.00     0.153 C 
HETATM    5  C6  LIG X 999      44.809 130.866  14.242  1.00  0.00     0.031 C 
HETATM    6  C5  LIG X 999      43.609 131.630  14.812  1.00  0.00     0.003 C 
HETATM    7  C4  LIG X 999      43.592 131.557  16.343  1.00  0.00     0.009 C 
HETATM    8  C3  LIG X 999      44.905 132.091  16.952  1.00  0.00     0.018 C 
HETATM    9  C2  LIG X 999      44.877 131.903  18.451  1.00  0.00    -0.021 C 
HETATM   10  C8  LIG X 999      46.150 131.380  16.347  1.00  0.00     0.043 C 
HETATM   11  C1  LIG X 999      45.323 130.769  19.006  1.00  0.00    -0.004 C 
HETATM   12  C10 LIG X 999      45.943 129.720  18.173  1.00  0.00    -0.004 C 
HETATM   13  C9  LIG X 999      46.279 129.972  16.902  1.00  0.00    -0.019 C 
ENDBRANCH   1   4
TORSDOF 1
