REMARK VINA RESULT:      -6.1      6.032      7.713
REMARK  2 active torsions:
REMARK  status: ('A' for Active; 'I' for Inactive)
REMARK    1  A    between atoms: C2_5  and  C3_6 
REMARK    2  A    between atoms: N3_18  and  C13_19 
ROOT
HETATM    1  H1  LIG X 999      44.118 124.134  24.380  1.00  0.00     0.190 HD
HETATM    2  N1  LIG X 999      44.980 124.381  23.843  1.00  0.00    -0.260 NA
HETATM    3  C1  LIG X 999      45.159 125.581  23.393  1.00  0.00     0.268 A 
HETATM    4  O1  LIG X 999      44.312 126.569  23.576  1.00  0.00    -0.257 OA
HETATM    5  C2  LIG X 999      44.884 127.615  23.014  1.00  0.00     0.177 A 
HETATM    6  N2  LIG X 999      46.073 127.278  22.471  1.00  0.00    -0.269 N 
HETATM    7  H9  LIG X 999      46.722 127.888  21.925  1.00  0.00     0.190 HD
HETATM    8  N3  LIG X 999      46.245 125.987  22.705  1.00  0.00    -0.212 N 
ENDROOT
BRANCH   5   9
HETATM    9  C3  LIG X 999      44.268 128.956  22.943  1.00  0.00     0.028 A 
HETATM   10  C4  LIG X 999      43.345 129.300  23.942  1.00  0.00     0.017 A 
HETATM   11  C5  LIG X 999      42.666 130.516  23.900  1.00  0.00     0.002 A 
HETATM   12  C6  LIG X 999      42.900 131.417  22.863  1.00  0.00     0.012 A 
HETATM   13  C7  LIG X 999      43.843 131.119  21.870  1.00  0.00    -0.025 A 
HETATM   14  C8  LIG X 999      44.097 132.046  20.847  1.00  0.00     0.012 A 
HETATM   15  C12 LIG X 999      44.553 129.888  21.907  1.00  0.00    -0.011 A 
HETATM   16  C9  LIG X 999      45.064 131.778  19.877  1.00  0.00     0.001 A 
HETATM   17  C10 LIG X 999      45.793 130.591  19.927  1.00  0.00     0.001 A 
HETATM   18  C11 LIG X 999      45.551 129.656  20.936  1.00  0.00     0.013 A 
ENDBRANCH   5   9
BRANCH   8  19
HETATM   19  C13 LIG X 999      47.406 125.232  22.316  1.00  0.00     0.105 A 
HETATM   20  C14 LIG X 999      47.300 124.268  21.303  1.00  0.00     0.054 A 
HETATM   21  C15 LIG X 999      48.427 123.533  20.928  1.00  0.00     0.122 A 
HETATM   22  N4  LIG X 999      49.615 123.743  21.552  1.00  0.00    -0.230 NA
HETATM   23  C16 LIG X 999      49.747 124.659  22.548  1.00  0.00     0.251 A 
HETATM   24  F1  LIG X 999      50.947 124.823  23.154  1.00  0.00    -0.181 F 
HETATM   25  C17 LIG X 999      48.645 125.418  22.954  1.00  0.00     0.202 A 
HETATM   26  F2  LIG X 999      48.776 126.285  23.989  1.00  0.00    -0.199 F 
ENDBRANCH   8  19
TORSDOF 2
