REMARK VINA RESULT:      -5.8      7.981      8.983
REMARK  1 active torsions:
REMARK  status: ('A' for Active; 'I' for Inactive)
REMARK    1  A    between atoms: C2_5  and  C3_6 
ROOT
HETATM    1  C3  LIG X 999      50.461 137.381  21.573  1.00  0.00     0.028 A 
HETATM    2  C4  LIG X 999      51.631 137.950  22.098  1.00  0.00     0.017 A 
HETATM    3  C5  LIG X 999      52.276 137.378  23.193  1.00  0.00     0.002 A 
HETATM    4  C6  LIG X 999      51.770 136.220  23.780  1.00  0.00     0.012 A 
HETATM    5  C7  LIG X 999      50.623 135.606  23.257  1.00  0.00    -0.025 A 
HETATM    6  C8  LIG X 999      50.139 134.421  23.835  1.00  0.00     0.012 A 
HETATM    7  C9  LIG X 999      49.024 133.780  23.295  1.00  0.00     0.001 A 
HETATM    8  C10 LIG X 999      48.393 134.305  22.168  1.00  0.00     0.001 A 
HETATM    9  C11 LIG X 999      48.858 135.485  21.584  1.00  0.00     0.013 A 
HETATM   10  C12 LIG X 999      49.963 136.172  22.132  1.00  0.00    -0.011 A 
ENDROOT
BRANCH   1  11
HETATM   11  C2  LIG X 999      49.793 138.094  20.465  1.00  0.00     0.177 A 
HETATM   12  O1  LIG X 999      49.722 137.640  19.230  1.00  0.00    -0.258 OA
HETATM   13  C1  LIG X 999      49.098 138.585  18.563  1.00  0.00     0.260 A 
HETATM   14  N1  LIG X 999      48.822 138.525  17.301  1.00  0.00    -0.261 NA
HETATM   15  N3  LIG X 999      48.784 139.624  19.351  1.00  0.00    -0.262 N 
HETATM   16  H1  LIG X 999      49.092 137.691  16.732  1.00  0.00     0.190 HD
HETATM   17  N2  LIG X 999      49.229 139.318  20.556  1.00  0.00    -0.276 N 
HETATM   18  H10 LIG X 999      48.303 140.514  19.087  1.00  0.00     0.190 HD
HETATM   19  H9  LIG X 999      49.176 139.941  21.392  1.00  0.00     0.189 HD
ENDBRANCH   1  11
TORSDOF 1
