MODEL 1
REMARK VINA RESULT:      -5.4      0.000      0.000
REMARK  5 active torsions:
REMARK  status: ('A' for Active; 'I' for Inactive)
REMARK    1  A    between atoms: O1_2  and  C1_3 
REMARK    2  A    between atoms: C1_3  and  C15_22 
REMARK    3  A    between atoms: N1_4  and  C2_5 
REMARK    4  A    between atoms: C3_6  and  O2_7 
REMARK    5  A    between atoms: O2_7  and  C4_8 
REMARK       I    between atoms: C4_8  and  N2_10 
ROOT
HETATM    1  C2  LIG X 999      44.565 128.043  22.722  1.00  0.00     0.104 A 
HETATM    2  C3  LIG X 999      43.554 127.852  23.687  1.00  0.00     0.110 A 
HETATM    3  C7  LIG X 999      42.697 128.915  24.017  1.00  0.00     0.041 A 
HETATM    4  C8  LIG X 999      42.837 130.156  23.398  1.00  0.00     0.015 A 
HETATM    5  C9  LIG X 999      43.824 130.355  22.425  1.00  0.00    -0.024 A 
HETATM    6  C10 LIG X 999      43.952 131.601  21.791  1.00  0.00     0.012 A 
HETATM    7  C11 LIG X 999      44.931 131.795  20.814  1.00  0.00     0.001 A 
HETATM    8  C12 LIG X 999      45.787 130.751  20.461  1.00  0.00     0.001 A 
HETATM    9  C13 LIG X 999      45.672 129.506  21.083  1.00  0.00     0.014 A 
HETATM   10  C14 LIG X 999      44.691 129.289  22.071  1.00  0.00     0.006 A 
ENDROOT
BRANCH   1  11
HETATM   11  N1  LIG X 999      45.414 126.945  22.347  1.00  0.00    -0.221 NA
HETATM   12  C1  LIG X 999      46.277 126.351  23.122  1.00  0.00     0.176 C 
BRANCH  12  13
HETATM   13  O1  LIG X 999      46.553 126.815  24.411  1.00  0.00    -0.344 OA
HETATM   14  H1  LIG X 999      46.464 127.786  24.680  1.00  0.00     0.219 HD
ENDBRANCH  12  13
BRANCH  12  15
HETATM   15  C15 LIG X 999      47.000 125.174  22.624  1.00  0.00     0.053 A 
HETATM   16  C16 LIG X 999      46.485 123.919  22.348  1.00  0.00     0.156 A 
HETATM   17  N3  LIG X 999      47.478 123.122  21.909  1.00  0.00    -0.185 NA
HETATM   18  N4  LIG X 999      48.595 123.834  21.916  1.00  0.00    -0.285 N 
HETATM   19  C17 LIG X 999      49.881 123.334  21.447  1.00  0.00     0.179 C 
HETATM   20  C18 LIG X 999      48.345 125.088  22.333  1.00  0.00     0.129 A 
ENDBRANCH  12  15
ENDBRANCH   1  11
BRANCH   2  21
HETATM   21  O2  LIG X 999      43.398 126.580  24.257  1.00  0.00    -0.254 OA
BRANCH  21  22
HETATM   22  C4  LIG X 999      42.261 125.767  24.136  1.00  0.00     0.461 C 
HETATM   23  O3  LIG X 999      41.157 126.132  24.625  1.00  0.00    -0.230 OA
HETATM   24  N2  LIG X 999      42.375 124.469  23.523  1.00  0.00     0.009 N 
HETATM   25  H2  LIG X 999      41.433 124.013  23.491  1.00  0.00     0.292 HD
HETATM   26  C5  LIG X 999      43.276 123.620  24.319  1.00  0.00     0.282 C 
HETATM   27  C6  LIG X 999      42.869 124.606  22.145  1.00  0.00     0.282 C 
ENDBRANCH  21  22
ENDBRANCH   2  21
TORSDOF 5
ENDMDL
MODEL 2
REMARK VINA RESULT:      -4.8      2.003      5.632
REMARK  5 active torsions:
REMARK  status: ('A' for Active; 'I' for Inactive)
REMARK    1  A    between atoms: O1_2  and  C1_3 
REMARK    2  A    between atoms: C1_3  and  C15_22 
REMARK    3  A    between atoms: N1_4  and  C2_5 
REMARK    4  A    between atoms: C3_6  and  O2_7 
REMARK    5  A    between atoms: O2_7  and  C4_8 
REMARK       I    between atoms: C4_8  and  N2_10 
ROOT
HETATM    1  C2  LIG X 999      44.320 125.643  23.299  1.00  0.00     0.104 A 
HETATM    2  C3  LIG X 999      43.357 125.039  24.134  1.00  0.00     0.110 A 
HETATM    3  C7  LIG X 999      43.576 123.741  24.623  1.00  0.00     0.041 A 
HETATM    4  C8  LIG X 999      44.737 123.044  24.289  1.00  0.00     0.015 A 
HETATM    5  C9  LIG X 999      45.710 123.639  23.476  1.00  0.00    -0.024 A 
HETATM    6  C10 LIG X 999      46.886 122.943  23.156  1.00  0.00     0.012 A 
HETATM    7  C11 LIG X 999      47.860 123.539  22.352  1.00  0.00     0.001 A 
HETATM    8  C12 LIG X 999      47.670 124.833  21.865  1.00  0.00     0.001 A 
HETATM    9  C13 LIG X 999      46.505 125.539  22.174  1.00  0.00     0.014 A 
HETATM   10  C14 LIG X 999      45.511 124.954  22.984  1.00  0.00     0.006 A 
ENDROOT
BRANCH   1  11
HETATM   11  N1  LIG X 999      44.123 126.990  22.836  1.00  0.00    -0.221 NA
HETATM   12  C1  LIG X 999      44.594 128.065  23.401  1.00  0.00     0.176 C 
BRANCH  12  13
HETATM   13  O1  LIG X 999      45.269 128.022  24.624  1.00  0.00    -0.344 OA
HETATM   14  H1  LIG X 999      46.097 128.571  24.818  1.00  0.00     0.219 HD
ENDBRANCH  12  13
BRANCH  12  15
HETATM   15  C15 LIG X 999      44.394 129.367  22.750  1.00  0.00     0.053 A 
HETATM   16  C16 LIG X 999      43.564 130.397  23.157  1.00  0.00     0.156 A 
HETATM   17  N3  LIG X 999      43.673 131.420  22.287  1.00  0.00    -0.185 NA
HETATM   18  N4  LIG X 999      44.530 131.055  21.345  1.00  0.00    -0.285 N 
HETATM   19  C17 LIG X 999      44.958 131.922  20.256  1.00  0.00     0.179 C 
HETATM   20  C18 LIG X 999      45.000 129.820  21.598  1.00  0.00     0.129 A 
ENDBRANCH  12  15
ENDBRANCH   1  11
BRANCH   2  21
HETATM   21  O2  LIG X 999      42.223 125.779  24.499  1.00  0.00    -0.254 OA
BRANCH  21  22
HETATM   22  C4  LIG X 999      41.191 126.169  23.632  1.00  0.00     0.461 C 
HETATM   23  O3  LIG X 999      41.010 127.387  23.357  1.00  0.00    -0.230 OA
HETATM   24  N2  LIG X 999      40.280 125.180  23.118  1.00  0.00     0.009 N 
HETATM   25  H2  LIG X 999      39.595 125.637  22.471  1.00  0.00     0.292 HD
HETATM   26  C5  LIG X 999      39.531 124.567  24.228  1.00  0.00     0.282 C 
HETATM   27  C6  LIG X 999      41.020 124.159  22.362  1.00  0.00     0.282 C 
ENDBRANCH  21  22
ENDBRANCH   2  21
TORSDOF 5
ENDMDL
MODEL 3
REMARK VINA RESULT:      -4.6      2.243      6.715
REMARK  5 active torsions:
REMARK  status: ('A' for Active; 'I' for Inactive)
REMARK    1  A    between atoms: O1_2  and  C1_3 
REMARK    2  A    between atoms: C1_3  and  C15_22 
REMARK    3  A    between atoms: N1_4  and  C2_5 
REMARK    4  A    between atoms: C3_6  and  O2_7 
REMARK    5  A    between atoms: O2_7  and  C4_8 
REMARK       I    between atoms: C4_8  and  N2_10 
ROOT
HETATM    1  C2  LIG X 999      44.143 125.538  24.315  1.00  0.00     0.104 A 
HETATM    2  C3  LIG X 999      45.349 124.812  24.395  1.00  0.00     0.110 A 
HETATM    3  C7  LIG X 999      45.316 123.409  24.455  1.00  0.00     0.041 A 
HETATM    4  C8  LIG X 999      44.099 122.728  24.435  1.00  0.00     0.015 A 
HETATM    5  C9  LIG X 999      42.894 123.434  24.337  1.00  0.00    -0.024 A 
HETATM    6  C10 LIG X 999      41.671 122.746  24.301  1.00  0.00     0.012 A 
HETATM    7  C11 LIG X 999      40.470 123.451  24.194  1.00  0.00     0.001 A 
HETATM    8  C12 LIG X 999      40.480 124.844  24.121  1.00  0.00     0.001 A 
HETATM    9  C13 LIG X 999      41.688 125.544  24.157  1.00  0.00     0.014 A 
HETATM   10  C14 LIG X 999      42.910 124.851  24.264  1.00  0.00     0.006 A 
ENDROOT
BRANCH   1  11
HETATM   11  N1  LIG X 999      44.174 126.971  24.205  1.00  0.00    -0.221 NA
HETATM   12  C1  LIG X 999      44.471 127.645  23.130  1.00  0.00     0.176 C 
BRANCH  12  13
HETATM   13  O1  LIG X 999      44.916 127.016  21.963  1.00  0.00    -0.344 OA
HETATM   14  H1  LIG X 999      45.115 126.026  21.911  1.00  0.00     0.219 HD
ENDBRANCH  12  13
BRANCH  12  15
HETATM   15  C15 LIG X 999      44.359 129.109  23.145  1.00  0.00     0.053 A 
HETATM   16  C16 LIG X 999      44.563 129.984  22.092  1.00  0.00     0.156 A 
HETATM   17  N3  LIG X 999      44.357 131.245  22.519  1.00  0.00    -0.185 NA
HETATM   18  N4  LIG X 999      44.046 131.185  23.806  1.00  0.00    -0.285 N 
HETATM   19  C17 LIG X 999      43.691 132.345  24.611  1.00  0.00     0.179 C 
HETATM   20  C18 LIG X 999      44.025 129.904  24.220  1.00  0.00     0.129 A 
ENDBRANCH  12  15
ENDBRANCH   1  11
BRANCH   2  21
HETATM   21  O2  LIG X 999      46.562 125.516  24.359  1.00  0.00    -0.254 OA
BRANCH  21  22
HETATM   22  C4  LIG X 999      47.542 125.399  23.362  1.00  0.00     0.461 C 
HETATM   23  O3  LIG X 999      47.228 125.468  22.142  1.00  0.00    -0.230 OA
HETATM   24  N2  LIG X 999      48.904 125.113  23.732  1.00  0.00     0.009 N 
HETATM   25  H2  LIG X 999      49.503 125.086  22.873  1.00  0.00     0.292 HD
HETATM   26  C5  LIG X 999      48.977 123.797  24.389  1.00  0.00     0.282 C 
HETATM   27  C6  LIG X 999      49.416 126.168  24.619  1.00  0.00     0.282 C 
ENDBRANCH  21  22
ENDBRANCH   2  21
TORSDOF 5
ENDMDL
MODEL 4
REMARK VINA RESULT:      -4.1      2.486      7.009
REMARK  5 active torsions:
REMARK  status: ('A' for Active; 'I' for Inactive)
REMARK    1  A    between atoms: O1_2  and  C1_3 
REMARK    2  A    between atoms: C1_3  and  C15_22 
REMARK    3  A    between atoms: N1_4  and  C2_5 
REMARK    4  A    between atoms: C3_6  and  O2_7 
REMARK    5  A    between atoms: O2_7  and  C4_8 
REMARK       I    between atoms: C4_8  and  N2_10 
ROOT
HETATM    1  C2  LIG X 999      44.220 126.005  23.098  1.00  0.00     0.104 A 
HETATM    2  C3  LIG X 999      44.825 127.151  22.544  1.00  0.00     0.110 A 
HETATM    3  C7  LIG X 999      46.148 127.085  22.077  1.00  0.00     0.041 A 
HETATM    4  C8  LIG X 999      46.868 125.893  22.156  1.00  0.00     0.015 A 
HETATM    5  C9  LIG X 999      46.274 124.742  22.687  1.00  0.00    -0.024 A 
HETATM    6  C10 LIG X 999      46.995 123.539  22.751  1.00  0.00     0.012 A 
HETATM    7  C11 LIG X 999      46.400 122.389  23.272  1.00  0.00     0.001 A 
HETATM    8  C12 LIG X 999      45.083 122.428  23.731  1.00  0.00     0.001 A 
HETATM    9  C13 LIG X 999      44.352 123.617  23.675  1.00  0.00     0.014 A 
HETATM   10  C14 LIG X 999      44.935 124.788  23.152  1.00  0.00     0.006 A 
ENDROOT
BRANCH   1  11
HETATM   11  N1  LIG X 999      42.851 126.055  23.534  1.00  0.00    -0.221 NA
HETATM   12  C1  LIG X 999      41.849 125.448  22.964  1.00  0.00     0.176 C 
BRANCH  12  13
HETATM   13  O1  LIG X 999      41.994 124.752  21.760  1.00  0.00    -0.344 OA
HETATM   14  H1  LIG X 999      42.123 125.213  20.868  1.00  0.00     0.219 HD
ENDBRANCH  12  13
BRANCH  12  15
HETATM   15  C15 LIG X 999      40.520 125.512  23.587  1.00  0.00     0.053 A 
HETATM   16  C16 LIG X 999      39.914 126.607  24.176  1.00  0.00     0.156 A 
HETATM   17  N3  LIG X 999      38.695 126.248  24.625  1.00  0.00    -0.185 NA
HETATM   18  N4  LIG X 999      38.530 124.963  24.348  1.00  0.00    -0.285 N 
HETATM   19  C17 LIG X 999      37.306 124.224  24.625  1.00  0.00     0.179 C 
HETATM   20  C18 LIG X 999      39.611 124.483  23.707  1.00  0.00     0.129 A 
ENDBRANCH  12  15
ENDBRANCH   1  11
BRANCH   2  21
HETATM   21  O2  LIG X 999      44.064 128.324  22.425  1.00  0.00    -0.254 OA
BRANCH  21  22
HETATM   22  C4  LIG X 999      44.406 129.574  22.961  1.00  0.00     0.461 C 
HETATM   23  O3  LIG X 999      44.634 129.703  24.195  1.00  0.00    -0.230 OA
HETATM   24  N2  LIG X 999      44.415 130.736  22.110  1.00  0.00     0.009 N 
HETATM   25  H2  LIG X 999      44.716 131.573  22.662  1.00  0.00     0.292 HD
HETATM   26  C5  LIG X 999      43.060 130.985  21.592  1.00  0.00     0.282 C 
HETATM   27  C6  LIG X 999      45.368 130.543  21.006  1.00  0.00     0.282 C 
ENDBRANCH  21  22
ENDBRANCH   2  21
TORSDOF 5
ENDMDL
MODEL 5
REMARK VINA RESULT:      -2.9      4.514      6.835
REMARK  5 active torsions:
REMARK  status: ('A' for Active; 'I' for Inactive)
REMARK    1  A    between atoms: O1_2  and  C1_3 
REMARK    2  A    between atoms: C1_3  and  C15_22 
REMARK    3  A    between atoms: N1_4  and  C2_5 
REMARK    4  A    between atoms: C3_6  and  O2_7 
REMARK    5  A    between atoms: O2_7  and  C4_8 
REMARK       I    between atoms: C4_8  and  N2_10 
ROOT
HETATM    1  C2  LIG X 999      43.941 130.578  21.346  1.00  0.00     0.104 A 
HETATM    2  C3  LIG X 999      43.203 131.714  21.737  1.00  0.00     0.110 A 
HETATM    3  C7  LIG X 999      42.812 131.862  23.078  1.00  0.00     0.041 A 
HETATM    4  C8  LIG X 999      43.148 130.895  24.026  1.00  0.00     0.015 A 
HETATM    5  C9  LIG X 999      43.896 129.771  23.655  1.00  0.00    -0.024 A 
HETATM    6  C10 LIG X 999      44.248 128.807  24.613  1.00  0.00     0.012 A 
HETATM    7  C11 LIG X 999      45.001 127.692  24.244  1.00  0.00     0.001 A 
HETATM    8  C12 LIG X 999      45.411 127.529  22.920  1.00  0.00     0.001 A 
HETATM    9  C13 LIG X 999      45.069 128.478  21.955  1.00  0.00     0.014 A 
HETATM   10  C14 LIG X 999      44.310 129.611  22.307  1.00  0.00     0.006 A 
ENDROOT
BRANCH   1  11
HETATM   11  N1  LIG X 999      44.385 130.445  19.984  1.00  0.00    -0.221 NA
HETATM   12  C1  LIG X 999      45.115 131.307  19.335  1.00  0.00     0.176 C 
BRANCH  12  13
HETATM   13  O1  LIG X 999      45.458 132.546  19.884  1.00  0.00    -0.344 OA
HETATM   14  H1  LIG X 999      44.802 133.310  19.974  1.00  0.00     0.219 HD
ENDBRANCH  12  13
BRANCH  12  15
HETATM   15  C15 LIG X 999      45.576 130.982  17.979  1.00  0.00     0.053 A 
HETATM   16  C16 LIG X 999      46.182 129.815  17.548  1.00  0.00     0.156 A 
HETATM   17  N3  LIG X 999      46.447 129.916  16.231  1.00  0.00    -0.185 NA
HETATM   18  N4  LIG X 999      46.039 131.111  15.832  1.00  0.00    -0.285 N 
HETATM   19  C17 LIG X 999      46.099 131.571  14.451  1.00  0.00     0.179 C 
HETATM   20  C18 LIG X 999      45.494 131.784  16.861  1.00  0.00     0.129 A 
ENDBRANCH  12  15
ENDBRANCH   1  11
BRANCH   2  21
HETATM   21  O2  LIG X 999      42.923 132.699  20.779  1.00  0.00    -0.254 OA
BRANCH  21  22
HETATM   22  C4  LIG X 999      41.657 132.976  20.242  1.00  0.00     0.461 C 
HETATM   23  O3  LIG X 999      40.810 133.637  20.904  1.00  0.00    -0.230 OA
HETATM   24  N2  LIG X 999      41.291 132.429  18.961  1.00  0.00     0.009 N 
HETATM   25  H2  LIG X 999      40.329 132.756  18.703  1.00  0.00     0.292 HD
HETATM   26  C5  LIG X 999      41.279 130.959  19.031  1.00  0.00     0.282 C 
HETATM   27  C6  LIG X 999      42.229 132.895  17.929  1.00  0.00     0.282 C 
ENDBRANCH  21  22
ENDBRANCH   2  21
TORSDOF 5
ENDMDL
MODEL 6
REMARK VINA RESULT:      -2.6      3.793      6.414
REMARK  5 active torsions:
REMARK  status: ('A' for Active; 'I' for Inactive)
REMARK    1  A    between atoms: O1_2  and  C1_3 
REMARK    2  A    between atoms: C1_3  and  C15_22 
REMARK    3  A    between atoms: N1_4  and  C2_5 
REMARK    4  A    between atoms: C3_6  and  O2_7 
REMARK    5  A    between atoms: O2_7  and  C4_8 
REMARK       I    between atoms: C4_8  and  N2_10 
ROOT
HETATM    1  C2  LIG X 999      44.636 129.547  21.858  1.00  0.00     0.104 A 
HETATM    2  C3  LIG X 999      44.101 130.526  22.720  1.00  0.00     0.110 A 
HETATM    3  C7  LIG X 999      44.030 130.276  24.100  1.00  0.00     0.041 A 
HETATM    4  C8  LIG X 999      44.486 129.067  24.625  1.00  0.00     0.015 A 
HETATM    5  C9  LIG X 999      45.038 128.093  23.783  1.00  0.00    -0.024 A 
HETATM    6  C10 LIG X 999      45.512 126.884  24.316  1.00  0.00     0.012 A 
HETATM    7  C11 LIG X 999      46.070 125.917  23.477  1.00  0.00     0.001 A 
HETATM    8  C12 LIG X 999      46.162 126.149  22.104  1.00  0.00     0.001 A 
HETATM    9  C13 LIG X 999      45.694 127.346  21.558  1.00  0.00     0.014 A 
HETATM   10  C14 LIG X 999      45.128 128.335  22.388  1.00  0.00     0.006 A 
ENDROOT
BRANCH   1  11
HETATM   11  N1  LIG X 999      44.754 129.818  20.450  1.00  0.00    -0.221 NA
HETATM   12  C1  LIG X 999      45.560 130.687  19.908  1.00  0.00     0.176 C 
BRANCH  12  13
HETATM   13  O1  LIG X 999      46.338 131.555  20.680  1.00  0.00    -0.344 OA
HETATM   14  H1  LIG X 999      46.214 131.668  21.677  1.00  0.00     0.219 HD
ENDBRANCH  12  13
BRANCH  12  15
HETATM   15  C15 LIG X 999      45.641 130.777  18.445  1.00  0.00     0.053 A 
HETATM   16  C16 LIG X 999      45.111 131.760  17.627  1.00  0.00     0.156 A 
HETATM   17  N3  LIG X 999      45.410 131.476  16.345  1.00  0.00    -0.185 NA
HETATM   18  N4  LIG X 999      46.095 130.342  16.336  1.00  0.00    -0.285 N 
HETATM   19  C17 LIG X 999      46.652 129.739  15.133  1.00  0.00     0.179 C 
HETATM   20  C18 LIG X 999      46.266 129.892  17.593  1.00  0.00     0.129 A 
ENDBRANCH  12  15
ENDBRANCH   1  11
BRANCH   2  21
HETATM   21  O2  LIG X 999      43.697 131.755  22.176  1.00  0.00    -0.254 OA
BRANCH  21  22
HETATM   22  C4  LIG X 999      42.369 132.158  21.973  1.00  0.00     0.461 C 
HETATM   23  O3  LIG X 999      41.548 132.169  22.931  1.00  0.00    -0.230 OA
HETATM   24  N2  LIG X 999      41.918 132.482  20.644  1.00  0.00     0.009 N 
HETATM   25  H2  LIG X 999      40.916 132.787  20.679  1.00  0.00     0.292 HD
HETATM   26  C5  LIG X 999      42.012 131.293  19.782  1.00  0.00     0.282 C 
HETATM   27  C6  LIG X 999      42.719 133.588  20.097  1.00  0.00     0.282 C 
ENDBRANCH  21  22
ENDBRANCH   2  21
TORSDOF 5
ENDMDL
MODEL 7
REMARK VINA RESULT:      -2.6      3.127      5.494
REMARK  5 active torsions:
REMARK  status: ('A' for Active; 'I' for Inactive)
REMARK    1  A    between atoms: O1_2  and  C1_3 
REMARK    2  A    between atoms: C1_3  and  C15_22 
REMARK    3  A    between atoms: N1_4  and  C2_5 
REMARK    4  A    between atoms: C3_6  and  O2_7 
REMARK    5  A    between atoms: O2_7  and  C4_8 
REMARK       I    between atoms: C4_8  and  N2_10 
ROOT
HETATM    1  C2  LIG X 999      44.455 129.633  21.885  1.00  0.00     0.104 A 
HETATM    2  C3  LIG X 999      44.994 128.532  22.581  1.00  0.00     0.110 A 
HETATM    3  C7  LIG X 999      44.720 128.370  23.949  1.00  0.00     0.041 A 
HETATM    4  C8  LIG X 999      43.917 129.289  24.624  1.00  0.00     0.015 A 
HETATM    5  C9  LIG X 999      43.359 130.377  23.942  1.00  0.00    -0.024 A 
HETATM    6  C10 LIG X 999      42.538 131.292  24.619  1.00  0.00     0.012 A 
HETATM    7  C11 LIG X 999      41.975 132.372  23.935  1.00  0.00     0.001 A 
HETATM    8  C12 LIG X 999      42.224 132.546  22.573  1.00  0.00     0.001 A 
HETATM    9  C13 LIG X 999      43.039 131.645  21.885  1.00  0.00     0.014 A 
HETATM   10  C14 LIG X 999      43.617 130.549  22.557  1.00  0.00     0.006 A 
ENDROOT
BRANCH   1  11
HETATM   11  N1  LIG X 999      44.694 129.776  20.475  1.00  0.00    -0.221 NA
HETATM   12  C1  LIG X 999      45.498 130.641  19.924  1.00  0.00     0.176 C 
BRANCH  12  13
HETATM   13  O1  LIG X 999      46.146 131.628  20.672  1.00  0.00    -0.344 OA
HETATM   14  H1  LIG X 999      47.141 131.803  20.610  1.00  0.00     0.219 HD
ENDBRANCH  12  13
BRANCH  12  15
HETATM   15  C15 LIG X 999      45.716 130.598  18.472  1.00  0.00     0.053 A 
HETATM   16  C16 LIG X 999      46.249 129.560  17.727  1.00  0.00     0.156 A 
HETATM   17  N3  LIG X 999      46.277 129.918  16.429  1.00  0.00    -0.185 NA
HETATM   18  N4  LIG X 999      45.792 131.147  16.343  1.00  0.00    -0.285 N 
HETATM   19  C17 LIG X 999      45.602 131.860  15.087  1.00  0.00     0.179 C 
HETATM   20  C18 LIG X 999      45.429 131.591  17.560  1.00  0.00     0.129 A 
ENDBRANCH  12  15
ENDBRANCH   1  11
BRANCH   2  21
HETATM   21  O2  LIG X 999      45.754 127.592  21.870  1.00  0.00    -0.254 OA
BRANCH  21  22
HETATM   22  C4  LIG X 999      45.694 126.200  22.040  1.00  0.00     0.461 C 
HETATM   23  O3  LIG X 999      44.674 125.552  21.676  1.00  0.00    -0.230 OA
HETATM   24  N2  LIG X 999      46.770 125.518  22.712  1.00  0.00     0.009 N 
HETATM   25  H2  LIG X 999      46.576 124.488  22.727  1.00  0.00     0.292 HD
HETATM   26  C5  LIG X 999      46.870 125.992  24.102  1.00  0.00     0.282 C 
HETATM   27  C6  LIG X 999      48.033 125.739  21.993  1.00  0.00     0.282 C 
ENDBRANCH  21  22
ENDBRANCH   2  21
TORSDOF 5
ENDMDL
