REMARK VINA RESULT:      -6.6      2.955      5.058
REMARK  1 active torsions:
REMARK  status: ('A' for Active; 'I' for Inactive)
REMARK    1  A    between atoms: C8_8  and  N1_9 
ROOT
HETATM    1  N1  LIG X 999      43.082 131.899  22.952  1.00  0.00    -0.072 NA
HETATM    2  N2  LIG X 999      42.623 130.953  23.593  1.00  0.00    -0.162 NA
HETATM    3  N3  LIG X 999      42.165 130.009  24.235  1.00  0.00     0.068 N 
ENDROOT
BRANCH   1   4
HETATM    4  C8  LIG X 999      42.931 132.005  21.527  1.00  0.00     0.104 A 
HETATM    5  C7  LIG X 999      41.771 132.603  20.944  1.00  0.00     0.038 A 
HETATM    6  C6  LIG X 999      41.628 132.704  19.540  1.00  0.00     0.033 A 
HETATM    7  C5  LIG X 999      42.654 132.203  18.741  1.00  0.00     0.047 A 
HETATM    8  C4  LIG X 999      43.755 131.635  19.313  1.00  0.00     0.019 A 
HETATM    9  N4  LIG X 999      42.757 132.180  17.317  1.00  0.00    -0.322 N 
HETATM   10  C3  LIG X 999      44.640 131.207  18.372  1.00  0.00     0.045 A 
HETATM   11  C9  LIG X 999      43.948 131.509  20.679  1.00  0.00     0.009 A 
HETATM   12  C2  LIG X 999      45.836 130.596  18.748  1.00  0.00     0.018 A 
HETATM   13  C11 LIG X 999      44.025 131.545  17.090  1.00  0.00     0.257 A 
HETATM   14  C1  LIG X 999      46.086 130.440  20.132  1.00  0.00     0.002 A 
HETATM   15  C10 LIG X 999      45.149 130.893  21.098  1.00  0.00     0.015 A 
HETATM   16  O1  LIG X 999      44.513 131.321  15.952  1.00  0.00    -0.267 OA
HETATM   17  H6  LIG X 999      42.078 132.539  16.611  1.00  0.00     0.169 HD
ENDBRANCH   1   4
TORSDOF 1
