REMARK VINA RESULT:      -8.5      0.000      0.000
REMARK  2 active torsions:
REMARK  status: ('A' for Active; 'I' for Inactive)
REMARK    1  A    between atoms: C1_1  and  N1_14 
REMARK    2  A    between atoms: C2_2  and  C3_4 
ROOT
HETATM    1  C3  LIG X 999      45.922 130.839  15.061  1.00  0.00     0.003 A 
HETATM    2  C4  LIG X 999      44.646 131.281  14.655  1.00  0.00     0.015 A 
HETATM    3  C5  LIG X 999      43.679 131.631  15.600  1.00  0.00     0.013 A 
HETATM    4  C6  LIG X 999      43.961 131.539  16.968  1.00  0.00    -0.026 A 
HETATM    5  C7  LIG X 999      42.995 131.888  17.925  1.00  0.00     0.012 A 
HETATM    6  C8  LIG X 999      43.289 131.789  19.288  1.00  0.00     0.001 A 
HETATM    7  C9  LIG X 999      44.545 131.338  19.705  1.00  0.00     0.001 A 
HETATM    8  C10 LIG X 999      45.515 130.987  18.763  1.00  0.00     0.012 A 
HETATM    9  C11 LIG X 999      45.233 131.083  17.390  1.00  0.00    -0.025 A 
HETATM   10  C12 LIG X 999      46.199 130.733  16.435  1.00  0.00     0.026 A 
ENDROOT
BRANCH   1  11
HETATM   11  C2  LIG X 999      46.963 130.449  14.076  1.00  0.00     0.132 C 
HETATM   12  C1  LIG X 999      47.750 129.378  14.259  1.00  0.00     0.121 C 
HETATM   13  O1  LIG X 999      47.103 131.210  12.919  1.00  0.00    -0.190 OA
BRANCH  12  14
HETATM   14  N1  LIG X 999      48.754 129.014  13.307  1.00  0.00    -0.406 N 
HETATM   15  H9  LIG X 999      49.687 129.480  13.281  1.00  0.00     0.155 HD
HETATM   16  H10 LIG X 999      48.556 128.256  12.618  1.00  0.00     0.155 HD
ENDBRANCH  12  14
ENDBRANCH   1  11
TORSDOF 2
