REMARK VINA RESULT:      -5.3      8.795     10.543
REMARK  1 active torsions:
REMARK  status: ('A' for Active; 'I' for Inactive)
REMARK    1  A    between atoms: C11_13  and  N2_14 
ROOT
HETATM    1  N2  LIG X 999      50.651 133.141  24.439  1.00  0.00    -0.053 NA
HETATM    2  N3  LIG X 999      51.621 132.398  24.290  1.00  0.00    -0.160 NA
HETATM    3  N4  LIG X 999      52.587 131.649  24.152  1.00  0.00     0.068 N 
ENDROOT
BRANCH   1   4
HETATM    4  C11 LIG X 999      50.376 134.239  23.561  1.00  0.00     0.175 A 
HETATM    5  C10 LIG X 999      51.144 135.393  23.371  1.00  0.00     0.026 A 
HETATM    6  C5  LIG X 999      50.460 136.113  22.446  1.00  0.00     0.017 A 
HETATM    7  C9  LIG X 999      52.345 135.890  23.892  1.00  0.00     0.016 A 
HETATM    8  C4  LIG X 999      49.340 135.443  22.088  1.00  0.00     0.046 A 
HETATM    9  C6  LIG X 999      50.852 137.337  21.952  1.00  0.00     0.005 A 
HETATM   10  C3  LIG X 999      48.411 136.005  21.092  1.00  0.00     0.033 A 
HETATM   11  N5  LIG X 999      49.269 134.279  22.768  1.00  0.00    -0.337 N 
HETATM   12  C2  LIG X 999      48.706 137.208  20.545  1.00  0.00     0.034 A 
HETATM   13  C1  LIG X 999      49.952 137.953  20.941  1.00  0.00     0.059 A 
HETATM   14  N1  LIG X 999      50.236 139.103  20.418  1.00  0.00    -0.300 NA
HETATM   15  H1  LIG X 999      49.615 139.552  19.707  1.00  0.00     0.187 HD
HETATM   16  H7  LIG X 999      48.518 133.557  22.699  1.00  0.00     0.167 HD
HETATM   17  C7  LIG X 999      52.056 137.874  22.451  1.00  0.00     0.015 A 
HETATM   18  C8  LIG X 999      52.798 137.146  23.420  1.00  0.00     0.002 A 
ENDBRANCH   1   4
TORSDOF 1
