MODEL 1
REMARK VINA RESULT:      -7.2      0.000      0.000
REMARK  4 active torsions:
REMARK  status: ('A' for Active; 'I' for Inactive)
REMARK    1  A    between atoms: C2_2  and  N1_3 
REMARK    2  A    between atoms: C3_6  and  O1_7 
REMARK    3  A    between atoms: O1_7  and  C4_8 
REMARK    4  A    between atoms: C4_8  and  C5_9 
ROOT
HETATM    1  N1  LIG X 999      44.927 131.591  15.259  1.00  0.00    -0.070 NA
HETATM    2  N2  LIG X 999      43.863 131.634  14.639  1.00  0.00    -0.162 NA
HETATM    3  N3  LIG X 999      42.801 131.676  14.020  1.00  0.00     0.068 N 
ENDROOT
BRANCH   1   4
HETATM    4  C2  LIG X 999      44.991 131.305  16.663  1.00  0.00     0.127 A 
HETATM    5  C1  LIG X 999      44.025 131.807  17.556  1.00  0.00     0.049 A 
HETATM    6  C14 LIG X 999      44.103 131.519  18.924  1.00  0.00    -0.023 A 
HETATM    7  C9  LIG X 999      45.167 130.712  19.412  1.00  0.00    -0.022 A 
HETATM    8  C13 LIG X 999      43.139 132.024  19.819  1.00  0.00     0.021 A 
HETATM    9  C8  LIG X 999      46.125 130.214  18.520  1.00  0.00     0.051 A 
HETATM   10  C10 LIG X 999      45.251 130.423  20.789  1.00  0.00     0.021 A 
HETATM   11  C3  LIG X 999      46.044 130.509  17.144  1.00  0.00     0.102 A 
HETATM   12  C11 LIG X 999      44.272 130.937  21.641  1.00  0.00    -0.024 A 
HETATM   13  C12 LIG X 999      43.254 131.709  21.173  1.00  0.00    -0.024 A 
HETATM   14  C18 LIG X 999      44.175 130.782  23.108  1.00  0.00     0.276 C 
HETATM   15  C15 LIG X 999      42.379 132.143  22.284  1.00  0.00     0.276 C 
HETATM   16  N4  LIG X 999      42.876 131.417  23.496  1.00  0.00    -0.067 N 
HETATM   17  C16 LIG X 999      43.069 132.356  24.625  1.00  0.00     0.272 C 
HETATM   18  C17 LIG X 999      41.901 130.375  23.897  1.00  0.00     0.272 C 
BRANCH  11  19
HETATM   19  O1  LIG X 999      46.991 130.029  16.220  1.00  0.00    -0.337 OA
BRANCH  19  20
HETATM   20  C4  LIG X 999      46.695 129.286  15.039  1.00  0.00     0.269 C 
BRANCH  20  21
HETATM   21  C5  LIG X 999      47.189 129.993  13.853  1.00  0.00    -0.080 C 
HETATM   22  C6  LIG X 999      47.590 130.579  12.879  1.00  0.00    -0.109 C 
HETATM   23  C7  LIG X 999      48.074 131.293  11.697  1.00  0.00     0.112 C 
ENDBRANCH  20  21
ENDBRANCH  19  20
ENDBRANCH  11  19
ENDBRANCH   1   4
TORSDOF 4
ENDMDL
MODEL 2
REMARK VINA RESULT:      -6.2      2.680      8.102
REMARK  4 active torsions:
REMARK  status: ('A' for Active; 'I' for Inactive)
REMARK    1  A    between atoms: C2_2  and  N1_3 
REMARK    2  A    between atoms: C3_6  and  O1_7 
REMARK    3  A    between atoms: O1_7  and  C4_8 
REMARK    4  A    between atoms: C4_8  and  C5_9 
ROOT
HETATM    1  N1  LIG X 999      44.600 129.655  24.215  1.00  0.00    -0.070 NA
HETATM    2  N2  LIG X 999      44.922 128.479  24.393  1.00  0.00    -0.162 NA
HETATM    3  N3  LIG X 999      45.242 127.305  24.572  1.00  0.00     0.068 N 
ENDROOT
BRANCH   1   4
HETATM    4  C2  LIG X 999      44.386 130.206  22.908  1.00  0.00     0.127 A 
HETATM    5  C1  LIG X 999      45.176 129.813  21.811  1.00  0.00     0.049 A 
HETATM    6  C14 LIG X 999      44.955 130.362  20.541  1.00  0.00    -0.023 A 
HETATM    7  C9  LIG X 999      43.923 131.324  20.363  1.00  0.00    -0.022 A 
HETATM    8  C13 LIG X 999      45.747 129.972  19.444  1.00  0.00     0.021 A 
HETATM    9  C8  LIG X 999      43.139 131.711  21.458  1.00  0.00     0.051 A 
HETATM   10  C10 LIG X 999      43.699 131.881  19.088  1.00  0.00     0.021 A 
HETATM   11  C3  LIG X 999      43.367 131.158  22.733  1.00  0.00     0.102 A 
HETATM   12  C11 LIG X 999      44.501 131.463  18.025  1.00  0.00    -0.024 A 
HETATM   13  C12 LIG X 999      45.489 130.543  18.197  1.00  0.00    -0.024 A 
HETATM   14  C18 LIG X 999      44.460 131.925  16.622  1.00  0.00     0.276 C 
HETATM   15  C15 LIG X 999      46.201 130.302  16.923  1.00  0.00     0.276 C 
HETATM   16  N4  LIG X 999      45.438 131.064  15.884  1.00  0.00    -0.067 N 
HETATM   17  C16 LIG X 999      46.353 131.894  15.068  1.00  0.00     0.272 C 
HETATM   18  C17 LIG X 999      44.716 130.124  14.994  1.00  0.00     0.272 C 
BRANCH  11  19
HETATM   19  O1  LIG X 999      42.603 131.527  23.856  1.00  0.00    -0.337 OA
BRANCH  19  20
HETATM   20  C4  LIG X 999      42.740 132.741  24.591  1.00  0.00     0.269 C 
BRANCH  20  21
HETATM   21  C5  LIG X 999      44.140 133.178  24.602  1.00  0.00    -0.080 C 
HETATM   22  C6  LIG X 999      45.293 133.530  24.612  1.00  0.00    -0.109 C 
HETATM   23  C7  LIG X 999      46.693 133.954  24.625  1.00  0.00     0.112 C 
ENDBRANCH  20  21
ENDBRANCH  19  20
ENDBRANCH  11  19
ENDBRANCH   1   4
TORSDOF 4
ENDMDL
MODEL 3
REMARK VINA RESULT:      -6.1      6.937      9.840
REMARK  4 active torsions:
REMARK  status: ('A' for Active; 'I' for Inactive)
REMARK    1  A    between atoms: C2_2  and  N1_3 
REMARK    2  A    between atoms: C3_6  and  O1_7 
REMARK    3  A    between atoms: O1_7  and  C4_8 
REMARK    4  A    between atoms: C4_8  and  C5_9 
ROOT
HETATM    1  N1  LIG X 999      41.989 129.591  24.237  1.00  0.00    -0.070 NA
HETATM    2  N2  LIG X 999      42.390 130.655  23.764  1.00  0.00    -0.162 NA
HETATM    3  N3  LIG X 999      42.791 131.719  23.293  1.00  0.00     0.068 N 
ENDROOT
BRANCH   1   4
HETATM    4  C2  LIG X 999      42.550 128.323  23.868  1.00  0.00     0.127 A 
HETATM    5  C1  LIG X 999      43.900 128.204  23.487  1.00  0.00     0.049 A 
HETATM    6  C14 LIG X 999      44.432 126.959  23.129  1.00  0.00    -0.023 A 
HETATM    7  C9  LIG X 999      43.597 125.808  23.151  1.00  0.00    -0.022 A 
HETATM    8  C13 LIG X 999      45.781 126.840  22.744  1.00  0.00     0.021 A 
HETATM    9  C8  LIG X 999      42.255 125.931  23.531  1.00  0.00     0.051 A 
HETATM   10  C10 LIG X 999      44.127 124.553  22.787  1.00  0.00     0.021 A 
HETATM   11  C3  LIG X 999      41.724 127.186  23.888  1.00  0.00     0.102 A 
HETATM   12  C11 LIG X 999      45.472 124.476  22.419  1.00  0.00    -0.024 A 
HETATM   13  C12 LIG X 999      46.269 125.579  22.398  1.00  0.00    -0.024 A 
HETATM   14  C18 LIG X 999      46.225 123.282  21.983  1.00  0.00     0.276 C 
HETATM   15  C15 LIG X 999      47.632 125.225  21.947  1.00  0.00     0.276 C 
HETATM   16  N4  LIG X 999      47.646 123.732  21.838  1.00  0.00    -0.067 N 
HETATM   17  C16 LIG X 999      48.198 123.308  20.531  1.00  0.00     0.272 C 
HETATM   18  C17 LIG X 999      48.475 123.152  22.921  1.00  0.00     0.272 C 
BRANCH  11  19
HETATM   19  O1  LIG X 999      40.380 127.348  24.270  1.00  0.00    -0.337 OA
BRANCH  19  20
HETATM   20  C4  LIG X 999      39.248 126.862  23.552  1.00  0.00     0.269 C 
BRANCH  20  21
HETATM   21  C5  LIG X 999      38.951 125.479  23.939  1.00  0.00    -0.080 C 
HETATM   22  C6  LIG X 999      38.705 124.341  24.251  1.00  0.00    -0.109 C 
HETATM   23  C7  LIG X 999      38.407 122.959  24.625  1.00  0.00     0.112 C 
ENDBRANCH  20  21
ENDBRANCH  19  20
ENDBRANCH  11  19
ENDBRANCH   1   4
TORSDOF 4
ENDMDL
MODEL 4
REMARK VINA RESULT:      -6.1      2.601      7.597
REMARK  4 active torsions:
REMARK  status: ('A' for Active; 'I' for Inactive)
REMARK    1  A    between atoms: C2_2  and  N1_3 
REMARK    2  A    between atoms: C3_6  and  O1_7 
REMARK    3  A    between atoms: O1_7  and  C4_8 
REMARK    4  A    between atoms: C4_8  and  C5_9 
ROOT
HETATM    1  N1  LIG X 999      42.369 131.436  23.605  1.00  0.00    -0.070 NA
HETATM    2  N2  LIG X 999      41.641 130.583  24.116  1.00  0.00    -0.162 NA
HETATM    3  N3  LIG X 999      40.912 129.732  24.625  1.00  0.00     0.068 N 
ENDROOT
BRANCH   1   4
HETATM    4  C2  LIG X 999      43.216 131.154  22.482  1.00  0.00     0.127 A 
HETATM    5  C1  LIG X 999      42.881 131.591  21.186  1.00  0.00     0.049 A 
HETATM    6  C14 LIG X 999      43.718 131.307  20.100  1.00  0.00    -0.023 A 
HETATM    7  C9  LIG X 999      44.916 130.570  20.312  1.00  0.00    -0.022 A 
HETATM    8  C13 LIG X 999      43.383 131.741  18.804  1.00  0.00     0.021 A 
HETATM    9  C8  LIG X 999      45.245 130.138  21.603  1.00  0.00     0.051 A 
HETATM   10  C10 LIG X 999      45.760 130.278  19.222  1.00  0.00     0.021 A 
HETATM   11  C3  LIG X 999      44.398 130.424  22.692  1.00  0.00     0.102 A 
HETATM   12  C11 LIG X 999      45.395 130.732  17.953  1.00  0.00    -0.024 A 
HETATM   13  C12 LIG X 999      44.248 131.438  17.752  1.00  0.00    -0.024 A 
HETATM   14  C18 LIG X 999      46.109 130.526  16.676  1.00  0.00     0.276 C 
HETATM   15  C15 LIG X 999      44.088 131.769  16.320  1.00  0.00     0.276 C 
HETATM   16  N4  LIG X 999      45.357 131.327  15.659  1.00  0.00    -0.067 N 
HETATM   17  C16 LIG X 999      45.064 130.508  14.460  1.00  0.00     0.272 C 
HETATM   18  C17 LIG X 999      46.155 132.508  15.252  1.00  0.00     0.272 C 
BRANCH  11  19
HETATM   19  O1  LIG X 999      44.695 130.002  24.001  1.00  0.00    -0.337 OA
BRANCH  19  20
HETATM   20  C4  LIG X 999      44.370 128.729  24.557  1.00  0.00     0.269 C 
BRANCH  20  21
HETATM   21  C5  LIG X 999      45.055 127.660  23.822  1.00  0.00    -0.080 C 
HETATM   22  C6  LIG X 999      45.617 126.785  23.213  1.00  0.00    -0.109 C 
HETATM   23  C7  LIG X 999      46.299 125.725  22.470  1.00  0.00     0.112 C 
ENDBRANCH  20  21
ENDBRANCH  19  20
ENDBRANCH  11  19
ENDBRANCH   1   4
TORSDOF 4
ENDMDL
MODEL 5
REMARK VINA RESULT:      -5.3      2.427      7.730
REMARK  4 active torsions:
REMARK  status: ('A' for Active; 'I' for Inactive)
REMARK    1  A    between atoms: C2_2  and  N1_3 
REMARK    2  A    between atoms: C3_6  and  O1_7 
REMARK    3  A    between atoms: O1_7  and  C4_8 
REMARK    4  A    between atoms: C4_8  and  C5_9 
ROOT
HETATM    1  N1  LIG X 999      41.867 132.321  22.919  1.00  0.00    -0.070 NA
HETATM    2  N2  LIG X 999      40.903 133.026  22.616  1.00  0.00    -0.162 NA
HETATM    3  N3  LIG X 999      39.941 133.731  22.315  1.00  0.00     0.068 N 
ENDROOT
BRANCH   1   4
HETATM    4  C2  LIG X 999      42.822 131.863  21.950  1.00  0.00     0.127 A 
HETATM    5  C1  LIG X 999      42.626 132.078  20.573  1.00  0.00     0.049 A 
HETATM    6  C14 LIG X 999      43.567 131.623  19.641  1.00  0.00    -0.023 A 
HETATM    7  C9  LIG X 999      44.730 130.941  20.094  1.00  0.00    -0.022 A 
HETATM    8  C13 LIG X 999      43.371 131.834  18.263  1.00  0.00     0.021 A 
HETATM    9  C8  LIG X 999      44.921 130.731  21.465  1.00  0.00     0.051 A 
HETATM   10  C10 LIG X 999      45.678 130.479  19.159  1.00  0.00     0.021 A 
HETATM   11  C3  LIG X 999      43.969 131.187  22.399  1.00  0.00     0.102 A 
HETATM   12  C11 LIG X 999      45.449 130.714  17.802  1.00  0.00    -0.024 A 
HETATM   13  C12 LIG X 999      44.336 131.367  17.370  1.00  0.00    -0.024 A 
HETATM   14  C18 LIG X 999      46.289 130.304  16.657  1.00  0.00     0.276 C 
HETATM   15  C15 LIG X 999      44.327 131.456  15.894  1.00  0.00     0.276 C 
HETATM   16  N4  LIG X 999      45.653 130.919  15.449  1.00  0.00    -0.067 N 
HETATM   17  C16 LIG X 999      45.476 129.911  14.379  1.00  0.00     0.272 C 
HETATM   18  C17 LIG X 999      46.500 132.023  14.937  1.00  0.00     0.272 C 
BRANCH  11  19
HETATM   19  O1  LIG X 999      44.126 130.990  23.783  1.00  0.00    -0.337 OA
BRANCH  19  20
HETATM   20  C4  LIG X 999      44.520 129.770  24.409  1.00  0.00     0.269 C 
BRANCH  20  21
HETATM   21  C5  LIG X 999      43.521 128.724  24.167  1.00  0.00    -0.080 C 
HETATM   22  C6  LIG X 999      42.703 127.863  23.962  1.00  0.00    -0.109 C 
HETATM   23  C7  LIG X 999      41.711 126.817  23.710  1.00  0.00     0.112 C 
ENDBRANCH  20  21
ENDBRANCH  19  20
ENDBRANCH  11  19
ENDBRANCH   1   4
TORSDOF 4
ENDMDL
