REMARK VINA RESULT:      -4.1      3.110      5.110
REMARK  6 active torsions:
REMARK  status: ('A' for Active; 'I' for Inactive)
REMARK    1  A    between atoms: S1_2  and  C1_3 
REMARK    2  A    between atoms: C1_3  and  N2_14 
REMARK    3  A    between atoms: N1_4  and  C2_5 
REMARK    4  A    between atoms: C3_6  and  C4_7 
REMARK    5  A    between atoms: C4_7  and  O2_9 
REMARK    6  A    between atoms: N2_14  and  C8_16 
ROOT
HETATM    1  C1  LIG X 999      45.110 130.968  19.694  1.00  0.00     0.164 C 
HETATM    2  N1  LIG X 999      44.491 131.387  20.760  1.00  0.00    -0.224 NA
ENDROOT
BRANCH   1   3
HETATM    3  S1  LIG X 999      46.784 130.367  19.855  1.00  0.00    -0.105 SA
HETATM    4  H1  LIG X 999      47.180 131.515  20.566  1.00  0.00     0.110 HD
ENDBRANCH   1   3
BRANCH   1   5
HETATM    5  N2  LIG X 999      44.488 130.949  18.400  1.00  0.00    -0.336 N 
HETATM    6  H7  LIG X 999      43.443 130.935  18.368  1.00  0.00     0.168 HD
BRANCH   5   7
HETATM    7  C8  LIG X 999      45.207 131.101  17.163  1.00  0.00     0.034 A 
HETATM    8  C9  LIG X 999      45.246 132.333  16.485  1.00  0.00     0.030 A 
HETATM    9  C10 LIG X 999      45.970 132.468  15.297  1.00  0.00     0.014 A 
HETATM   10  C11 LIG X 999      46.655 131.370  14.761  1.00  0.00    -0.026 A 
HETATM   11  C12 LIG X 999      47.389 131.494  13.571  1.00  0.00     0.012 A 
HETATM   12  C16 LIG X 999      46.605 130.120  15.425  1.00  0.00    -0.024 A 
HETATM   13  C13 LIG X 999      48.066 130.391  13.045  1.00  0.00     0.001 A 
HETATM   14  C14 LIG X 999      48.017 129.157  13.701  1.00  0.00     0.001 A 
HETATM   15  C15 LIG X 999      47.290 129.020  14.886  1.00  0.00     0.012 A 
HETATM   16  C17 LIG X 999      45.875 129.995  16.616  1.00  0.00     0.041 A 
ENDBRANCH   5   7
ENDBRANCH   1   5
BRANCH   2  17
HETATM   17  C2  LIG X 999      43.200 132.014  20.802  1.00  0.00     0.083 A 
HETATM   18  C3  LIG X 999      42.473 132.164  21.982  1.00  0.00     0.108 A 
HETATM   19  S2  LIG X 999      41.050 132.984  21.616  1.00  0.00    -0.093 SA
HETATM   20  C6  LIG X 999      41.350 133.178  19.973  1.00  0.00     0.053 A 
HETATM   21  C7  LIG X 999      42.578 132.600  19.685  1.00  0.00     0.040 A 
BRANCH  18  22
HETATM   22  C4  LIG X 999      42.837 131.662  23.316  1.00  0.00     0.302 C 
HETATM   23  O1  LIG X 999      43.575 132.358  24.064  1.00  0.00    -0.259 OA
BRANCH  22  24
HETATM   24  O2  LIG X 999      42.359 130.422  23.750  1.00  0.00    -0.322 OA
HETATM   25  C5  LIG X 999      43.077 129.211  23.556  1.00  0.00     0.213 C 
ENDBRANCH  22  24
ENDBRANCH  18  22
ENDBRANCH   2  17
TORSDOF 6
