MODEL 1
REMARK VINA RESULT:      -7.4      0.000      0.000
REMARK  1 active torsions:
REMARK  status: ('A' for Active; 'I' for Inactive)
REMARK    1  A    between atoms: C7_7  and  N1_8 
ROOT
HETATM    1  N1  LIG X 999      45.465 131.711  17.557  1.00  0.00    -0.110 NA
HETATM    2  N2  LIG X 999      44.839 131.764  18.616  1.00  0.00    -0.167 NA
HETATM    3  N3  LIG X 999      44.216 131.815  19.675  1.00  0.00     0.068 N 
ENDROOT
BRANCH   1   4
HETATM    4  C7  LIG X 999      45.499 130.488  16.757  1.00  0.00     0.153 C 
HETATM    5  C6  LIG X 999      44.143 130.290  16.059  1.00  0.00     0.031 C 
HETATM    6  C5  LIG X 999      43.887 131.373  15.005  1.00  0.00     0.003 C 
HETATM    7  C4  LIG X 999      45.004 131.392  13.959  1.00  0.00     0.009 C 
HETATM    8  C3  LIG X 999      46.384 131.608  14.613  1.00  0.00     0.018 C 
HETATM    9  C2  LIG X 999      47.459 131.525  13.552  1.00  0.00    -0.021 C 
HETATM   10  C8  LIG X 999      46.660 130.568  15.736  1.00  0.00     0.043 C 
HETATM   11  C1  LIG X 999      48.025 130.351  13.244  1.00  0.00    -0.004 C 
HETATM   12  C10 LIG X 999      47.688 129.132  14.004  1.00  0.00    -0.004 C 
HETATM   13  C9  LIG X 999      46.993 129.214  15.144  1.00  0.00    -0.019 C 
ENDBRANCH   1   4
TORSDOF 1
ENDMDL
MODEL 2
REMARK VINA RESULT:      -7.2      1.661      2.757
REMARK  1 active torsions:
REMARK  status: ('A' for Active; 'I' for Inactive)
REMARK    1  A    between atoms: C7_7  and  N1_8 
ROOT
HETATM    1  N1  LIG X 999      43.069 131.489  17.345  1.00  0.00    -0.110 NA
HETATM    2  N2  LIG X 999      42.379 131.983  18.239  1.00  0.00    -0.167 NA
HETATM    3  N3  LIG X 999      41.691 132.477  19.129  1.00  0.00     0.068 N 
ENDROOT
BRANCH   1   4
HETATM    4  C7  LIG X 999      44.387 132.029  17.019  1.00  0.00     0.153 C 
HETATM    5  C6  LIG X 999      45.328 131.854  18.222  1.00  0.00     0.031 C 
HETATM    6  C5  LIG X 999      45.629 130.376  18.494  1.00  0.00     0.003 C 
HETATM    7  C4  LIG X 999      46.244 129.708  17.261  1.00  0.00     0.009 C 
HETATM    8  C3  LIG X 999      45.323 129.842  16.031  1.00  0.00     0.018 C 
HETATM    9  C2  LIG X 999      46.015 129.252  14.821  1.00  0.00    -0.021 C 
HETATM   10  C8  LIG X 999      44.938 131.324  15.756  1.00  0.00     0.043 C 
HETATM   11  C1  LIG X 999      46.804 130.010  14.049  1.00  0.00    -0.004 C 
HETATM   12  C10 LIG X 999      46.933 131.458  14.299  1.00  0.00    -0.004 C 
HETATM   13  C9  LIG X 999      46.103 132.078  15.146  1.00  0.00    -0.019 C 
ENDBRANCH   1   4
TORSDOF 1
ENDMDL
MODEL 3
REMARK VINA RESULT:      -6.8      2.689      4.817
REMARK  1 active torsions:
REMARK  status: ('A' for Active; 'I' for Inactive)
REMARK    1  A    between atoms: C7_7  and  N1_8 
ROOT
HETATM    1  N1  LIG X 999      46.568 131.945  14.774  1.00  0.00    -0.110 NA
HETATM    2  N2  LIG X 999      47.152 131.489  13.790  1.00  0.00    -0.167 NA
HETATM    3  N3  LIG X 999      47.734 131.034  12.807  1.00  0.00     0.068 N 
ENDROOT
BRANCH   1   4
HETATM    4  C7  LIG X 999      45.222 131.500  15.131  1.00  0.00     0.153 C 
HETATM    5  C6  LIG X 999      45.105 129.983  14.907  1.00  0.00     0.031 C 
HETATM    6  C5  LIG X 999      45.987 129.198  15.884  1.00  0.00     0.003 C 
HETATM    7  C4  LIG X 999      45.628 129.532  17.334  1.00  0.00     0.009 C 
HETATM    8  C3  LIG X 999      45.751 131.044  17.610  1.00  0.00     0.018 C 
HETATM    9  C2  LIG X 999      45.297 131.334  19.024  1.00  0.00    -0.021 C 
HETATM   10  C8  LIG X 999      44.921 131.886  16.599  1.00  0.00     0.043 C 
HETATM   11  C1  LIG X 999      44.012 131.606  19.286  1.00  0.00    -0.004 C 
HETATM   12  C10 LIG X 999      43.033 131.732  18.189  1.00  0.00    -0.004 C 
HETATM   13  C9  LIG X 999      43.442 131.802  16.918  1.00  0.00    -0.019 C 
ENDBRANCH   1   4
TORSDOF 1
ENDMDL
MODEL 4
REMARK VINA RESULT:      -4.7      2.228      3.239
REMARK  1 active torsions:
REMARK  status: ('A' for Active; 'I' for Inactive)
REMARK    1  A    between atoms: C7_7  and  N1_8 
ROOT
HETATM    1  N1  LIG X 999      43.725 131.524  15.174  1.00  0.00    -0.110 NA
HETATM    2  N2  LIG X 999      43.032 131.512  14.156  1.00  0.00    -0.167 NA
HETATM    3  N3  LIG X 999      42.342 131.499  13.138  1.00  0.00     0.068 N 
ENDROOT
BRANCH   1   4
HETATM    4  C7  LIG X 999      45.106 132.003  15.146  1.00  0.00     0.153 C 
HETATM    5  C6  LIG X 999      45.640 132.118  16.584  1.00  0.00     0.031 C 
HETATM    6  C5  LIG X 999      45.776 130.744  17.248  1.00  0.00     0.003 C 
HETATM    7  C4  LIG X 999      46.693 129.830  16.431  1.00  0.00     0.009 C 
HETATM    8  C3  LIG X 999      46.184 129.670  14.984  1.00  0.00     0.018 C 
HETATM    9  C2  LIG X 999      47.172 128.838  14.195  1.00  0.00    -0.021 C 
HETATM   10  C8  LIG X 999      45.970 131.046  14.291  1.00  0.00     0.043 C 
HETATM   11  C1  LIG X 999      48.190 129.420  13.548  1.00  0.00    -0.004 C 
HETATM   12  C10 LIG X 999      48.309 130.890  13.502  1.00  0.00    -0.004 C 
HETATM   13  C9  LIG X 999      47.298 131.666  13.907  1.00  0.00    -0.019 C 
ENDBRANCH   1   4
TORSDOF 1
ENDMDL
