REMARK VINA RESULT:      -9.1      1.505      2.377
REMARK  3 active torsions:
REMARK  status: ('A' for Active; 'I' for Inactive)
REMARK    1  A    between atoms: C3_3  and  S1_4 
REMARK    2  A    between atoms: S1_4  and  C4_7 
REMARK    3  A    between atoms: C13_16  and  N1_17 
ROOT
HETATM    1  C1  LIG X 999      48.316 129.671  13.513  1.00  0.00     0.013 C 
HETATM    2  C2  LIG X 999      47.366 129.605  14.252  1.00  0.00    -0.102 C 
HETATM    3  C3  LIG X 999      46.212 129.530  15.152  1.00  0.00     0.238 C 
ENDROOT
BRANCH   3   4
HETATM    4  S1  LIG X 999      45.461 131.136  15.319  1.00  0.00     0.185 S 
HETATM    5  O1  LIG X 999      46.508 132.204  15.165  1.00  0.00    -0.222 OA
HETATM    6  O2  LIG X 999      44.428 131.320  14.242  1.00  0.00    -0.222 OA
BRANCH   4   7
HETATM    7  C4  LIG X 999      44.691 131.273  16.898  1.00  0.00     0.060 A 
HETATM    8  C5  LIG X 999      43.353 131.668  16.999  1.00  0.00     0.024 A 
HETATM    9  C6  LIG X 999      42.753 131.804  18.251  1.00  0.00     0.011 A 
HETATM   10  C7  LIG X 999      43.485 131.568  19.429  1.00  0.00    -0.019 A 
HETATM   11  C8  LIG X 999      44.828 131.128  19.326  1.00  0.00    -0.048 A 
HETATM   12  C13 LIG X 999      42.781 131.664  20.775  1.00  0.00     0.251 C 
HETATM   13  C9  LIG X 999      45.425 131.013  18.060  1.00  0.00     0.031 A 
HETATM   14  C10 LIG X 999      45.672 130.863  20.550  1.00  0.00     0.039 C 
HETATM   15  C11 LIG X 999      44.822 130.572  21.787  1.00  0.00     0.007 C 
HETATM   16  C12 LIG X 999      43.765 131.660  21.963  1.00  0.00     0.040 C 
BRANCH  12  17
HETATM   17  N1  LIG X 999      41.931 132.856  20.825  1.00  0.00     0.087 N 
HETATM   18  H14 LIG X 999      41.347 132.904  19.957  1.00  0.00     0.313 HD
HETATM   19  H15 LIG X 999      42.541 133.707  20.842  1.00  0.00     0.313 HD
ENDBRANCH  12  17
ENDBRANCH   4   7
ENDBRANCH   3   4
TORSDOF 3
