REMARK VINA RESULT:      -3.9      2.503      7.606
REMARK  3 active torsions:
REMARK  status: ('A' for Active; 'I' for Inactive)
REMARK    1  A    between atoms: C2_2  and  N1_3 
REMARK    2  A    between atoms: C3_6  and  O1_7 
REMARK    3  A    between atoms: O1_7  and  C4_8 
REMARK       I    between atoms: C4_8  and  N4_10 
ROOT
HETATM    1  N1  LIG X 999      41.292 132.382  19.374  1.00  0.00    -0.070 NA
HETATM    2  N2  LIG X 999      41.123 133.086  20.371  1.00  0.00    -0.162 NA
HETATM    3  N3  LIG X 999      40.946 133.792  21.363  1.00  0.00     0.068 N 
ENDROOT
BRANCH   1   4
HETATM    4  C2  LIG X 999      42.582 131.941  18.922  1.00  0.00     0.128 A 
HETATM    5  C1  LIG X 999      42.780 131.843  17.538  1.00  0.00     0.049 A 
HETATM    6  C13 LIG X 999      44.012 131.433  17.014  1.00  0.00    -0.023 A 
HETATM    7  C8  LIG X 999      45.074 131.101  17.896  1.00  0.00    -0.022 A 
HETATM    8  C12 LIG X 999      44.203 131.340  15.621  1.00  0.00     0.021 A 
HETATM    9  C7  LIG X 999      44.876 131.190  19.280  1.00  0.00     0.052 A 
HETATM   10  C9  LIG X 999      46.312 130.676  17.374  1.00  0.00     0.021 A 
HETATM   11  C3  LIG X 999      43.641 131.617  19.805  1.00  0.00     0.113 A 
HETATM   12  C10 LIG X 999      46.463 130.604  15.989  1.00  0.00    -0.024 A 
HETATM   13  C11 LIG X 999      45.446 130.925  15.143  1.00  0.00    -0.024 A 
HETATM   14  C17 LIG X 999      47.654 130.167  15.229  1.00  0.00     0.276 C 
HETATM   15  C14 LIG X 999      45.860 130.733  13.737  1.00  0.00     0.276 C 
HETATM   16  N5  LIG X 999      47.321 130.407  13.788  1.00  0.00    -0.067 N 
HETATM   17  C15 LIG X 999      47.617 129.204  12.976  1.00  0.00     0.272 C 
HETATM   18  C16 LIG X 999      48.114 131.545  13.266  1.00  0.00     0.272 C 
BRANCH  11  19
HETATM   19  O1  LIG X 999      43.439 131.669  21.193  1.00  0.00    -0.259 OA
BRANCH  19  20
HETATM   20  C4  LIG X 999      44.002 130.779  22.120  1.00  0.00     0.367 C 
HETATM   21  O2  LIG X 999      44.902 129.971  21.759  1.00  0.00    -0.238 OA
HETATM   22  N4  LIG X 999      43.584 130.820  23.496  1.00  0.00    -0.336 N 
HETATM   23  C5  LIG X 999      44.219 129.934  24.476  1.00  0.00     0.154 C 
HETATM   24  C6  LIG X 999      42.509 131.731  23.893  1.00  0.00     0.154 C 
ENDBRANCH  19  20
ENDBRANCH  11  19
ENDBRANCH   1   4
TORSDOF 3
