REMARK VINA RESULT:      -6.3      1.328      2.196
REMARK  4 active torsions:
REMARK  status: ('A' for Active; 'I' for Inactive)
REMARK    1  A    between atoms: C1_2  and  C2_4 
REMARK    2  A    between atoms: C8_10  and  C9_11 
REMARK       I    between atoms: C9_11  and  N1_13 
REMARK    3  A    between atoms: N1_13  and  S1_14 
REMARK    4  A    between atoms: S1_14  and  C10_17 
ROOT
HETATM    1  C9  LIG X 999      44.644 128.432  23.552  1.00  0.00     0.259 C 
HETATM    2  O3  LIG X 999      44.433 128.473  22.310  1.00  0.00    -0.270 OA
HETATM    3  N1  LIG X 999      44.517 129.619  24.338  1.00  0.00    -0.122 NA
ENDROOT
BRANCH   3   4
HETATM    4  S1  LIG X 999      43.830 131.074  23.702  1.00  0.00     0.286 S 
HETATM    5  O4  LIG X 999      42.344 131.061  23.925  1.00  0.00    -0.198 OA
HETATM    6  O5  LIG X 999      44.410 132.265  24.414  1.00  0.00    -0.198 OA
BRANCH   4   7
HETATM    7  C10 LIG X 999      44.165 131.154  21.976  1.00  0.00     0.082 A 
HETATM    8  C11 LIG X 999      45.483 131.038  21.516  1.00  0.00     0.026 A 
HETATM    9  C12 LIG X 999      45.768 131.158  20.153  1.00  0.00     0.014 A 
HETATM   10  C13 LIG X 999      44.737 131.401  19.235  1.00  0.00    -0.026 A 
HETATM   11  C14 LIG X 999      45.013 131.529  17.865  1.00  0.00     0.012 A 
HETATM   12  C18 LIG X 999      43.404 131.522  19.696  1.00  0.00    -0.025 A 
HETATM   13  C15 LIG X 999      43.976 131.778  16.960  1.00  0.00     0.001 A 
HETATM   14  C16 LIG X 999      42.660 131.899  17.415  1.00  0.00     0.001 A 
HETATM   15  C17 LIG X 999      42.371 131.773  18.777  1.00  0.00     0.012 A 
HETATM   16  C19 LIG X 999      43.127 131.398  21.066  1.00  0.00     0.037 A 
ENDBRANCH   4   7
ENDBRANCH   3   4
BRANCH   1  17
HETATM   17  C8  LIG X 999      44.962 127.126  24.243  1.00  0.00     0.099 C 
HETATM   18  C2  LIG X 999      43.729 126.204  24.495  1.00  0.00     0.104 C 
HETATM   19  C3  LIG X 999      44.131 124.899  23.761  1.00  0.00     0.001 C 
HETATM   20  C4  LIG X 999      45.239 124.204  24.578  1.00  0.00     0.006 C 
HETATM   21  C7  LIG X 999      44.921 125.411  22.577  1.00  0.00     0.011 C 
HETATM   22  C5  LIG X 999      46.459 125.112  24.342  1.00  0.00     0.006 C 
HETATM   23  C6  LIG X 999      45.897 126.208  23.414  1.00  0.00    -0.000 C 
BRANCH  18  24
HETATM   24  C1  LIG X 999      42.397 126.753  24.026  1.00  0.00     0.178 C 
HETATM   25  O1  LIG X 999      41.838 127.710  24.625  1.00  0.00    -0.648 OA
HETATM   26  O2  LIG X 999      41.757 126.160  22.945  1.00  0.00    -0.648 OA
ENDBRANCH  18  24
ENDBRANCH   1  17
TORSDOF 4
