REMARK VINA RESULT:      -6.0      2.670      5.707
REMARK  6 active torsions:
REMARK  status: ('A' for Active; 'I' for Inactive)
REMARK    1  A    between atoms: N1_1  and  C1_2 
REMARK    2  A    between atoms: C1_2  and  C2_3 
REMARK    3  A    between atoms: C2_3  and  O1_4 
REMARK    4  A    between atoms: C2_3  and  C3_5 
REMARK    5  A    between atoms: C3_5  and  O2_6 
REMARK    6  A    between atoms: O2_6  and  C4_7 
ROOT
HETATM    1  C4  LIG X 999      45.395 130.790  17.225  1.00  0.00     0.080 A 
HETATM    2  C5  LIG X 999      44.138 131.420  17.322  1.00  0.00     0.037 A 
HETATM    3  C6  LIG X 999      43.473 131.858  16.176  1.00  0.00     0.004 A 
HETATM    4  C7  LIG X 999      44.044 131.679  14.917  1.00  0.00     0.012 A 
HETATM    5  C8  LIG X 999      45.293 131.054  14.793  1.00  0.00    -0.023 A 
HETATM    6  C9  LIG X 999      45.871 130.873  13.525  1.00  0.00     0.012 A 
HETATM    7  C10 LIG X 999      47.115 130.251  13.405  1.00  0.00     0.001 A 
HETATM    8  C11 LIG X 999      47.792 129.807  14.541  1.00  0.00     0.001 A 
HETATM    9  C12 LIG X 999      47.231 129.981  15.809  1.00  0.00     0.015 A 
HETATM   10  C13 LIG X 999      45.976 130.606  15.951  1.00  0.00     0.007 A 
ENDROOT
BRANCH   1  11
HETATM   11  O2  LIG X 999      46.084 130.340  18.364  1.00  0.00    -0.348 OA
BRANCH  11  12
HETATM   12  C3  LIG X 999      45.497 130.165  19.652  1.00  0.00     0.209 C 
BRANCH  12  13
HETATM   13  C2  LIG X 999      45.364 131.527  20.341  1.00  0.00     0.170 C 
BRANCH  13  14
HETATM   14  C1  LIG X 999      44.167 131.548  21.308  1.00  0.00     0.300 C 
BRANCH  14  15
HETATM   15  N1  LIG X 999      44.561 131.088  22.637  1.00  0.00     0.080 N 
HETATM   16  H1  LIG X 999      45.064 131.873  23.109  1.00  0.00     0.312 HD
HETATM   17  H2  LIG X 999      43.692 130.914  23.194  1.00  0.00     0.312 HD
ENDBRANCH  14  15
ENDBRANCH  13  14
BRANCH  13  18
HETATM   18  O1  LIG X 999      46.544 131.795  21.053  1.00  0.00    -0.392 OA
HETATM   19  H6  LIG X 999      46.272 132.175  21.929  1.00  0.00     0.210 HD
ENDBRANCH  13  18
ENDBRANCH  12  13
ENDBRANCH  11  12
ENDBRANCH   1  11
TORSDOF 6
