REMARK VINA RESULT:      -6.5      3.142      6.691
REMARK  4 active torsions:
REMARK  status: ('A' for Active; 'I' for Inactive)
REMARK    1  A    between atoms: C1_1  and  C2_6 
REMARK    2  A    between atoms: N1_2  and  N2_3 
REMARK    3  A    between atoms: C2_6  and  C3_8 
REMARK    4  A    between atoms: C11_16  and  N4_17 
ROOT
HETATM    1  N4  LIG X 999      43.174 131.853  16.919  1.00  0.00    -0.105 NA
HETATM    2  N5  LIG X 999      42.371 131.991  17.843  1.00  0.00    -0.167 NA
HETATM    3  N6  LIG X 999      41.569 132.126  18.766  1.00  0.00     0.068 N 
ENDROOT
BRANCH   1   4
HETATM    4  C11 LIG X 999      44.579 132.223  17.070  1.00  0.00     0.179 C 
HETATM    5  C10 LIG X 999      45.445 131.374  16.157  1.00  0.00    -0.024 A 
HETATM    6  C5  LIG X 999      46.135 130.232  16.637  1.00  0.00    -0.049 A 
HETATM    7  C9  LIG X 999      45.505 131.687  14.788  1.00  0.00     0.010 A 
HETATM    8  C4  LIG X 999      46.208 129.908  18.112  1.00  0.00     0.051 C 
HETATM    9  C6  LIG X 999      46.878 129.446  15.741  1.00  0.00     0.007 A 
HETATM   10  C3  LIG X 999      45.095 130.584  18.929  1.00  0.00     0.068 C 
HETATM   11  C12 LIG X 999      44.988 132.070  18.543  1.00  0.00     0.048 C 
HETATM   12  C7  LIG X 999      46.921 129.769  14.383  1.00  0.00     0.001 A 
HETATM   13  C8  LIG X 999      46.238 130.888  13.908  1.00  0.00     0.001 A 
BRANCH  10  14
HETATM   14  C2  LIG X 999      45.363 130.414  20.409  1.00  0.00     0.172 C 
HETATM   15  O1  LIG X 999      46.185 129.542  20.801  1.00  0.00    -0.291 OA
BRANCH  14  16
HETATM   16  C1  LIG X 999      44.634 131.197  21.421  1.00  0.00     0.190 C 
HETATM   17  N1  LIG X 999      43.376 130.988  21.649  1.00  0.00    -0.165 NA
BRANCH  17  18
HETATM   18  N2  LIG X 999      42.669 131.720  22.614  1.00  0.00    -0.177 N 
HETATM   19  H2  LIG X 999      41.749 132.160  22.387  1.00  0.00     0.214 HD
HETATM   20  N3  LIG X 999      43.151 131.853  23.780  1.00  0.00    -0.031 N 
ENDBRANCH  17  18
ENDBRANCH  14  16
ENDBRANCH  10  14
ENDBRANCH   1   4
TORSDOF 4
