REMARK VINA RESULT:      -6.2      2.296      3.337
REMARK  1 active torsions:
REMARK  status: ('A' for Active; 'I' for Inactive)
REMARK    1  A    between atoms: C5_5  and  N1_6 
ROOT
HETATM    1  N1  LIG X 999      44.009 132.213  14.884  1.00  0.00    -0.070 NA
HETATM    2  N2  LIG X 999      43.197 131.800  14.054  1.00  0.00    -0.162 NA
HETATM    3  N3  LIG X 999      42.383 131.389  13.229  1.00  0.00     0.068 N 
ENDROOT
BRANCH   1   4
HETATM    4  C5  LIG X 999      45.001 131.355  15.472  1.00  0.00     0.124 A 
HETATM    5  C4  LIG X 999      46.111 130.857  14.735  1.00  0.00     0.007 A 
HETATM    6  C3  LIG X 999      46.389 131.272  13.415  1.00  0.00     0.015 A 
HETATM    7  C10 LIG X 999      47.003 129.940  15.358  1.00  0.00    -0.024 A 
HETATM    8  C2  LIG X 999      47.480 130.749  12.718  1.00  0.00     0.001 A 
HETATM    9  C1  LIG X 999      48.323 129.818  13.324  1.00  0.00     0.001 A 
HETATM   10  C11 LIG X 999      48.092 129.420  14.641  1.00  0.00     0.012 A 
HETATM   11  C9  LIG X 999      46.808 129.571  16.694  1.00  0.00     0.014 A 
HETATM   12  C8  LIG X 999      45.753 130.110  17.426  1.00  0.00     0.026 A 
HETATM   13  C6  LIG X 999      44.857 131.001  16.829  1.00  0.00     0.077 A 
HETATM   14  C7  LIG X 999      43.764 131.520  17.614  1.00  0.00     0.102 C 
HETATM   15  N4  LIG X 999      42.886 131.935  18.244  1.00  0.00    -0.191 NA
ENDBRANCH   1   4
TORSDOF 1
