MODEL 1
REMARK VINA RESULT:      -7.6      0.000      0.000
REMARK  1 active torsions:
REMARK  status: ('A' for Active; 'I' for Inactive)
REMARK    1  A    between atoms: N1_2  and  C1_3 
ROOT
HETATM    1  C1  LIG X 999      43.126 131.682  22.044  1.00  0.00     0.143 C 
HETATM    2  N2  LIG X 999      42.365 131.909  20.945  1.00  0.00    -0.229 NA
HETATM    3  C2  LIG X 999      42.868 131.829  19.686  1.00  0.00     0.070 C 
HETATM    4  C3  LIG X 999      42.029 132.144  18.617  1.00  0.00     0.033 C 
HETATM    5  C4  LIG X 999      42.497 132.085  17.312  1.00  0.00     0.014 C 
HETATM    6  C5  LIG X 999      43.781 131.602  17.044  1.00  0.00    -0.025 C 
HETATM    7  C6  LIG X 999      44.191 131.452  15.709  1.00  0.00     0.012 C 
HETATM    8  C7  LIG X 999      45.410 130.849  15.412  1.00  0.00     0.001 C 
HETATM    9  C8  LIG X 999      46.209 130.356  16.438  1.00  0.00     0.001 C 
HETATM   10  C9  LIG X 999      45.821 130.511  17.772  1.00  0.00     0.013 C 
HETATM   11  C10 LIG X 999      44.640 131.213  18.113  1.00  0.00    -0.013 C 
HETATM   12  C11 LIG X 999      44.223 131.452  19.466  1.00  0.00     0.010 C 
HETATM   13  C12 LIG X 999      45.067 131.381  20.623  1.00  0.00    -0.045 C 
HETATM   14  C13 LIG X 999      46.576 131.408  20.579  1.00  0.00     0.049 C 
HETATM   15  C14 LIG X 999      44.487 131.430  21.900  1.00  0.00     0.059 C 
ENDROOT
BRANCH   1  16
HETATM   16  N1  LIG X 999      42.598 131.744  23.223  1.00  0.00    -0.282 NA
HETATM   17  H1  LIG X 999      42.699 132.591  23.825  1.00  0.00     0.188 HD
ENDBRANCH   1  16
TORSDOF 1
ENDMDL
MODEL 2
REMARK VINA RESULT:      -6.1      2.286      4.786
REMARK  1 active torsions:
REMARK  status: ('A' for Active; 'I' for Inactive)
REMARK    1  A    between atoms: N1_2  and  C1_3 
ROOT
HETATM    1  C1  LIG X 999      44.590 131.448  15.436  1.00  0.00     0.143 C 
HETATM    2  N2  LIG X 999      43.454 131.866  16.047  1.00  0.00    -0.229 NA
HETATM    3  C2  LIG X 999      43.292 131.807  17.394  1.00  0.00     0.070 C 
HETATM    4  C3  LIG X 999      42.065 132.196  17.930  1.00  0.00     0.033 C 
HETATM    5  C4  LIG X 999      41.846 132.147  19.300  1.00  0.00     0.014 C 
HETATM    6  C5  LIG X 999      42.888 131.813  20.169  1.00  0.00    -0.025 C 
HETATM    7  C6  LIG X 999      42.669 131.874  21.555  1.00  0.00     0.012 C 
HETATM    8  C7  LIG X 999      43.723 131.678  22.442  1.00  0.00     0.001 C 
HETATM    9  C8  LIG X 999      45.008 131.459  21.956  1.00  0.00     0.001 C 
HETATM   10  C9  LIG X 999      45.238 131.381  20.580  1.00  0.00     0.013 C 
HETATM   11  C10 LIG X 999      44.172 131.470  19.654  1.00  0.00    -0.013 C 
HETATM   12  C11 LIG X 999      44.342 131.339  18.234  1.00  0.00     0.010 C 
HETATM   13  C12 LIG X 999      45.469 130.740  17.582  1.00  0.00    -0.045 C 
HETATM   14  C13 LIG X 999      46.467 129.837  18.265  1.00  0.00     0.049 C 
HETATM   15  C14 LIG X 999      45.605 130.868  16.190  1.00  0.00     0.059 C 
ENDROOT
BRANCH   1  16
HETATM   16  N1  LIG X 999      44.711 131.548  14.152  1.00  0.00    -0.282 NA
HETATM   17  H1  LIG X 999      45.261 130.854  13.598  1.00  0.00     0.188 HD
ENDBRANCH   1  16
TORSDOF 1
ENDMDL
MODEL 3
REMARK VINA RESULT:      -6.1      0.883      2.741
REMARK  1 active torsions:
REMARK  status: ('A' for Active; 'I' for Inactive)
REMARK    1  A    between atoms: N1_2  and  C1_3 
ROOT
HETATM    1  C1  LIG X 999      43.236 131.984  22.037  1.00  0.00     0.143 C 
HETATM    2  N2  LIG X 999      44.407 131.365  21.755  1.00  0.00    -0.229 NA
HETATM    3  C2  LIG X 999      44.785 131.073  20.483  1.00  0.00     0.070 C 
HETATM    4  C3  LIG X 999      45.976 130.373  20.291  1.00  0.00     0.033 C 
HETATM    5  C4  LIG X 999      46.402 130.043  19.012  1.00  0.00     0.014 C 
HETATM    6  C5  LIG X 999      45.701 130.504  17.894  1.00  0.00    -0.025 C 
HETATM    7  C6  LIG X 999      46.213 130.247  16.612  1.00  0.00     0.012 C 
HETATM    8  C7  LIG X 999      45.609 130.807  15.489  1.00  0.00     0.001 C 
HETATM    9  C8  LIG X 999      44.519 131.659  15.640  1.00  0.00     0.001 C 
HETATM   10  C9  LIG X 999      43.990 131.912  16.908  1.00  0.00     0.013 C 
HETATM   11  C10 LIG X 999      44.513 131.275  18.058  1.00  0.00    -0.013 C 
HETATM   12  C11 LIG X 999      43.974 131.453  19.377  1.00  0.00     0.010 C 
HETATM   13  C12 LIG X 999      42.664 131.950  19.681  1.00  0.00    -0.045 C 
HETATM   14  C13 LIG X 999      41.527 132.018  18.690  1.00  0.00     0.049 C 
HETATM   15  C14 LIG X 999      42.343 132.273  21.009  1.00  0.00     0.059 C 
ENDROOT
BRANCH   1  16
HETATM   16  N1  LIG X 999      42.929 132.267  23.262  1.00  0.00    -0.282 NA
HETATM   17  H1  LIG X 999      42.406 131.593  23.865  1.00  0.00     0.188 HD
ENDBRANCH   1  16
TORSDOF 1
ENDMDL
MODEL 4
REMARK VINA RESULT:      -5.8      2.618      4.746
REMARK  1 active torsions:
REMARK  status: ('A' for Active; 'I' for Inactive)
REMARK    1  A    between atoms: N1_2  and  C1_3 
ROOT
HETATM    1  C1  LIG X 999      43.157 131.827  17.625  1.00  0.00     0.143 C 
HETATM    2  N2  LIG X 999      44.265 131.121  17.959  1.00  0.00    -0.229 NA
HETATM    3  C2  LIG X 999      45.167 130.705  17.033  1.00  0.00     0.070 C 
HETATM    4  C3  LIG X 999      46.242 129.926  17.459  1.00  0.00     0.033 C 
HETATM    5  C4  LIG X 999      47.186 129.469  16.550  1.00  0.00     0.014 C 
HETATM    6  C5  LIG X 999      47.134 129.876  15.214  1.00  0.00    -0.025 C 
HETATM    7  C6  LIG X 999      48.161 129.486  14.339  1.00  0.00     0.012 C 
HETATM    8  C7  LIG X 999      48.206 129.986  13.040  1.00  0.00     0.001 C 
HETATM    9  C8  LIG X 999      47.252 130.907  12.618  1.00  0.00     0.001 C 
HETATM   10  C9  LIG X 999      46.216 131.293  13.472  1.00  0.00     0.013 C 
HETATM   11  C10 LIG X 999      46.080 130.723  14.761  1.00  0.00    -0.013 C 
HETATM   12  C11 LIG X 999      45.005 131.039  15.658  1.00  0.00     0.010 C 
HETATM   13  C12 LIG X 999      43.754 131.632  15.283  1.00  0.00    -0.045 C 
HETATM   14  C13 LIG X 999      43.225 131.682  13.870  1.00  0.00     0.049 C 
HETATM   15  C14 LIG X 999      42.879 132.080  16.285  1.00  0.00     0.059 C 
ENDROOT
BRANCH   1  16
HETATM   16  N1  LIG X 999      42.339 132.225  18.544  1.00  0.00    -0.282 NA
HETATM   17  H1  LIG X 999      41.983 131.575  19.280  1.00  0.00     0.188 HD
ENDBRANCH   1  16
TORSDOF 1
ENDMDL
MODEL 5
REMARK VINA RESULT:      -5.3      2.254      5.451
REMARK  1 active torsions:
REMARK  status: ('A' for Active; 'I' for Inactive)
REMARK    1  A    between atoms: N1_2  and  C1_3 
ROOT
HETATM    1  C1  LIG X 999      44.562 131.074  16.426  1.00  0.00     0.143 C 
HETATM    2  N2  LIG X 999      45.512 130.862  17.369  1.00  0.00    -0.229 NA
HETATM    3  C2  LIG X 999      45.285 131.082  18.690  1.00  0.00     0.070 C 
HETATM    4  C3  LIG X 999      46.342 130.902  19.582  1.00  0.00     0.033 C 
HETATM    5  C4  LIG X 999      46.163 131.122  20.940  1.00  0.00     0.014 C 
HETATM    6  C5  LIG X 999      44.894 131.418  21.446  1.00  0.00    -0.025 C 
HETATM    7  C6  LIG X 999      44.721 131.530  22.836  1.00  0.00     0.012 C 
HETATM    8  C7  LIG X 999      43.447 131.692  23.373  1.00  0.00     0.001 C 
HETATM    9  C8  LIG X 999      42.336 131.702  22.536  1.00  0.00     0.001 C 
HETATM   10  C9  LIG X 999      42.495 131.606  21.151  1.00  0.00     0.013 C 
HETATM   11  C10 LIG X 999      43.782 131.549  20.565  1.00  0.00    -0.013 C 
HETATM   12  C11 LIG X 999      44.006 131.507  19.147  1.00  0.00     0.010 C 
HETATM   13  C12 LIG X 999      43.059 131.895  18.143  1.00  0.00    -0.045 C 
HETATM   14  C13 LIG X 999      41.836 132.739  18.406  1.00  0.00     0.049 C 
HETATM   15  C14 LIG X 999      43.330 131.605  16.796  1.00  0.00     0.059 C 
ENDROOT
BRANCH   1  16
HETATM   16  N1  LIG X 999      44.814 130.825  15.182  1.00  0.00    -0.282 NA
HETATM   17  H1  LIG X 999      44.199 131.181  14.416  1.00  0.00     0.188 HD
ENDBRANCH   1  16
TORSDOF 1
ENDMDL
MODEL 6
REMARK VINA RESULT:      -5.3      7.803      9.588
REMARK  1 active torsions:
REMARK  status: ('A' for Active; 'I' for Inactive)
REMARK    1  A    between atoms: N1_2  and  C1_3 
ROOT
HETATM    1  C1  LIG X 999      44.124 125.736  22.650  1.00  0.00     0.143 C 
HETATM    2  N2  LIG X 999      43.175 126.492  23.255  1.00  0.00    -0.229 NA
HETATM    3  C2  LIG X 999      41.934 126.014  23.530  1.00  0.00     0.070 C 
HETATM    4  C3  LIG X 999      41.000 126.883  24.092  1.00  0.00     0.033 C 
HETATM    5  C4  LIG X 999      39.716 126.446  24.384  1.00  0.00     0.014 C 
HETATM    6  C5  LIG X 999      39.374 125.101  24.222  1.00  0.00    -0.025 C 
HETATM    7  C6  LIG X 999      38.102 124.664  24.625  1.00  0.00     0.012 C 
HETATM    8  C7  LIG X 999      37.783 123.309  24.599  1.00  0.00     0.001 C 
HETATM    9  C8  LIG X 999      38.741 122.378  24.211  1.00  0.00     0.001 C 
HETATM   10  C9  LIG X 999      40.007 122.799  23.793  1.00  0.00     0.013 C 
HETATM   11  C10 LIG X 999      40.327 124.175  23.706  1.00  0.00    -0.013 C 
HETATM   12  C11 LIG X 999      41.590 124.665  23.230  1.00  0.00     0.010 C 
HETATM   13  C12 LIG X 999      42.528 123.923  22.440  1.00  0.00    -0.045 C 
HETATM   14  C13 LIG X 999      42.193 122.661  21.682  1.00  0.00     0.049 C 
HETATM   15  C14 LIG X 999      43.811 124.449  22.222  1.00  0.00     0.059 C 
ENDROOT
BRANCH   1  16
HETATM   16  N1  LIG X 999      45.302 126.224  22.433  1.00  0.00    -0.282 NA
HETATM   17  H1  LIG X 999      46.168 125.709  22.708  1.00  0.00     0.188 HD
ENDBRANCH   1  16
TORSDOF 1
ENDMDL
MODEL 7
REMARK VINA RESULT:      -5.1      7.288      8.839
REMARK  1 active torsions:
REMARK  status: ('A' for Active; 'I' for Inactive)
REMARK    1  A    between atoms: N1_2  and  C1_3 
ROOT
HETATM    1  C1  LIG X 999      39.229 123.233  23.972  1.00  0.00     0.143 C 
HETATM    2  N2  LIG X 999      40.407 122.805  23.455  1.00  0.00    -0.229 NA
HETATM    3  C2  LIG X 999      41.425 123.657  23.169  1.00  0.00     0.070 C 
HETATM    4  C3  LIG X 999      42.575 123.138  22.576  1.00  0.00     0.033 C 
HETATM    5  C4  LIG X 999      43.640 123.968  22.257  1.00  0.00     0.014 C 
HETATM    6  C5  LIG X 999      43.620 125.316  22.626  1.00  0.00    -0.025 C 
HETATM    7  C6  LIG X 999      44.755 126.109  22.386  1.00  0.00     0.012 C 
HETATM    8  C7  LIG X 999      44.812 127.416  22.863  1.00  0.00     0.001 C 
HETATM    9  C8  LIG X 999      43.759 127.927  23.615  1.00  0.00     0.001 C 
HETATM   10  C9  LIG X 999      42.618 127.155  23.849  1.00  0.00     0.013 C 
HETATM   11  C10 LIG X 999      42.482 125.862  23.289  1.00  0.00    -0.013 C 
HETATM   12  C11 LIG X 999      41.310 125.049  23.449  1.00  0.00     0.010 C 
HETATM   13  C12 LIG X 999      40.013 125.523  23.832  1.00  0.00    -0.045 C 
HETATM   14  C13 LIG X 999      39.583 126.969  23.773  1.00  0.00     0.049 C 
HETATM   15  C14 LIG X 999      39.010 124.595  24.155  1.00  0.00     0.059 C 
ENDROOT
BRANCH   1  16
HETATM   16  N1  LIG X 999      38.297 122.382  24.254  1.00  0.00    -0.282 NA
HETATM   17  H1  LIG X 999      38.479 121.551  24.861  1.00  0.00     0.188 HD
ENDBRANCH   1  16
TORSDOF 1
ENDMDL
MODEL 8
REMARK VINA RESULT:      -4.8      6.919      8.706
REMARK  1 active torsions:
REMARK  status: ('A' for Active; 'I' for Inactive)
REMARK    1  A    between atoms: N1_2  and  C1_3 
ROOT
HETATM    1  C1  LIG X 999      42.681 128.620  23.741  1.00  0.00     0.143 C 
HETATM    2  N2  LIG X 999      41.338 128.473  23.854  1.00  0.00    -0.229 NA
HETATM    3  C2  LIG X 999      40.738 127.255  23.844  1.00  0.00     0.070 C 
HETATM    4  C3  LIG X 999      39.346 127.202  23.898  1.00  0.00     0.033 C 
HETATM    5  C4  LIG X 999      38.686 125.981  23.882  1.00  0.00     0.014 C 
HETATM    6  C5  LIG X 999      39.409 124.786  23.924  1.00  0.00    -0.025 C 
HETATM    7  C6  LIG X 999      38.715 123.569  24.015  1.00  0.00     0.012 C 
HETATM    8  C7  LIG X 999      39.410 122.376  24.193  1.00  0.00     0.001 C 
HETATM    9  C8  LIG X 999      40.795 122.392  24.322  1.00  0.00     0.001 C 
HETATM   10  C9  LIG X 999      41.500 123.594  24.219  1.00  0.00     0.013 C 
HETATM   11  C10 LIG X 999      40.835 124.809  23.932  1.00  0.00    -0.013 C 
HETATM   12  C11 LIG X 999      41.513 126.063  23.758  1.00  0.00     0.010 C 
HETATM   13  C12 LIG X 999      42.908 126.222  23.467  1.00  0.00    -0.045 C 
HETATM   14  C13 LIG X 999      43.798 125.123  22.940  1.00  0.00     0.049 C 
HETATM   15  C14 LIG X 999      43.482 127.502  23.532  1.00  0.00     0.059 C 
ENDROOT
BRANCH   1  16
HETATM   16  N1  LIG X 999      43.211 129.799  23.783  1.00  0.00    -0.282 NA
HETATM   17  H1  LIG X 999      44.149 129.963  24.210  1.00  0.00     0.188 HD
ENDBRANCH   1  16
TORSDOF 1
ENDMDL
