REMARK VINA RESULT:      -5.1      1.978      2.781
REMARK  4 active torsions:
REMARK  status: ('A' for Active; 'I' for Inactive)
REMARK    1  A    between atoms: C1_2  and  C2_4 
REMARK    2  A    between atoms: C8_10  and  C9_11 
REMARK       I    between atoms: C9_11  and  N1_13 
REMARK    3  A    between atoms: N1_13  and  S1_14 
REMARK    4  A    between atoms: S1_14  and  C10_17 
ROOT
HETATM    1  C9  LIG X 999      43.403 127.528  23.716  1.00  0.00     0.259 C 
HETATM    2  O3  LIG X 999      44.446 127.692  24.405  1.00  0.00    -0.270 OA
HETATM    3  N1  LIG X 999      42.672 128.661  23.243  1.00  0.00    -0.122 NA
ENDROOT
BRANCH   3   4
HETATM    4  S1  LIG X 999      43.300 130.269  23.349  1.00  0.00     0.286 S 
HETATM    5  O4  LIG X 999      44.589 130.264  24.122  1.00  0.00    -0.198 OA
HETATM    6  O5  LIG X 999      42.312 131.142  24.070  1.00  0.00    -0.198 OA
BRANCH   4   7
HETATM    7  C10 LIG X 999      43.552 130.889  21.720  1.00  0.00     0.082 A 
HETATM    8  C11 LIG X 999      42.651 131.816  21.180  1.00  0.00     0.026 A 
HETATM    9  C12 LIG X 999      42.807 132.270  19.868  1.00  0.00     0.014 A 
HETATM   10  C13 LIG X 999      43.865 131.796  19.078  1.00  0.00    -0.026 A 
HETATM   11  C14 LIG X 999      44.027 132.240  17.757  1.00  0.00     0.012 A 
HETATM   12  C18 LIG X 999      44.776 130.857  19.619  1.00  0.00    -0.025 A 
HETATM   13  C15 LIG X 999      45.082 131.755  16.979  1.00  0.00     0.001 A 
HETATM   14  C16 LIG X 999      45.981 130.827  17.511  1.00  0.00     0.001 A 
HETATM   15  C17 LIG X 999      45.831 130.377  18.827  1.00  0.00     0.012 A 
HETATM   16  C19 LIG X 999      44.612 130.410  20.938  1.00  0.00     0.037 A 
ENDBRANCH   4   7
ENDBRANCH   3   4
BRANCH   1  17
HETATM   17  C8  LIG X 999      42.946 126.142  23.318  1.00  0.00     0.099 C 
HETATM   18  C2  LIG X 999      43.930 125.376  22.381  1.00  0.00     0.104 C 
HETATM   19  C3  LIG X 999      44.230 124.090  23.193  1.00  0.00     0.001 C 
HETATM   20  C4  LIG X 999      42.978 123.192  23.162  1.00  0.00     0.006 C 
HETATM   21  C7  LIG X 999      44.201 124.581  24.624  1.00  0.00     0.011 C 
HETATM   22  C5  LIG X 999      41.996 123.946  24.076  1.00  0.00     0.006 C 
HETATM   23  C6  LIG X 999      42.813 125.173  24.522  1.00  0.00    -0.000 C 
BRANCH  18  24
HETATM   24  C1  LIG X 999      45.187 126.129  22.001  1.00  0.00     0.178 C 
HETATM   25  O1  LIG X 999      45.094 127.285  21.510  1.00  0.00    -0.648 OA
HETATM   26  O2  LIG X 999      46.448 125.589  22.230  1.00  0.00    -0.648 OA
ENDBRANCH  18  24
ENDBRANCH   1  17
TORSDOF 4
