REMARK VINA RESULT:      -7.7      2.099      3.662
REMARK  6 active torsions:
REMARK  status: ('A' for Active; 'I' for Inactive)
REMARK    1  A    between atoms: C4_5  and  C5_6 
REMARK       I    between atoms: C5_6  and  N2_8 
REMARK    2  A    between atoms: N2_8  and  C6_9 
REMARK    3  A    between atoms: C6_9  and  O2_10 
REMARK    4  A    between atoms: O2_10  and  C7_11 
REMARK    5  A    between atoms: C7_11  and  O4_13 
REMARK    6  A    between atoms: O4_13  and  C8_14 
ROOT
HETATM    1  C7  LIG X 999      44.128 130.725  22.062  1.00  0.00     0.413 C 
HETATM    2  O3  LIG X 999      43.280 131.493  22.593  1.00  0.00    -0.229 OA
ENDROOT
BRANCH   1   3
HETATM    3  O2  LIG X 999      44.240 129.396  22.479  1.00  0.00    -0.276 OA
BRANCH   3   4
HETATM    4  C6  LIG X 999      44.086 128.973  23.832  1.00  0.00     0.334 C 
BRANCH   4   5
HETATM    5  N2  LIG X 999      42.778 128.356  24.019  1.00  0.00    -0.224 NA
HETATM    6  C5  LIG X 999      42.446 127.026  23.605  1.00  0.00     0.292 C 
HETATM    7  O1  LIG X 999      43.334 126.258  23.146  1.00  0.00    -0.264 OA
BRANCH   6   8
HETATM    8  C4  LIG X 999      41.062 126.548  23.732  1.00  0.00     0.119 A 
HETATM    9  C3  LIG X 999      40.666 125.288  24.151  1.00  0.00     0.055 A 
HETATM   10  C2  LIG X 999      39.286 125.316  24.087  1.00  0.00     0.112 A 
HETATM   11  N1  LIG X 999      38.901 126.536  23.665  1.00  0.00    -0.307 N 
HETATM   12  C1  LIG X 999      37.533 126.953  23.387  1.00  0.00     0.177 C 
HETATM   13  N3  LIG X 999      39.971 127.279  23.437  1.00  0.00    -0.294 N 
HETATM   14  H15 LIG X 999      39.952 128.259  23.076  1.00  0.00     0.187 HD
ENDBRANCH   6   8
ENDBRANCH   4   5
ENDBRANCH   3   4
ENDBRANCH   1   3
BRANCH   1  15
HETATM   15  O4  LIG X 999      45.003 131.196  21.077  1.00  0.00    -0.256 OA
BRANCH  15  16
HETATM   16  C8  LIG X 999      44.715 131.278  19.706  1.00  0.00     0.082 A 
HETATM   17  C9  LIG X 999      43.513 131.827  19.223  1.00  0.00     0.038 A 
HETATM   18  C10 LIG X 999      43.260 131.881  17.849  1.00  0.00     0.015 A 
HETATM   19  C11 LIG X 999      44.201 131.380  16.938  1.00  0.00    -0.026 A 
HETATM   20  C12 LIG X 999      43.959 131.432  15.557  1.00  0.00     0.012 A 
HETATM   21  C16 LIG X 999      45.404 130.810  17.418  1.00  0.00    -0.023 A 
HETATM   22  C13 LIG X 999      44.902 130.922  14.660  1.00  0.00     0.001 A 
HETATM   23  C14 LIG X 999      46.090 130.360  15.132  1.00  0.00     0.001 A 
HETATM   24  C15 LIG X 999      46.343 130.301  16.507  1.00  0.00     0.012 A 
HETATM   25  C17 LIG X 999      45.647 130.758  18.799  1.00  0.00     0.049 A 
ENDBRANCH  15  16
ENDBRANCH   1  15
TORSDOF 6
