REMARK VINA RESULT:      -5.6      0.000      0.000
REMARK  4 active torsions:
REMARK  status: ('A' for Active; 'I' for Inactive)
REMARK    1  A    between atoms: C5_5  and  C6_6 
REMARK    2  A    between atoms: C7_7  and  C8_8 
REMARK    3  A    between atoms: C11_13  and  C12_14 
REMARK    4  A    between atoms: C13_18  and  N3_19 
ROOT
HETATM    1  N3  LIG X 999      39.810 123.817  22.530  1.00  0.00    -0.025 NA
HETATM    2  N4  LIG X 999      39.293 123.106  23.391  1.00  0.00    -0.158 NA
HETATM    3  N5  LIG X 999      38.775 122.396  24.253  1.00  0.00     0.068 N 
ENDROOT
BRANCH   1   4
HETATM    4  C13 LIG X 999      41.227 123.849  22.368  1.00  0.00     0.301 A 
HETATM    5  N2  LIG X 999      41.861 123.494  21.241  1.00  0.00    -0.236 N 
HETATM    6  N1  LIG X 999      43.157 123.649  21.460  1.00  0.00    -0.149 NA
HETATM    7  H11 LIG X 999      41.437 123.154  20.351  1.00  0.00     0.193 HD
HETATM    8  C12 LIG X 999      43.262 124.107  22.728  1.00  0.00     0.182 A 
HETATM    9  O3  LIG X 999      42.077 124.222  23.293  1.00  0.00    -0.257 OA
BRANCH   8  10
HETATM   10  C11 LIG X 999      44.579 124.392  23.425  1.00  0.00     0.054 C 
HETATM   11  C3  LIG X 999      45.614 125.004  22.417  1.00  0.00     0.030 C 
HETATM   12  C2  LIG X 999      47.025 124.925  22.961  1.00  0.00    -0.021 C 
HETATM   13  C4  LIG X 999      45.244 126.446  22.011  1.00  0.00     0.027 C 
HETATM   14  C1  LIG X 999      47.401 123.888  23.712  1.00  0.00    -0.004 C 
HETATM   15  C15 LIG X 999      46.420 122.873  24.136  1.00  0.00    -0.003 C 
HETATM   16  C14 LIG X 999      45.108 123.075  23.965  1.00  0.00    -0.008 C 
HETATM   17  C5  LIG X 999      45.055 127.356  23.235  1.00  0.00     0.066 C 
HETATM   18  C9  LIG X 999      43.991 126.778  24.180  1.00  0.00     0.019 C 
HETATM   19  C10 LIG X 999      44.367 125.358  24.625  1.00  0.00     0.024 C 
BRANCH  17  20
HETATM   20  C6  LIG X 999      44.660 128.705  22.802  1.00  0.00    -0.090 C 
HETATM   21  C7  LIG X 999      44.338 129.811  22.446  1.00  0.00     0.005 C 
BRANCH  21  22
HETATM   22  C8  LIG X 999      43.954 131.126  22.021  1.00  0.00     0.258 C 
HETATM   23  O1  LIG X 999      44.615 131.718  21.130  1.00  0.00    -0.637 OA
HETATM   24  O2  LIG X 999      42.852 131.746  22.595  1.00  0.00    -0.637 OA
ENDBRANCH  21  22
ENDBRANCH  17  20
ENDBRANCH   8  10
ENDBRANCH   1   4
TORSDOF 4
