REMARK VINA RESULT:      -8.7      0.000      0.000
REMARK  2 active torsions:
REMARK  status: ('A' for Active; 'I' for Inactive)
REMARK    1  A    between atoms: C1_1  and  N1_2 
REMARK    2  A    between atoms: C2_5  and  C3_7 
ROOT
HETATM    1  N1  LIG X 999      46.900 131.376  13.961  1.00  0.00    -0.082 NA
HETATM    2  N2  LIG X 999      47.647 130.443  13.665  1.00  0.00    -0.163 NA
HETATM    3  N3  LIG X 999      48.393 129.512  13.370  1.00  0.00     0.068 N 
ENDROOT
BRANCH   1   4
HETATM    4  C1  LIG X 999      46.394 131.507  15.289  1.00  0.00     0.196 C 
HETATM    5  C2  LIG X 999      45.086 131.354  15.531  1.00  0.00     0.137 C 
HETATM    6  O1  LIG X 999      44.230 131.093  14.464  1.00  0.00    -0.190 OA
BRANCH   5   7
HETATM    7  C3  LIG X 999      44.511 131.476  16.896  1.00  0.00     0.003 A 
HETATM    8  C4  LIG X 999      43.154 131.809  17.042  1.00  0.00     0.015 A 
HETATM    9  C5  LIG X 999      42.578 131.925  18.308  1.00  0.00     0.013 A 
HETATM   10  C6  LIG X 999      43.346 131.698  19.457  1.00  0.00    -0.026 A 
HETATM   11  C7  LIG X 999      42.775 131.810  20.735  1.00  0.00     0.012 A 
HETATM   12  C11 LIG X 999      44.711 131.347  19.328  1.00  0.00    -0.025 A 
HETATM   13  C8  LIG X 999      43.552 131.575  21.873  1.00  0.00     0.001 A 
HETATM   14  C9  LIG X 999      44.898 131.225  21.746  1.00  0.00     0.001 A 
HETATM   15  C10 LIG X 999      45.479 131.110  20.479  1.00  0.00     0.012 A 
HETATM   16  C12 LIG X 999      45.283 131.234  18.051  1.00  0.00     0.026 A 
ENDBRANCH   5   7
ENDBRANCH   1   4
TORSDOF 2
