REMARK VINA RESULT:      -4.5      1.870      2.537
REMARK  6 active torsions:
REMARK  status: ('A' for Active; 'I' for Inactive)
REMARK    1  A    between atoms: C8_8  and  O1_9 
REMARK    2  A    between atoms: O1_9  and  C9_10 
REMARK    3  A    between atoms: C9_10  and  C10_11 
REMARK    4  A    between atoms: C10_11  and  C11_12 
REMARK    5  A    between atoms: C11_12  and  N1_13 
REMARK    6  A    between atoms: C13_18  and  N4_19 
ROOT
HETATM    1  N1  LIG X 999      43.308 131.851  20.166  1.00  0.00    -0.116 NA
HETATM    2  N2  LIG X 999      43.323 131.790  18.936  1.00  0.00    -0.168 NA
HETATM    3  N3  LIG X 999      43.337 131.732  17.707  1.00  0.00     0.068 N 
ENDROOT
BRANCH   1   4
HETATM    4  C11 LIG X 999      44.511 131.591  20.950  1.00  0.00     0.191 C 
BRANCH   4   5
HETATM    5  C10 LIG X 999      44.184 130.937  22.302  1.00  0.00     0.051 C 
BRANCH   5   6
HETATM    6  C9  LIG X 999      42.782 130.323  22.340  1.00  0.00     0.170 C 
BRANCH   6   7
HETATM    7  O1  LIG X 999      42.872 128.964  22.709  1.00  0.00    -0.384 OA
BRANCH   7   8
HETATM    8  C8  LIG X 999      42.867 128.814  24.119  1.00  0.00     0.146 C 
HETATM    9  C7  LIG X 999      41.422 128.723  24.625  1.00  0.00     0.072 C 
HETATM   10  C5  LIG X 999      40.736 127.458  24.171  1.00  0.00    -0.047 A 
HETATM   11  C4  LIG X 999      41.473 126.292  23.839  1.00  0.00    -0.023 A 
HETATM   12  C6  LIG X 999      39.332 127.420  24.147  1.00  0.00     0.008 A 
HETATM   13  C3  LIG X 999      40.778 125.143  23.418  1.00  0.00     0.010 A 
HETATM   14  C13 LIG X 999      42.993 126.292  23.803  1.00  0.00     0.199 C 
HETATM   15  C2  LIG X 999      39.382 125.128  23.385  1.00  0.00     0.001 A 
HETATM   16  C1  LIG X 999      38.661 126.262  23.755  1.00  0.00     0.001 A 
HETATM   17  C12 LIG X 999      43.611 127.525  24.495  1.00  0.00     0.143 C 
HETATM   18 CL1  LIG X 999      45.339 127.673  24.057  1.00  0.00    -0.120 Cl
BRANCH  14  19
HETATM   19  N4  LIG X 999      43.502 125.083  24.450  1.00  0.00    -0.104 NA
HETATM   20  N5  LIG X 999      44.435 124.445  23.961  1.00  0.00    -0.167 NA
HETATM   21  N6  LIG X 999      45.366 123.806  23.472  1.00  0.00     0.068 N 
ENDBRANCH  14  19
ENDBRANCH   7   8
ENDBRANCH   6   7
ENDBRANCH   5   6
ENDBRANCH   4   5
ENDBRANCH   1   4
TORSDOF 6
