REMARK VINA RESULT:      -5.4      1.333      1.550
REMARK  4 active torsions:
REMARK  status: ('A' for Active; 'I' for Inactive)
REMARK    1  A    between atoms: C1_1  and  C2_6 
REMARK    2  A    between atoms: N1_2  and  N2_3 
REMARK    3  A    between atoms: C2_6  and  C3_8 
REMARK    4  A    between atoms: C11_16  and  N4_17 
ROOT
HETATM    1  N4  LIG X 999      43.687 131.744  15.687  1.00  0.00    -0.105 NA
HETATM    2  N5  LIG X 999      43.265 131.668  14.532  1.00  0.00    -0.167 NA
HETATM    3  N6  LIG X 999      42.842 131.593  13.379  1.00  0.00     0.068 N 
ENDROOT
BRANCH   1   4
HETATM    4  C11 LIG X 999      45.056 132.166  15.973  1.00  0.00     0.179 C 
HETATM    5  C10 LIG X 999      46.044 131.210  15.328  1.00  0.00    -0.024 A 
HETATM    6  C5  LIG X 999      46.670 130.175  16.068  1.00  0.00    -0.049 A 
HETATM    7  C9  LIG X 999      46.282 131.305  13.945  1.00  0.00     0.010 A 
HETATM    8  C4  LIG X 999      46.555 130.096  17.572  1.00  0.00     0.051 C 
HETATM    9  C6  LIG X 999      47.526 129.278  15.411  1.00  0.00     0.007 A 
HETATM   10  C3  LIG X 999      45.322 130.842  18.111  1.00  0.00     0.068 C 
HETATM   11  C12 LIG X 999      45.250 132.248  17.495  1.00  0.00     0.048 C 
HETATM   12  C7  LIG X 999      47.743 129.381  14.036  1.00  0.00     0.001 A 
HETATM   13  C8  LIG X 999      47.124 130.395  13.305  1.00  0.00     0.001 A 
BRANCH  10  14
HETATM   14  C2  LIG X 999      45.345 130.935  19.622  1.00  0.00     0.172 C 
HETATM   15  O1  LIG X 999      45.194 132.053  20.185  1.00  0.00    -0.291 OA
BRANCH  14  16
HETATM   16  C1  LIG X 999      45.468 129.737  20.470  1.00  0.00     0.190 C 
HETATM   17  N1  LIG X 999      44.911 129.685  21.639  1.00  0.00    -0.165 NA
BRANCH  17  18
HETATM   18  N2  LIG X 999      45.028 128.556  22.463  1.00  0.00    -0.177 N 
HETATM   19  H2  LIG X 999      45.844 127.909  22.377  1.00  0.00     0.214 HD
HETATM   20  N3  LIG X 999      44.139 128.322  23.337  1.00  0.00    -0.031 N 
ENDBRANCH  17  18
ENDBRANCH  14  16
ENDBRANCH  10  14
ENDBRANCH   1   4
TORSDOF 4
