REMARK VINA RESULT:      -5.0      8.609     10.124
REMARK  1 active torsions:
REMARK  status: ('A' for Active; 'I' for Inactive)
REMARK    1  A    between atoms: C11_13  and  N2_14 
ROOT
HETATM    1  N2  LIG X 999      52.052 134.789  24.596  1.00  0.00    -0.053 NA
HETATM    2  N3  LIG X 999      52.631 133.744  24.298  1.00  0.00    -0.160 NA
HETATM    3  N4  LIG X 999      53.212 132.699  24.012  1.00  0.00     0.068 N 
ENDROOT
BRANCH   1   4
HETATM    4  C11 LIG X 999      51.380 135.605  23.629  1.00  0.00     0.175 A 
HETATM    5  C10 LIG X 999      50.207 135.304  22.927  1.00  0.00     0.026 A 
HETATM    6  C5  LIG X 999      49.988 136.391  22.143  1.00  0.00     0.017 A 
HETATM    7  C9  LIG X 999      49.320 134.222  22.882  1.00  0.00     0.016 A 
HETATM    8  C4  LIG X 999      50.965 137.304  22.352  1.00  0.00     0.046 A 
HETATM    9  C6  LIG X 999      48.931 136.534  21.273  1.00  0.00     0.005 A 
HETATM   10  C3  LIG X 999      50.967 138.585  21.623  1.00  0.00     0.033 A 
HETATM   11  N5  LIG X 999      51.837 136.836  23.269  1.00  0.00    -0.337 N 
HETATM   12  C2  LIG X 999      49.968 138.824  20.741  1.00  0.00     0.034 A 
HETATM   13  C1  LIG X 999      48.881 137.809  20.509  1.00  0.00     0.059 A 
HETATM   14  N1  LIG X 999      47.925 138.038  19.666  1.00  0.00    -0.300 NA
HETATM   15  H1  LIG X 999      47.874 138.927  19.120  1.00  0.00     0.187 HD
HETATM   16  H7  LIG X 999      52.689 137.320  23.628  1.00  0.00     0.167 HD
HETATM   17  C7  LIG X 999      48.013 135.467  21.197  1.00  0.00     0.015 A 
HETATM   18  C8  LIG X 999      48.212 134.314  22.004  1.00  0.00     0.002 A 
ENDBRANCH   1   4
TORSDOF 1
