MODEL 1
REMARK VINA RESULT:      -3.7      0.000      0.000
REMARK  3 active torsions:
REMARK  status: ('A' for Active; 'I' for Inactive)
REMARK    1  A    between atoms: C3_3  and  S1_4 
REMARK    2  A    between atoms: S1_4  and  C4_7 
REMARK    3  A    between atoms: C13_17  and  N2_18 
ROOT
HETATM    1  C1  LIG X 999      46.820 122.977  21.635  1.00  0.00     0.013 C 
HETATM    2  C2  LIG X 999      46.109 123.680  22.308  1.00  0.00    -0.102 C 
HETATM    3  C3  LIG X 999      45.245 124.540  23.122  1.00  0.00     0.238 C 
ENDROOT
BRANCH   3   4
HETATM    4  S1  LIG X 999      45.928 126.183  23.211  1.00  0.00     0.185 S 
HETATM    5  O1  LIG X 999      46.522 126.404  24.574  1.00  0.00    -0.222 OA
HETATM    6  O2  LIG X 999      47.017 126.332  22.185  1.00  0.00    -0.222 OA
BRANCH   4   7
HETATM    7  C4  LIG X 999      44.653 127.369  22.928  1.00  0.00     0.062 C 
HETATM    8  C5  LIG X 999      45.013 128.619  22.395  1.00  0.00     0.025 C 
HETATM    9  C6  LIG X 999      44.138 129.412  21.643  1.00  0.00     0.024 C 
HETATM   10  C7  LIG X 999      44.051 130.805  21.803  1.00  0.00     0.044 C 
HETATM   11  C8  LIG X 999      43.596 131.586  20.683  1.00  0.00     0.099 C 
HETATM   12  C9  LIG X 999      44.305 131.474  23.020  1.00  0.00     0.022 C 
HETATM   13  N1  LIG X 999      43.230 132.215  19.783  1.00  0.00    -0.191 NA
HETATM   14  C10 LIG X 999      44.269 130.894  24.304  1.00  0.00     0.002 C 
HETATM   15  C11 LIG X 999      43.615 129.696  24.624  1.00  0.00     0.002 C 
HETATM   16  C12 LIG X 999      42.476 129.252  23.942  1.00  0.00     0.034 C 
HETATM   17  C13 LIG X 999      42.271 127.915  23.567  1.00  0.00     0.094 C 
HETATM   18  C14 LIG X 999      43.333 127.017  23.287  1.00  0.00     0.057 C 
BRANCH  17  19
HETATM   19  N2  LIG X 999      40.910 127.493  23.398  1.00  0.00    -0.073 NA
HETATM   20  N3  LIG X 999      40.553 126.325  23.564  1.00  0.00    -0.162 NA
HETATM   21  N4  LIG X 999      40.195 125.160  23.729  1.00  0.00     0.068 N 
ENDBRANCH  17  19
ENDBRANCH   4   7
ENDBRANCH   3   4
TORSDOF 3
ENDMDL
MODEL 2
REMARK VINA RESULT:      -3.5      4.112      6.500
REMARK  3 active torsions:
REMARK  status: ('A' for Active; 'I' for Inactive)
REMARK    1  A    between atoms: C3_3  and  S1_4 
REMARK    2  A    between atoms: S1_4  and  C4_7 
REMARK    3  A    between atoms: C13_17  and  N2_18 
ROOT
HETATM    1  C1  LIG X 999      45.555 131.757  16.092  1.00  0.00     0.013 C 
HETATM    2  C2  LIG X 999      45.432 131.245  17.177  1.00  0.00    -0.102 C 
HETATM    3  C3  LIG X 999      45.277 130.625  18.496  1.00  0.00     0.238 C 
ENDROOT
BRANCH   3   4
HETATM    4  S1  LIG X 999      44.370 131.711  19.579  1.00  0.00     0.185 S 
HETATM    5  O1  LIG X 999      44.922 133.104  19.465  1.00  0.00    -0.222 OA
HETATM    6  O2  LIG X 999      42.923 131.736  19.170  1.00  0.00    -0.222 OA
BRANCH   4   7
HETATM    7  C4  LIG X 999      44.525 131.152  21.244  1.00  0.00     0.062 C 
HETATM    8  C5  LIG X 999      44.497 129.768  21.487  1.00  0.00     0.025 C 
HETATM    9  C6  LIG X 999      45.118 129.171  22.591  1.00  0.00     0.024 C 
HETATM   10  C7  LIG X 999      44.517 128.139  23.331  1.00  0.00     0.044 C 
HETATM   11  C8  LIG X 999      45.376 127.228  24.040  1.00  0.00     0.099 C 
HETATM   12  C9  LIG X 999      43.121 127.993  23.488  1.00  0.00     0.022 C 
HETATM   13  N1  LIG X 999      46.067 126.494  24.610  1.00  0.00    -0.191 NA
HETATM   14  C10 LIG X 999      42.160 129.010  23.315  1.00  0.00     0.002 C 
HETATM   15  C11 LIG X 999      42.435 130.385  23.345  1.00  0.00     0.002 C 
HETATM   16  C12 LIG X 999      43.478 130.930  24.102  1.00  0.00     0.034 C 
HETATM   17  C13 LIG X 999      44.324 131.948  23.633  1.00  0.00     0.094 C 
HETATM   18  C14 LIG X 999      44.633 132.128  22.260  1.00  0.00     0.057 C 
BRANCH  17  19
HETATM   19  N2  LIG X 999      44.946 132.779  24.625  1.00  0.00    -0.073 NA
HETATM   20  N3  LIG X 999      45.947 133.457  24.387  1.00  0.00    -0.162 NA
HETATM   21  N4  LIG X 999      46.947 134.134  24.152  1.00  0.00     0.068 N 
ENDBRANCH  17  19
ENDBRANCH   4   7
ENDBRANCH   3   4
TORSDOF 3
ENDMDL
MODEL 3
REMARK VINA RESULT:      -2.7      4.527      7.156
REMARK  3 active torsions:
REMARK  status: ('A' for Active; 'I' for Inactive)
REMARK    1  A    between atoms: C3_3  and  S1_4 
REMARK    2  A    between atoms: S1_4  and  C4_7 
REMARK    3  A    between atoms: C13_17  and  N2_18 
ROOT
HETATM    1  C1  LIG X 999      46.874 130.688  14.497  1.00  0.00     0.013 C 
HETATM    2  C2  LIG X 999      46.372 130.304  15.524  1.00  0.00    -0.102 C 
HETATM    3  C3  LIG X 999      45.758 129.842  16.771  1.00  0.00     0.238 C 
ENDROOT
BRANCH   3   4
HETATM    4  S1  LIG X 999      44.986 131.208  17.616  1.00  0.00     0.185 S 
HETATM    5  O1  LIG X 999      45.533 132.500  17.078  1.00  0.00    -0.222 OA
HETATM    6  O2  LIG X 999      43.503 131.177  17.371  1.00  0.00    -0.222 OA
BRANCH   4   7
HETATM    7  C4  LIG X 999      45.324 131.102  19.344  1.00  0.00     0.062 C 
HETATM    8  C5  LIG X 999      44.726 130.062  20.077  1.00  0.00     0.025 C 
HETATM    9  C6  LIG X 999      45.280 129.534  21.249  1.00  0.00     0.024 C 
HETATM   10  C7  LIG X 999      44.503 129.212  22.375  1.00  0.00     0.044 C 
HETATM   11  C8  LIG X 999      45.000 128.202  23.271  1.00  0.00     0.099 C 
HETATM   12  C9  LIG X 999      43.306 129.877  22.722  1.00  0.00     0.022 C 
HETATM   13  N1  LIG X 999      45.400 127.389  23.993  1.00  0.00    -0.191 NA
HETATM   14  C10 LIG X 999      42.923 131.164  22.293  1.00  0.00     0.002 C 
HETATM   15  C11 LIG X 999      43.800 132.134  21.790  1.00  0.00     0.002 C 
HETATM   16  C12 LIG X 999      45.142 132.215  22.180  1.00  0.00     0.034 C 
HETATM   17  C13 LIG X 999      46.194 132.465  21.285  1.00  0.00     0.094 C 
HETATM   18  C14 LIG X 999      46.152 132.093  19.916  1.00  0.00     0.057 C 
BRANCH  17  19
HETATM   19  N2  LIG X 999      47.379 133.061  21.832  1.00  0.00    -0.073 NA
HETATM   20  N3  LIG X 999      47.625 134.264  21.727  1.00  0.00    -0.162 NA
HETATM   21  N4  LIG X 999      47.872 135.465  21.625  1.00  0.00     0.068 N 
ENDBRANCH  17  19
ENDBRANCH   4   7
ENDBRANCH   3   4
TORSDOF 3
ENDMDL
MODEL 4
REMARK VINA RESULT:      -1.7      5.370      7.065
REMARK  3 active torsions:
REMARK  status: ('A' for Active; 'I' for Inactive)
REMARK    1  A    between atoms: C3_3  and  S1_4 
REMARK    2  A    between atoms: S1_4  and  C4_7 
REMARK    3  A    between atoms: C13_17  and  N2_18 
ROOT
HETATM    1  C1  LIG X 999      47.488 130.431  13.363  1.00  0.00     0.013 C 
HETATM    2  C2  LIG X 999      46.873 131.071  14.179  1.00  0.00    -0.102 C 
HETATM    3  C3  LIG X 999      46.125 131.844  15.174  1.00  0.00     0.238 C 
ENDROOT
BRANCH   3   4
HETATM    4  S1  LIG X 999      45.024 130.774  16.079  1.00  0.00     0.185 S 
HETATM    5  O1  LIG X 999      43.747 130.604  15.305  1.00  0.00    -0.222 OA
HETATM    6  O2  LIG X 999      45.664 129.424  16.250  1.00  0.00    -0.222 OA
BRANCH   4   7
HETATM    7  C4  LIG X 999      44.667 131.486  17.652  1.00  0.00     0.062 C 
HETATM    8  C5  LIG X 999      45.716 131.613  18.580  1.00  0.00     0.025 C 
HETATM    9  C6  LIG X 999      45.736 132.586  19.585  1.00  0.00     0.024 C 
HETATM   10  C7  LIG X 999      46.159 132.311  20.897  1.00  0.00     0.044 C 
HETATM   11  C8  LIG X 999      46.678 133.400  21.681  1.00  0.00     0.099 C 
HETATM   12  C9  LIG X 999      46.027 131.050  21.518  1.00  0.00     0.022 C 
HETATM   13  N1  LIG X 999      47.097 134.276  22.312  1.00  0.00    -0.191 NA
HETATM   14  C10 LIG X 999      45.131 130.031  21.136  1.00  0.00     0.002 C 
HETATM   15  C11 LIG X 999      43.982 130.226  20.357  1.00  0.00     0.002 C 
HETATM   16  C12 LIG X 999      43.261 131.426  20.361  1.00  0.00     0.034 C 
HETATM   17  C13 LIG X 999      42.743 132.021  19.199  1.00  0.00     0.094 C 
HETATM   18  C14 LIG X 999      43.331 131.862  17.918  1.00  0.00     0.057 C 
BRANCH  17  19
HETATM   19  N2  LIG X 999      41.607 132.882  19.367  1.00  0.00    -0.073 NA
HETATM   20  N3  LIG X 999      41.208 133.243  20.476  1.00  0.00    -0.162 NA
HETATM   21  N4  LIG X 999      40.808 133.605  21.581  1.00  0.00     0.068 N 
ENDBRANCH  17  19
ENDBRANCH   4   7
ENDBRANCH   3   4
TORSDOF 3
ENDMDL
MODEL 5
REMARK VINA RESULT:      -1.5      3.727      4.748
REMARK  3 active torsions:
REMARK  status: ('A' for Active; 'I' for Inactive)
REMARK    1  A    between atoms: C3_3  and  S1_4 
REMARK    2  A    between atoms: S1_4  and  C4_7 
REMARK    3  A    between atoms: C13_17  and  N2_18 
ROOT
HETATM    1  C1  LIG X 999      41.066 127.917  23.151  1.00  0.00     0.013 C 
HETATM    2  C2  LIG X 999      42.052 127.547  23.739  1.00  0.00    -0.102 C 
HETATM    3  C3  LIG X 999      43.253 127.101  24.450  1.00  0.00     0.238 C 
ENDROOT
BRANCH   3   4
HETATM    4  S1  LIG X 999      44.681 127.258  23.395  1.00  0.00     0.185 S 
HETATM    5  O1  LIG X 999      45.916 126.889  24.169  1.00  0.00    -0.222 OA
HETATM    6  O2  LIG X 999      44.550 126.320  22.227  1.00  0.00    -0.222 OA
BRANCH   4   7
HETATM    7  C4  LIG X 999      44.818 128.924  22.830  1.00  0.00     0.062 C 
HETATM    8  C5  LIG X 999      44.525 129.960  23.734  1.00  0.00     0.025 C 
HETATM    9  C6  LIG X 999      45.077 131.243  23.633  1.00  0.00     0.024 C 
HETATM   10  C7  LIG X 999      44.324 132.409  23.850  1.00  0.00     0.044 C 
HETATM   11  C8  LIG X 999      45.021 133.592  24.279  1.00  0.00     0.099 C 
HETATM   12  C9  LIG X 999      42.939 132.511  23.592  1.00  0.00     0.022 C 
HETATM   13  N1  LIG X 999      45.582 134.545  24.624  1.00  0.00    -0.191 NA
HETATM   14  C10 LIG X 999      42.196 131.677  22.733  1.00  0.00     0.002 C 
HETATM   15  C11 LIG X 999      42.744 130.881  21.718  1.00  0.00     0.002 C 
HETATM   16  C12 LIG X 999      43.918 131.225  21.039  1.00  0.00     0.034 C 
HETATM   17  C13 LIG X 999      44.924 130.300  20.715  1.00  0.00     0.094 C 
HETATM   18  C14 LIG X 999      45.181 129.134  21.481  1.00  0.00     0.057 C 
BRANCH  17  19
HETATM   19  N2  LIG X 999      45.758 130.621  19.592  1.00  0.00    -0.073 NA
HETATM   20  N3  LIG X 999      45.297 130.931  18.492  1.00  0.00    -0.162 NA
HETATM   21  N4  LIG X 999      44.839 131.241  17.393  1.00  0.00     0.068 N 
ENDBRANCH  17  19
ENDBRANCH   4   7
ENDBRANCH   3   4
TORSDOF 3
ENDMDL
MODEL 6
REMARK VINA RESULT:      -0.9      3.861      4.853
REMARK  3 active torsions:
REMARK  status: ('A' for Active; 'I' for Inactive)
REMARK    1  A    between atoms: C3_3  and  S1_4 
REMARK    2  A    between atoms: S1_4  and  C4_7 
REMARK    3  A    between atoms: C13_17  and  N2_18 
ROOT
HETATM    1  C1  LIG X 999      41.383 125.862  22.783  1.00  0.00     0.013 C 
HETATM    2  C2  LIG X 999      42.039 126.531  23.543  1.00  0.00    -0.102 C 
HETATM    3  C3  LIG X 999      42.837 127.347  24.461  1.00  0.00     0.238 C 
ENDROOT
BRANCH   3   4
HETATM    4  S1  LIG X 999      44.336 127.881  23.659  1.00  0.00     0.185 S 
HETATM    5  O1  LIG X 999      45.483 127.780  24.625  1.00  0.00    -0.222 OA
HETATM    6  O2  LIG X 999      44.622 126.990  22.482  1.00  0.00    -0.222 OA
BRANCH   4   7
HETATM    7  C4  LIG X 999      44.159 129.555  23.130  1.00  0.00     0.062 C 
HETATM    8  C5  LIG X 999      43.625 129.797  21.853  1.00  0.00     0.025 C 
HETATM    9  C6  LIG X 999      42.948 130.975  21.517  1.00  0.00     0.024 C 
HETATM   10  C7  LIG X 999      43.138 131.633  20.290  1.00  0.00     0.044 C 
HETATM   11  C8  LIG X 999      42.065 132.452  19.791  1.00  0.00     0.099 C 
HETATM   12  C9  LIG X 999      44.347 131.605  19.561  1.00  0.00     0.022 C 
HETATM   13  N1  LIG X 999      41.202 133.111  19.388  1.00  0.00    -0.191 NA
HETATM   14  C10 LIG X 999      45.620 131.304  20.085  1.00  0.00     0.002 C 
HETATM   15  C11 LIG X 999      45.962 131.364  21.443  1.00  0.00     0.002 C 
HETATM   16  C12 LIG X 999      45.350 132.251  22.337  1.00  0.00     0.034 C 
HETATM   17  C13 LIG X 999      44.967 131.894  23.640  1.00  0.00     0.094 C 
HETATM   18  C14 LIG X 999      44.601 130.572  24.005  1.00  0.00     0.057 C 
BRANCH  17  19
HETATM   19  N2  LIG X 999      44.883 132.955  24.602  1.00  0.00    -0.073 NA
HETATM   20  N3  LIG X 999      45.670 133.903  24.612  1.00  0.00    -0.162 NA
HETATM   21  N4  LIG X 999      46.454 134.851  24.624  1.00  0.00     0.068 N 
ENDBRANCH  17  19
ENDBRANCH   4   7
ENDBRANCH   3   4
TORSDOF 3
ENDMDL
