REMARK VINA RESULT:      -8.1      1.857      2.218
REMARK  3 active torsions:
REMARK  status: ('A' for Active; 'I' for Inactive)
REMARK    1  A    between atoms: C1_1  and  C2_6 
REMARK    2  A    between atoms: N1_2  and  N2_3 
REMARK    3  A    between atoms: C2_6  and  C3_8 
ROOT
HETATM    1  C3  LIG X 999      45.017 130.994  18.416  1.00  0.00     0.016 A 
HETATM    2  C4  LIG X 999      44.003 131.677  17.721  1.00  0.00     0.016 A 
HETATM    3  C5  LIG X 999      44.029 131.764  16.328  1.00  0.00     0.013 A 
HETATM    4  C6  LIG X 999      45.077 131.180  15.603  1.00  0.00    -0.026 A 
HETATM    5  C7  LIG X 999      45.111 131.263  14.202  1.00  0.00     0.012 A 
HETATM    6  C8  LIG X 999      46.166 130.682  13.491  1.00  0.00     0.001 A 
HETATM    7  C9  LIG X 999      47.191 130.019  14.171  1.00  0.00     0.001 A 
HETATM    8  C10 LIG X 999      47.168 129.930  15.565  1.00  0.00     0.012 A 
HETATM    9  C11 LIG X 999      46.113 130.505  16.292  1.00  0.00    -0.025 A 
HETATM   10  C12 LIG X 999      46.079 130.423  17.692  1.00  0.00     0.028 A 
ENDROOT
BRANCH   1  11
HETATM   11  C2  LIG X 999      44.974 130.927  19.897  1.00  0.00     0.201 C 
HETATM   12  O1  LIG X 999      45.834 130.233  20.504  1.00  0.00    -0.286 OA
BRANCH  11  13
HETATM   13  C1  LIG X 999      43.976 131.655  20.701  1.00  0.00     0.195 C 
HETATM   14  N1  LIG X 999      43.411 131.100  21.731  1.00  0.00    -0.164 NA
BRANCH  14  15
HETATM   15  N2  LIG X 999      42.429 131.730  22.518  1.00  0.00    -0.177 N 
HETATM   16  H2  LIG X 999      41.647 132.234  22.046  1.00  0.00     0.214 HD
HETATM   17  N3  LIG X 999      42.465 131.695  23.789  1.00  0.00    -0.031 N 
ENDBRANCH  14  15
ENDBRANCH  11  13
ENDBRANCH   1  11
TORSDOF 3
