REMARK VINA RESULT:      -5.5      1.626      2.772
REMARK  6 active torsions:
REMARK  status: ('A' for Active; 'I' for Inactive)
REMARK    1  A    between atoms: S1_2  and  C1_3 
REMARK    2  A    between atoms: C1_3  and  N2_14 
REMARK    3  A    between atoms: N1_4  and  C2_5 
REMARK    4  A    between atoms: C3_6  and  C4_7 
REMARK    5  A    between atoms: C4_7  and  O2_9 
REMARK    6  A    between atoms: N2_14  and  C8_16 
ROOT
HETATM    1  C1  LIG X 999      44.995 131.284  21.350  1.00  0.00     0.164 C 
HETATM    2  N1  LIG X 999      44.998 130.566  22.436  1.00  0.00    -0.224 NA
ENDROOT
BRANCH   1   3
HETATM    3  S1  LIG X 999      46.447 132.246  20.954  1.00  0.00    -0.105 SA
HETATM    4  H1  LIG X 999      47.069 131.899  22.168  1.00  0.00     0.110 HD
ENDBRANCH   1   3
BRANCH   1   5
HETATM    5  N2  LIG X 999      43.877 131.312  20.449  1.00  0.00    -0.336 N 
HETATM    6  H7  LIG X 999      42.927 131.439  20.865  1.00  0.00     0.168 HD
BRANCH   5   7
HETATM    7  C8  LIG X 999      44.004 131.327  19.016  1.00  0.00     0.034 A 
HETATM    8  C9  LIG X 999      42.989 131.856  18.197  1.00  0.00     0.030 A 
HETATM    9  C10 LIG X 999      43.141 131.885  16.808  1.00  0.00     0.014 A 
HETATM   10  C11 LIG X 999      44.303 131.373  16.214  1.00  0.00    -0.026 A 
HETATM   11  C12 LIG X 999      44.468 131.401  14.821  1.00  0.00     0.012 A 
HETATM   12  C16 LIG X 999      45.321 130.821  17.029  1.00  0.00    -0.024 A 
HETATM   13  C13 LIG X 999      45.630 130.887  14.241  1.00  0.00     0.001 A 
HETATM   14  C14 LIG X 999      46.635 130.342  15.046  1.00  0.00     0.001 A 
HETATM   15  C15 LIG X 999      46.484 130.308  16.435  1.00  0.00     0.012 A 
HETATM   16  C17 LIG X 999      45.159 130.796  18.422  1.00  0.00     0.041 A 
ENDBRANCH   5   7
ENDBRANCH   1   5
BRANCH   2  17
HETATM   17  C2  LIG X 999      43.886 129.834  22.975  1.00  0.00     0.083 A 
HETATM   18  C3  LIG X 999      43.958 128.479  23.293  1.00  0.00     0.108 A 
HETATM   19  S2  LIG X 999      42.474 128.015  23.936  1.00  0.00    -0.093 SA
HETATM   20  C6  LIG X 999      41.738 129.524  23.842  1.00  0.00     0.053 A 
HETATM   21  C7  LIG X 999      42.649 130.419  23.301  1.00  0.00     0.040 A 
BRANCH  18  22
HETATM   22  C4  LIG X 999      45.099 127.577  23.071  1.00  0.00     0.302 C 
HETATM   23  O1  LIG X 999      45.461 127.309  21.893  1.00  0.00    -0.259 OA
BRANCH  22  24
HETATM   24  O2  LIG X 999      45.780 127.029  24.162  1.00  0.00    -0.322 OA
HETATM   25  C5  LIG X 999      46.885 126.147  24.013  1.00  0.00     0.213 C 
ENDBRANCH  22  24
ENDBRANCH  18  22
ENDBRANCH   2  17
TORSDOF 6
