REMARK VINA RESULT:      -7.2      2.162      3.779
REMARK  2 active torsions:
REMARK  status: ('A' for Active; 'I' for Inactive)
REMARK    1  A    between atoms: C2_5  and  C3_6 
REMARK    2  A    between atoms: N3_18  and  C13_19 
ROOT
HETATM    1  H1  LIG X 999      40.916 132.967  17.888  1.00  0.00     0.190 HD
HETATM    2  N1  LIG X 999      41.835 132.544  17.630  1.00  0.00    -0.260 NA
HETATM    3  C1  LIG X 999      42.615 132.049  18.536  1.00  0.00     0.268 A 
HETATM    4  O1  LIG X 999      42.326 132.018  19.817  1.00  0.00    -0.257 OA
HETATM    5  C2  LIG X 999      43.342 131.395  20.380  1.00  0.00     0.177 A 
HETATM    6  N2  LIG X 999      44.266 131.053  19.456  1.00  0.00    -0.269 N 
HETATM    7  H9  LIG X 999      45.189 130.592  19.618  1.00  0.00     0.190 HD
HETATM    8  N3  LIG X 999      43.809 131.472  18.288  1.00  0.00    -0.212 N 
ENDROOT
BRANCH   5   9
HETATM    9  C3  LIG X 999      43.469 131.163  21.833  1.00  0.00     0.028 A 
HETATM   10  C4  LIG X 999      42.962 132.148  22.694  1.00  0.00     0.017 A 
HETATM   11  C5  LIG X 999      43.112 132.037  24.076  1.00  0.00     0.002 A 
HETATM   12  C6  LIG X 999      43.767 130.935  24.625  1.00  0.00     0.012 A 
HETATM   13  C7  LIG X 999      44.252 129.916  23.794  1.00  0.00    -0.025 A 
HETATM   14  C8  LIG X 999      44.881 128.795  24.358  1.00  0.00     0.012 A 
HETATM   15  C12 LIG X 999      44.094 130.010  22.384  1.00  0.00    -0.011 A 
HETATM   16  C9  LIG X 999      45.330 127.756  23.543  1.00  0.00     0.001 A 
HETATM   17  C10 LIG X 999      45.144 127.820  22.162  1.00  0.00     0.001 A 
HETATM   18  C11 LIG X 999      44.524 128.930  21.585  1.00  0.00     0.013 A 
ENDBRANCH   5   9
BRANCH   8  19
HETATM   19  C13 LIG X 999      44.478 131.281  17.030  1.00  0.00     0.105 A 
HETATM   20  C14 LIG X 999      43.875 131.731  15.846  1.00  0.00     0.054 A 
HETATM   21  C15 LIG X 999      44.525 131.542  14.624  1.00  0.00     0.122 A 
HETATM   22  N4  LIG X 999      45.729 130.914  14.583  1.00  0.00    -0.230 NA
HETATM   23  C16 LIG X 999      46.332 130.453  15.711  1.00  0.00     0.251 A 
HETATM   24  F1  LIG X 999      47.525 129.817  15.622  1.00  0.00    -0.181 F 
HETATM   25  C17 LIG X 999      45.718 130.622  16.956  1.00  0.00     0.202 A 
HETATM   26  F2  LIG X 999      46.302 130.104  18.065  1.00  0.00    -0.199 F 
ENDBRANCH   8  19
TORSDOF 2
