REMARK VINA RESULT:      -7.2      2.031      5.287
REMARK  4 active torsions:
REMARK  status: ('A' for Active; 'I' for Inactive)
REMARK    1  A    between atoms: C3_3  and  O1_4 
REMARK    2  A    between atoms: O1_4  and  C4_5 
REMARK    3  A    between atoms: C13_14  and  C14_15 
REMARK    4  A    between atoms: C14_15  and  O2_16 
ROOT
HETATM    1  C1  LIG X 999      46.783 133.146  21.453  1.00  0.00     0.014 C 
HETATM    2  C2  LIG X 999      46.277 132.083  21.193  1.00  0.00    -0.091 C 
HETATM    3  C3  LIG X 999      45.662 130.794  20.878  1.00  0.00     0.268 C 
ENDROOT
BRANCH   3   4
HETATM    4  O1  LIG X 999      44.544 131.006  20.022  1.00  0.00    -0.339 OA
BRANCH   4   5
HETATM    5  C4  LIG X 999      44.613 131.080  18.620  1.00  0.00     0.079 A 
HETATM    6  C5  LIG X 999      45.734 130.611  17.907  1.00  0.00     0.049 A 
HETATM    7  C6  LIG X 999      45.770 130.682  16.508  1.00  0.00    -0.023 A 
HETATM    8  C7  LIG X 999      46.886 130.215  15.795  1.00  0.00     0.012 A 
HETATM    9  C11 LIG X 999      44.669 131.224  15.805  1.00  0.00    -0.025 A 
HETATM   10  C8  LIG X 999      46.909 130.285  14.401  1.00  0.00     0.001 A 
HETATM   11  C9  LIG X 999      45.822 130.820  13.706  1.00  0.00     0.001 A 
HETATM   12  C10 LIG X 999      44.704 131.288  14.402  1.00  0.00     0.012 A 
HETATM   13  C12 LIG X 999      43.555 131.691  16.513  1.00  0.00     0.024 A 
HETATM   14  C13 LIG X 999      43.525 131.635  17.916  1.00  0.00    -0.001 A 
BRANCH  14  15
HETATM   15  C14 LIG X 999      42.305 132.117  18.653  1.00  0.00     0.205 C 
BRANCH  15  16
HETATM   16  O2  LIG X 999      41.543 132.933  17.808  1.00  0.00    -0.396 OA
HETATM   17  H12 LIG X 999      41.027 133.539  18.401  1.00  0.00     0.209 HD
ENDBRANCH  15  16
ENDBRANCH  14  15
ENDBRANCH   4   5
ENDBRANCH   3   4
TORSDOF 4
