REMARK VINA RESULT:      -6.9      2.610      5.847
REMARK  3 active torsions:
REMARK  status: ('A' for Active; 'I' for Inactive)
REMARK    1  A    between atoms: C3_3  and  S1_4 
REMARK    2  A    between atoms: S1_4  and  C4_5 
REMARK    3  A    between atoms: C8_9  and  N1_10 
ROOT
HETATM    1  C1  LIG X 999      44.720 128.203  23.260  1.00  0.00     0.013 C 
HETATM    2  C2  LIG X 999      44.168 129.266  23.394  1.00  0.00    -0.107 C 
HETATM    3  C3  LIG X 999      43.493 130.557  23.554  1.00  0.00     0.172 C 
ENDROOT
BRANCH   3   4
HETATM    4  S1  LIG X 999      44.601 131.921  23.063  1.00  0.00    -0.117 SA
BRANCH   4   5
HETATM    5  C4  LIG X 999      44.714 131.422  21.336  1.00  0.00     0.015 A 
HETATM    6  C5  LIG X 999      45.920 130.781  20.929  1.00  0.00     0.020 A 
HETATM    7  C6  LIG X 999      46.180 130.497  19.571  1.00  0.00     0.018 A 
HETATM    8  C7  LIG X 999      45.211 130.867  18.645  1.00  0.00     0.026 A 
HETATM    9  C8  LIG X 999      45.163 130.858  17.260  1.00  0.00     0.175 A 
HETATM   10  C10 LIG X 999      44.051 131.441  19.046  1.00  0.00     0.019 A 
HETATM   11  N4  LIG X 999      44.007 131.433  16.825  1.00  0.00    -0.337 N 
HETATM   12  H6  LIG X 999      43.712 131.602  15.837  1.00  0.00     0.167 HD
HETATM   13  C9  LIG X 999      43.336 131.786  17.944  1.00  0.00     0.046 A 
HETATM   14  C14 LIG X 999      42.084 132.544  18.067  1.00  0.00     0.033 C 
HETATM   15  C13 LIG X 999      41.630 132.829  19.304  1.00  0.00     0.034 C 
HETATM   16  C12 LIG X 999      42.359 132.362  20.530  1.00  0.00     0.060 C 
HETATM   17  C11 LIG X 999      43.713 131.722  20.360  1.00  0.00     0.022 A 
HETATM   18  N5  LIG X 999      41.724 132.395  21.659  1.00  0.00    -0.299 NA
HETATM   19  H7  LIG X 999      42.076 132.002  22.553  1.00  0.00     0.187 HD
BRANCH   9  20
HETATM   20  N1  LIG X 999      46.201 130.377  16.404  1.00  0.00    -0.053 NA
HETATM   21  N2  LIG X 999      46.523 130.988  15.385  1.00  0.00    -0.160 NA
HETATM   22  N3  LIG X 999      46.843 131.599  14.367  1.00  0.00     0.068 N 
ENDBRANCH   9  20
ENDBRANCH   4   5
ENDBRANCH   3   4
TORSDOF 3
