REMARK VINA RESULT:      -5.3      8.047      9.066
REMARK  2 active torsions:
REMARK  status: ('A' for Active; 'I' for Inactive)
REMARK    1  A    between atoms: C9_10  and  N2_11 
REMARK       I    between atoms: N2_11  and  C10_12 
REMARK    2  A    between atoms: C10_12  and  C11_14 
ROOT
HETATM    1  C11 LIG X 999      39.753 123.949  23.118  1.00  0.00     0.282 C 
HETATM    2 CL1  LIG X 999      39.889 122.569  24.236  1.00  0.00    -0.099 Cl
HETATM    3  C12 LIG X 999      39.209 125.107  23.834  1.00  0.00     0.089 C 
HETATM    4  N3  LIG X 999      38.780 126.020  24.399  1.00  0.00    -0.195 NA
ENDROOT
BRANCH   1   5
HETATM    5  C10 LIG X 999      41.096 124.283  22.547  1.00  0.00     0.276 C 
HETATM    6  N2  LIG X 999      42.075 124.940  23.366  1.00  0.00    -0.212 NA
HETATM    7  O1  LIG X 999      41.331 124.044  21.332  1.00  0.00    -0.268 OA
BRANCH   6   8
HETATM    8  C9  LIG X 999      43.468 125.104  23.065  1.00  0.00     0.061 A 
HETATM    9  C8  LIG X 999      44.024 126.385  23.154  1.00  0.00     0.032 A 
HETATM   10  C7  LIG X 999      45.380 126.595  22.889  1.00  0.00     0.014 A 
HETATM   11  C6  LIG X 999      46.206 125.518  22.547  1.00  0.00    -0.025 A 
HETATM   12  C5  LIG X 999      47.574 125.719  22.277  1.00  0.00     0.021 A 
HETATM   13  C14 LIG X 999      45.657 124.206  22.477  1.00  0.00    -0.023 A 
HETATM   14  C4  LIG X 999      48.362 124.613  21.954  1.00  0.00    -0.024 A 
HETATM   15  C3  LIG X 999      49.801 124.592  21.616  1.00  0.00     0.276 C 
HETATM   16  C16 LIG X 999      47.837 123.358  21.891  1.00  0.00    -0.024 A 
HETATM   17  N1  LIG X 999      50.164 123.144  21.487  1.00  0.00    -0.067 N 
HETATM   18  C1  LIG X 999      50.900 122.900  20.228  1.00  0.00     0.272 C 
HETATM   19  C2  LIG X 999      51.014 122.731  22.630  1.00  0.00     0.272 C 
HETATM   20  C17 LIG X 999      48.876 122.380  21.504  1.00  0.00     0.276 C 
HETATM   21  C15 LIG X 999      46.486 123.117  22.144  1.00  0.00     0.021 A 
HETATM   22  C13 LIG X 999      44.293 124.010  22.744  1.00  0.00     0.044 A 
ENDBRANCH   6   8
ENDBRANCH   1   5
TORSDOF 2
