REMARK VINA RESULT:      -5.3      3.853      6.716
REMARK  5 active torsions:
REMARK  status: ('A' for Active; 'I' for Inactive)
REMARK    1  A    between atoms: O1_2  and  C1_3 
REMARK    2  A    between atoms: C1_3  and  C13_17 
REMARK    3  A    between atoms: N1_4  and  C2_5 
REMARK    4  A    between atoms: C3_6  and  O2_7 
REMARK    5  A    between atoms: C13_17  and  C15_19 
ROOT
HETATM    1  C2  LIG X 999      43.983 130.718  21.591  1.00  0.00     0.103 A 
HETATM    2  C3  LIG X 999      42.952 131.531  22.111  1.00  0.00     0.097 A 
HETATM    3  C5  LIG X 999      42.322 132.471  21.276  1.00  0.00     0.040 A 
HETATM    4  C6  LIG X 999      42.727 132.628  19.950  1.00  0.00     0.015 A 
HETATM    5  C7  LIG X 999      43.774 131.857  19.435  1.00  0.00    -0.024 A 
HETATM    6  C8  LIG X 999      44.192 132.030  18.106  1.00  0.00     0.012 A 
HETATM    7  C9  LIG X 999      45.238 131.260  17.591  1.00  0.00     0.001 A 
HETATM    8  C10 LIG X 999      45.873 130.313  18.395  1.00  0.00     0.001 A 
HETATM    9  C11 LIG X 999      45.468 130.129  19.720  1.00  0.00     0.014 A 
HETATM   10  C12 LIG X 999      44.416 130.898  20.258  1.00  0.00     0.006 A 
ENDROOT
BRANCH   1  11
HETATM   11  N1  LIG X 999      44.643 129.757  22.431  1.00  0.00    -0.225 NA
HETATM   12  C1  LIG X 999      44.046 128.795  23.070  1.00  0.00     0.142 C 
BRANCH  12  13
HETATM   13  O1  LIG X 999      42.673 128.591  22.916  1.00  0.00    -0.348 OA
HETATM   14  H1  LIG X 999      41.993 129.188  23.373  1.00  0.00     0.219 HD
ENDBRANCH  12  13
BRANCH  12  15
HETATM   15  C13 LIG X 999      44.851 127.876  23.956  1.00  0.00     0.058 C 
HETATM   16  C14 LIG X 999      43.925 126.850  24.625  1.00  0.00     0.018 C 
BRANCH  15  17
HETATM   17  C15 LIG X 999      45.973 127.203  23.135  1.00  0.00     0.008 C 
HETATM   18  C16 LIG X 999      45.447 126.123  22.188  1.00  0.00     0.006 C 
ENDBRANCH  15  17
ENDBRANCH  12  15
ENDBRANCH   1  11
BRANCH   2  19
HETATM   19  O2  LIG X 999      42.599 131.395  23.464  1.00  0.00    -0.354 OA
HETATM   20  C4  LIG X 999      43.177 132.138  24.532  1.00  0.00     0.210 C 
ENDBRANCH   2  19
TORSDOF 5
