REMARK VINA RESULT:      -7.2      1.099      1.314
REMARK  6 active torsions:
REMARK  status: ('A' for Active; 'I' for Inactive)
REMARK    1  A    between atoms: O1_2  and  C1_3 
REMARK    2  A    between atoms: C1_3  and  C2_4 
REMARK    3  A    between atoms: C1_3  and  C13_20 
REMARK    4  A    between atoms: C2_4  and  O3_6 
REMARK    5  A    between atoms: O3_6  and  C3_7 
REMARK    6  A    between atoms: C8_12  and  N1_13 
ROOT
HETATM    1  N1  LIG X 999      42.720 129.931  24.227  1.00  0.00    -0.073 NA
HETATM    2  N2  LIG X 999      41.867 129.052  24.363  1.00  0.00    -0.162 NA
HETATM    3  N3  LIG X 999      41.015 128.176  24.501  1.00  0.00     0.068 N 
ENDROOT
BRANCH   1   4
HETATM    4  C8  LIG X 999      43.348 130.200  22.966  1.00  0.00     0.094 A 
HETATM    5  C7  LIG X 999      42.731 130.997  21.984  1.00  0.00     0.046 A 
HETATM    6  C6  LIG X 999      43.375 131.240  20.760  1.00  0.00    -0.024 A 
HETATM    7  C5  LIG X 999      42.769 132.037  19.780  1.00  0.00     0.015 A 
HETATM    8  C11 LIG X 999      44.651 130.680  20.516  1.00  0.00    -0.023 A 
HETATM    9  C4  LIG X 999      43.418 132.273  18.563  1.00  0.00     0.038 A 
HETATM   10  C3  LIG X 999      44.678 131.704  18.306  1.00  0.00     0.080 A 
HETATM   11  C12 LIG X 999      45.294 130.924  19.292  1.00  0.00     0.049 A 
HETATM   12  C10 LIG X 999      45.261 129.888  21.498  1.00  0.00     0.014 A 
HETATM   13  C9  LIG X 999      44.612 129.652  22.713  1.00  0.00     0.035 A 
BRANCH  10  14
HETATM   14  O3  LIG X 999      45.367 131.924  17.105  1.00  0.00    -0.277 OA
BRANCH  14  15
HETATM   15  C2  LIG X 999      45.262 131.132  15.953  1.00  0.00     0.293 C 
HETATM   16  O2  LIG X 999      44.174 131.049  15.320  1.00  0.00    -0.262 OA
BRANCH  15  17
HETATM   17  C1  LIG X 999      46.436 130.302  15.520  1.00  0.00     0.217 C 
BRANCH  17  18
HETATM   18  O1  LIG X 999      46.143 128.944  15.712  1.00  0.00    -0.386 OA
HETATM   19  H1  LIG X 999      45.293 128.762  15.230  1.00  0.00     0.210 HD
ENDBRANCH  17  18
BRANCH  17  20
HETATM   20  C13 LIG X 999      46.758 130.536  14.036  1.00  0.00     0.037 C 
HETATM   21  C14 LIG X 999      47.994 129.760  13.575  1.00  0.00     0.008 C 
ENDBRANCH  17  20
ENDBRANCH  15  17
ENDBRANCH  14  15
ENDBRANCH  10  14
ENDBRANCH   1   4
TORSDOF 6
