REMARK VINA RESULT:      -6.1      2.601      7.597
REMARK  4 active torsions:
REMARK  status: ('A' for Active; 'I' for Inactive)
REMARK    1  A    between atoms: C2_2  and  N1_3 
REMARK    2  A    between atoms: C3_6  and  O1_7 
REMARK    3  A    between atoms: O1_7  and  C4_8 
REMARK    4  A    between atoms: C4_8  and  C5_9 
ROOT
HETATM    1  N1  LIG X 999      42.369 131.436  23.605  1.00  0.00    -0.070 NA
HETATM    2  N2  LIG X 999      41.641 130.583  24.116  1.00  0.00    -0.162 NA
HETATM    3  N3  LIG X 999      40.912 129.732  24.625  1.00  0.00     0.068 N 
ENDROOT
BRANCH   1   4
HETATM    4  C2  LIG X 999      43.216 131.154  22.482  1.00  0.00     0.127 A 
HETATM    5  C1  LIG X 999      42.881 131.591  21.186  1.00  0.00     0.049 A 
HETATM    6  C14 LIG X 999      43.718 131.307  20.100  1.00  0.00    -0.023 A 
HETATM    7  C9  LIG X 999      44.916 130.570  20.312  1.00  0.00    -0.022 A 
HETATM    8  C13 LIG X 999      43.383 131.741  18.804  1.00  0.00     0.021 A 
HETATM    9  C8  LIG X 999      45.245 130.138  21.603  1.00  0.00     0.051 A 
HETATM   10  C10 LIG X 999      45.760 130.278  19.222  1.00  0.00     0.021 A 
HETATM   11  C3  LIG X 999      44.398 130.424  22.692  1.00  0.00     0.102 A 
HETATM   12  C11 LIG X 999      45.395 130.732  17.953  1.00  0.00    -0.024 A 
HETATM   13  C12 LIG X 999      44.248 131.438  17.752  1.00  0.00    -0.024 A 
HETATM   14  C18 LIG X 999      46.109 130.526  16.676  1.00  0.00     0.276 C 
HETATM   15  C15 LIG X 999      44.088 131.769  16.320  1.00  0.00     0.276 C 
HETATM   16  N4  LIG X 999      45.357 131.327  15.659  1.00  0.00    -0.067 N 
HETATM   17  C16 LIG X 999      45.064 130.508  14.460  1.00  0.00     0.272 C 
HETATM   18  C17 LIG X 999      46.155 132.508  15.252  1.00  0.00     0.272 C 
BRANCH  11  19
HETATM   19  O1  LIG X 999      44.695 130.002  24.001  1.00  0.00    -0.337 OA
BRANCH  19  20
HETATM   20  C4  LIG X 999      44.370 128.729  24.557  1.00  0.00     0.269 C 
BRANCH  20  21
HETATM   21  C5  LIG X 999      45.055 127.660  23.822  1.00  0.00    -0.080 C 
HETATM   22  C6  LIG X 999      45.617 126.785  23.213  1.00  0.00    -0.109 C 
HETATM   23  C7  LIG X 999      46.299 125.725  22.470  1.00  0.00     0.112 C 
ENDBRANCH  20  21
ENDBRANCH  19  20
ENDBRANCH  11  19
ENDBRANCH   1   4
TORSDOF 4
