REMARK VINA RESULT:      -5.8      7.829      9.123
REMARK  1 active torsions:
REMARK  status: ('A' for Active; 'I' for Inactive)
REMARK    1  A    between atoms: C2_5  and  C3_6 
ROOT
HETATM    1  C3  LIG X 999      50.397 137.509  21.576  1.00  0.00     0.030 A 
HETATM    2  C4  LIG X 999      51.496 138.131  22.189  1.00  0.00     0.017 A 
HETATM    3  C5  LIG X 999      52.168 137.520  23.246  1.00  0.00     0.002 A 
HETATM    4  C6  LIG X 999      51.754 136.278  23.718  1.00  0.00     0.012 A 
HETATM    5  C7  LIG X 999      50.641 135.644  23.152  1.00  0.00    -0.025 A 
HETATM    6  C8  LIG X 999      50.214 134.404  23.655  1.00  0.00     0.012 A 
HETATM    7  C9  LIG X 999      49.084 133.781  23.130  1.00  0.00     0.001 A 
HETATM    8  C10 LIG X 999      48.360 134.394  22.108  1.00  0.00     0.001 A 
HETATM    9  C11 LIG X 999      48.771 135.625  21.591  1.00  0.00     0.013 A 
HETATM   10  C12 LIG X 999      49.934 136.261  22.081  1.00  0.00    -0.011 A 
ENDROOT
BRANCH   1  11
HETATM   11  C2  LIG X 999      49.800 138.190  20.403  1.00  0.00     0.203 A 
HETATM   12  O1  LIG X 999      49.800 137.686  19.186  1.00  0.00    -0.255 OA
HETATM   13  C1  LIG X 999      49.146 138.561  18.465  1.00  0.00     0.262 A 
HETATM   14  N1  LIG X 999      48.927 138.438  17.196  1.00  0.00    -0.260 NA
HETATM   15  N3  LIG X 999      48.731 139.597  19.210  1.00  0.00    -0.238 N 
HETATM   16  H1  LIG X 999      48.398 139.165  16.666  1.00  0.00     0.190 HD
HETATM   17  N2  LIG X 999      49.137 139.368  20.447  1.00  0.00    -0.145 NA
HETATM   18  H9  LIG X 999      48.186 140.434  18.900  1.00  0.00     0.193 HD
ENDBRANCH   1  11
TORSDOF 1
