REMARK VINA RESULT:      -6.1      1.475      5.989
REMARK  4 active torsions:
REMARK  status: ('A' for Active; 'I' for Inactive)
REMARK    1  A    between atoms: O1_2  and  C1_3 
REMARK    2  A    between atoms: C1_3  and  O2_4 
REMARK    3  A    between atoms: O2_4  and  C2_5 
REMARK    4  A    between atoms: C5_8  and  N1_9 
ROOT
HETATM    1  N1  LIG X 999      44.524 131.754  16.909  1.00  0.00    -0.205 NA
HETATM    2  C6  LIG X 999      45.478 131.724  16.067  1.00  0.00     0.337 C 
HETATM    3  O3  LIG X 999      46.406 131.697  15.248  1.00  0.00    -0.260 OA
ENDROOT
BRANCH   1   4
HETATM    4  C5  LIG X 999      44.655 131.390  18.297  1.00  0.00     0.072 A 
HETATM    5  C4  LIG X 999      45.742 130.618  18.747  1.00  0.00     0.035 A 
HETATM    6  C3  LIG X 999      45.861 130.271  20.091  1.00  0.00     0.040 A 
HETATM    7  C2  LIG X 999      44.908 130.694  21.029  1.00  0.00     0.091 A 
HETATM    8  C12 LIG X 999      43.801 131.450  20.596  1.00  0.00     0.010 A 
HETATM    9  C7  LIG X 999      43.674 131.806  19.225  1.00  0.00     0.006 A 
HETATM   10  C11 LIG X 999      42.817 131.868  21.513  1.00  0.00     0.015 A 
HETATM   11  C8  LIG X 999      42.562 132.571  18.815  1.00  0.00     0.014 A 
HETATM   12  C9  LIG X 999      41.599 132.973  19.740  1.00  0.00     0.001 A 
HETATM   13  C10 LIG X 999      41.725 132.622  21.084  1.00  0.00     0.001 A 
BRANCH   7  14
HETATM   14  O2  LIG X 999      45.017 130.332  22.381  1.00  0.00    -0.273 OA
BRANCH  14  15
HETATM   15  C1  LIG X 999      44.601 129.106  22.925  1.00  0.00     0.265 C 
HETATM   16  N2  LIG X 999      43.859 129.090  24.002  1.00  0.00    -0.350 N 
HETATM   17  C13 LIG X 999      43.441 130.354  24.624  1.00  0.00     0.153 C 
HETATM   18  C14 LIG X 999      43.438 127.810  24.587  1.00  0.00     0.153 C 
BRANCH  15  19
HETATM   19  O1  LIG X 999      45.016 127.904  22.345  1.00  0.00    -0.327 OA
HETATM   20  H1  LIG X 999      45.834 127.406  22.674  1.00  0.00     0.221 HD
ENDBRANCH  15  19
ENDBRANCH  14  15
ENDBRANCH   7  14
ENDBRANCH   1   4
TORSDOF 4
