REMARK VINA RESULT:      -8.0      4.074      6.496
REMARK  3 active torsions:
REMARK  status: ('A' for Active; 'I' for Inactive)
REMARK    1  A    between atoms: C6_6  and  C7_7 
REMARK    2  A    between atoms: C7_7  and  C8_9 
REMARK    3  A    between atoms: C8_9  and  N1_10 
ROOT
HETATM    1  N1  LIG X 999      43.358 132.047  20.402  1.00  0.00    -0.108 NA
HETATM    2  N2  LIG X 999      43.316 131.328  21.400  1.00  0.00    -0.167 NA
HETATM    3  N3  LIG X 999      43.273 130.609  22.397  1.00  0.00     0.068 N 
ENDROOT
BRANCH   1   4
HETATM    4  C8  LIG X 999      44.520 132.045  19.520  1.00  0.00     0.272 C 
BRANCH   4   5
HETATM    5  C7  LIG X 999      44.116 131.741  18.099  1.00  0.00     0.181 C 
HETATM    6  O1  LIG X 999      42.952 132.043  17.715  1.00  0.00    -0.290 OA
BRANCH   5   7
HETATM    7  C6  LIG X 999      45.065 131.120  17.135  1.00  0.00     0.012 A 
HETATM    8  C5  LIG X 999      45.424 131.769  15.936  1.00  0.00     0.027 A 
HETATM    9  C4  LIG X 999      46.319 131.168  15.037  1.00  0.00    -0.025 A 
HETATM   10  C3  LIG X 999      46.676 131.816  13.843  1.00  0.00     0.012 A 
HETATM   11  C11 LIG X 999      46.868 129.900  15.335  1.00  0.00    -0.026 A 
HETATM   12  C2  LIG X 999      47.569 131.209  12.955  1.00  0.00     0.001 A 
HETATM   13  C1  LIG X 999      48.111 129.955  13.250  1.00  0.00     0.001 A 
HETATM   14  C12 LIG X 999      47.764 129.301  14.435  1.00  0.00     0.012 A 
HETATM   15  C10 LIG X 999      46.511 129.253  16.524  1.00  0.00     0.013 A 
HETATM   16  C9  LIG X 999      45.619 129.856  17.414  1.00  0.00     0.016 A 
ENDBRANCH   5   7
ENDBRANCH   4   5
ENDBRANCH   1   4
TORSDOF 3
