REMARK VINA RESULT:      -4.3      4.156      5.408
REMARK  4 active torsions:
REMARK  status: ('A' for Active; 'I' for Inactive)
REMARK    1  A    between atoms: C4_4  and  N1_5 
REMARK    2  A    between atoms: C7_10  and  S1_11 
REMARK    3  A    between atoms: S1_11  and  C8_12 
REMARK    4  A    between atoms: C8_12  and  C9_13 
ROOT
HETATM    1  N1  LIG X 999      40.286 127.483  23.502  1.00  0.00    -0.071 NA
HETATM    2  N2  LIG X 999      39.065 127.451  23.645  1.00  0.00    -0.162 NA
HETATM    3  N3  LIG X 999      37.845 127.429  23.803  1.00  0.00     0.068 N 
ENDROOT
BRANCH   1   4
HETATM    4  C4  LIG X 999      41.156 126.394  23.869  1.00  0.00     0.108 A 
HETATM    5  C3  LIG X 999      40.696 125.071  24.031  1.00  0.00     0.008 A 
HETATM    6  C2  LIG X 999      41.540 124.073  24.417  1.00  0.00    -0.021 A 
HETATM    7  C15 LIG X 999      39.337 124.504  23.810  1.00  0.00     0.278 C 
HETATM    8  C1  LIG X 999      42.895 124.297  24.625  1.00  0.00     0.018 A 
HETATM    9  C18 LIG X 999      40.820 122.785  24.521  1.00  0.00     0.276 C 
HETATM   10  C6  LIG X 999      43.428 125.581  24.391  1.00  0.00    -0.035 A 
HETATM   11  C5  LIG X 999      42.539 126.652  24.064  1.00  0.00    -0.018 A 
HETATM   12  C7  LIG X 999      44.915 125.817  24.610  1.00  0.00     0.081 C 
HETATM   13  C14 LIG X 999      43.060 128.057  23.843  1.00  0.00     0.042 C 
HETATM   14  C13 LIG X 999      44.463 128.286  24.409  1.00  0.00     0.006 C 
HETATM   15  C12 LIG X 999      45.390 127.145  24.008  1.00  0.00     0.020 C 
HETATM   16  N4  LIG X 999      39.509 123.020  23.851  1.00  0.00    -0.067 N 
HETATM   17  C16 LIG X 999      39.545 122.478  22.472  1.00  0.00     0.272 C 
HETATM   18  C17 LIG X 999      38.407 122.377  24.600  1.00  0.00     0.272 C 
BRANCH  12  19
HETATM   19  S1  LIG X 999      45.919 124.477  23.843  1.00  0.00    -0.147 SA
BRANCH  19  20
HETATM   20  C8  LIG X 999      46.555 125.444  22.433  1.00  0.00     0.168 C 
BRANCH  20  21
HETATM   21  C9  LIG X 999      47.396 124.602  21.578  1.00  0.00    -0.097 C 
HETATM   22  C10 LIG X 999      48.094 123.908  20.880  1.00  0.00    -0.110 C 
HETATM   23  C11 LIG X 999      48.938 123.065  20.032  1.00  0.00     0.112 C 
ENDBRANCH  20  21
ENDBRANCH  19  20
ENDBRANCH  12  19
ENDBRANCH   1   4
TORSDOF 4
