REMARK VINA RESULT:      -5.9      0.000      0.000
REMARK  3 active torsions:
REMARK  status: ('A' for Active; 'I' for Inactive)
REMARK    1  A    between atoms: C3_3  and  S1_4 
REMARK    2  A    between atoms: S1_4  and  C4_7 
REMARK    3  A    between atoms: C6_9  and  N1_10 
ROOT
HETATM    1  C1  LIG X 999      43.409 131.741  21.104  1.00  0.00     0.013 C 
HETATM    2  C2  LIG X 999      43.136 131.018  22.030  1.00  0.00    -0.102 C 
HETATM    3  C3  LIG X 999      42.808 130.142  23.157  1.00  0.00     0.238 C 
ENDROOT
BRANCH   3   4
HETATM    4  S1  LIG X 999      44.039 128.857  23.328  1.00  0.00     0.186 S 
HETATM    5  O1  LIG X 999      44.765 129.085  24.625  1.00  0.00    -0.222 OA
HETATM    6  O2  LIG X 999      45.007 128.993  22.185  1.00  0.00    -0.222 OA
BRANCH   4   7
HETATM    7  C4  LIG X 999      43.369 127.207  23.315  1.00  0.00     0.073 A 
HETATM    8  C5  LIG X 999      42.013 127.017  23.633  1.00  0.00     0.058 A 
HETATM    9  C6  LIG X 999      41.442 125.734  23.659  1.00  0.00     0.095 A 
HETATM   10  C7  LIG X 999      42.228 124.624  23.355  1.00  0.00     0.046 A 
HETATM   11  C8  LIG X 999      43.578 124.776  23.017  1.00  0.00    -0.021 A 
HETATM   12  C9  LIG X 999      44.350 123.640  22.701  1.00  0.00     0.022 A 
HETATM   13  C13 LIG X 999      44.167 126.078  22.988  1.00  0.00    -0.004 A 
HETATM   14  C10 LIG X 999      45.689 123.812  22.363  1.00  0.00    -0.024 A 
HETATM   15  C11 LIG X 999      46.257 125.044  22.323  1.00  0.00    -0.024 A 
HETATM   16  C17 LIG X 999      46.667 122.773  21.973  1.00  0.00     0.276 C 
HETATM   17  C12 LIG X 999      45.530 126.196  22.621  1.00  0.00     0.023 A 
HETATM   18  C14 LIG X 999      47.672 124.950  21.900  1.00  0.00     0.276 C 
HETATM   19  N4  LIG X 999      47.977 123.486  21.836  1.00  0.00    -0.067 N 
HETATM   20  C15 LIG X 999      48.879 123.105  22.950  1.00  0.00     0.272 C 
HETATM   21  C16 LIG X 999      48.628 123.142  20.551  1.00  0.00     0.272 C 
BRANCH   9  22
HETATM   22  N1  LIG X 999      40.062 125.529  23.992  1.00  0.00    -0.073 NA
HETATM   23  N2  LIG X 999      39.553 124.408  24.035  1.00  0.00    -0.162 NA
HETATM   24  N3  LIG X 999      39.042 123.289  24.078  1.00  0.00     0.068 N 
ENDBRANCH   9  22
ENDBRANCH   4   7
ENDBRANCH   3   4
TORSDOF 3
