REMARK VINA RESULT:      -4.7      7.562      9.209
REMARK  2 active torsions:
REMARK  status: ('A' for Active; 'I' for Inactive)
REMARK    1  A    between atoms: O1_2  and  C2_3 
REMARK    2  A    between atoms: C11_12  and  N1_13 
ROOT
HETATM    1  C2  LIG X 999      41.432 125.296  23.002  1.00  0.00     0.095 A 
HETATM    2  C3  LIG X 999      42.754 125.695  23.282  1.00  0.00     0.051 A 
HETATM    3  C4  LIG X 999      43.839 124.907  22.872  1.00  0.00    -0.023 A 
HETATM    4  C5  LIG X 999      45.161 125.308  23.149  1.00  0.00     0.021 A 
HETATM    5  C6  LIG X 999      46.210 124.490  22.727  1.00  0.00    -0.024 A 
HETATM    6  C7  LIG X 999      45.982 123.329  22.053  1.00  0.00    -0.024 A 
HETATM    7  C8  LIG X 999      44.688 122.901  21.752  1.00  0.00     0.021 A 
HETATM    8  C9  LIG X 999      43.601 123.695  22.168  1.00  0.00    -0.023 A 
HETATM    9  C10 LIG X 999      42.286 123.303  21.893  1.00  0.00     0.044 A 
HETATM   10  C11 LIG X 999      41.203 124.094  22.304  1.00  0.00     0.060 A 
HETATM   11  C12 LIG X 999      47.259 122.675  21.698  1.00  0.00     0.276 C 
HETATM   12  N2  LIG X 999      48.326 123.480  22.373  1.00  0.00    -0.067 N 
HETATM   13  C13 LIG X 999      48.906 122.712  23.500  1.00  0.00     0.272 C 
HETATM   14  C14 LIG X 999      49.405 123.823  21.418  1.00  0.00     0.272 C 
HETATM   15  C15 LIG X 999      47.662 124.720  22.887  1.00  0.00     0.276 C 
ENDROOT
BRANCH  10  16
HETATM   16  N1  LIG X 999      39.868 123.667  22.009  1.00  0.00    -0.397 N 
HETATM   17  H8  LIG X 999      39.680 122.889  21.339  1.00  0.00     0.156 HD
HETATM   18  H9  LIG X 999      39.048 124.127  22.464  1.00  0.00     0.156 HD
ENDBRANCH  10  16
BRANCH   1  19
HETATM   19  O1  LIG X 999      40.328 126.067  23.402  1.00  0.00    -0.354 OA
HETATM   20  C1  LIG X 999      40.351 127.478  23.590  1.00  0.00     0.210 C 
ENDBRANCH   1  19
TORSDOF 2
