REMARK VINA RESULT:      -5.2      6.957      8.552
REMARK  1 active torsions:
REMARK  status: ('A' for Active; 'I' for Inactive)
REMARK    1  A    between atoms: N1_2  and  C1_3 
ROOT
HETATM    1  C1  LIG X 999      42.233 128.555  23.514  1.00  0.00     0.120 C 
HETATM    2  C2  LIG X 999      43.033 127.422  23.662  1.00  0.00     0.057 C 
HETATM    3  C3  LIG X 999      42.457 126.178  23.958  1.00  0.00    -0.045 C 
HETATM    4  C4  LIG X 999      43.409 125.094  24.402  1.00  0.00     0.049 C 
HETATM    5  C5  LIG X 999      41.030 126.052  23.964  1.00  0.00     0.008 C 
HETATM    6  C6  LIG X 999      40.310 124.813  24.033  1.00  0.00    -0.013 C 
HETATM    7  C7  LIG X 999      40.882 123.558  23.709  1.00  0.00     0.013 C 
HETATM    8  C8  LIG X 999      40.154 122.375  23.850  1.00  0.00     0.001 C 
HETATM    9  C9  LIG X 999      38.827 122.411  24.266  1.00  0.00     0.001 C 
HETATM   10  C10 LIG X 999      38.203 123.635  24.490  1.00  0.00     0.012 C 
HETATM   11  C11 LIG X 999      38.919 124.835  24.338  1.00  0.00    -0.025 C 
HETATM   12  C12 LIG X 999      38.240 126.051  24.434  1.00  0.00     0.014 C 
HETATM   13  C13 LIG X 999      38.899 127.244  24.179  1.00  0.00     0.031 C 
HETATM   14  C14 LIG X 999      40.278 127.262  23.934  1.00  0.00     0.045 C 
HETATM   15  N2  LIG X 999      40.890 128.457  23.691  1.00  0.00    -0.341 N 
HETATM   16  H12 LIG X 999      40.315 129.330  23.635  1.00  0.00     0.167 HD
ENDROOT
BRANCH   1  17
HETATM   17  N1  LIG X 999      42.764 129.709  23.253  1.00  0.00    -0.284 NA
HETATM   18  H1  LIG X 999      42.191 130.561  23.058  1.00  0.00     0.188 HD
ENDBRANCH   1  17
TORSDOF 1
