REMARK VINA RESULT:      -8.1      0.000      0.000
REMARK  1 active torsions:
REMARK  status: ('A' for Active; 'I' for Inactive)
REMARK    1  A    between atoms: C9_10  and  N2_11 
ROOT
HETATM    1  C1  LIG X 999      46.128 132.082  15.248  1.00  0.00     0.272 C 
HETATM    2  N1  LIG X 999      45.354 130.962  15.836  1.00  0.00    -0.067 N 
HETATM    3  C2  LIG X 999      45.159 129.918  14.805  1.00  0.00     0.272 C 
HETATM    4  C3  LIG X 999      44.034 131.461  16.338  1.00  0.00     0.276 C 
HETATM    5  C4  LIG X 999      44.128 131.416  17.814  1.00  0.00    -0.024 A 
HETATM    6  C5  LIG X 999      43.194 131.874  18.745  1.00  0.00     0.021 A 
HETATM    7  C6  LIG X 999      43.474 131.711  20.116  1.00  0.00    -0.025 A 
HETATM    8  C7  LIG X 999      42.568 132.158  21.087  1.00  0.00     0.014 A 
HETATM    9  C8  LIG X 999      42.853 131.990  22.445  1.00  0.00     0.030 A 
HETATM   10  C9  LIG X 999      44.046 131.375  22.851  1.00  0.00     0.026 A 
HETATM   11  C10 LIG X 999      44.960 130.922  21.888  1.00  0.00     0.041 A 
HETATM   12  C11 LIG X 999      44.687 131.085  20.522  1.00  0.00    -0.023 A 
HETATM   13  C12 LIG X 999      45.600 130.631  19.549  1.00  0.00     0.021 A 
HETATM   14  C13 LIG X 999      45.288 130.818  18.202  1.00  0.00    -0.024 A 
HETATM   15  C14 LIG X 999      46.079 130.405  17.022  1.00  0.00     0.276 C 
ENDROOT
BRANCH  10  16
HETATM   16  N2  LIG X 999      44.329 131.207  24.243  1.00  0.00    -0.399 N 
HETATM   17  H12 LIG X 999      43.676 131.575  24.970  1.00  0.00     0.156 HD
HETATM   18  H13 LIG X 999      45.195 130.715  24.558  1.00  0.00     0.156 HD
ENDBRANCH  10  16
TORSDOF 1
