REMARK VINA RESULT:      -7.4      1.866      7.102
REMARK  5 active torsions:
REMARK  status: ('A' for Active; 'I' for Inactive)
REMARK    1  A    between atoms: C3_3  and  O1_4 
REMARK    2  A    between atoms: O1_4  and  C4_5 
REMARK    3  A    between atoms: C4_5  and  C5_7 
REMARK    4  A    between atoms: C5_7  and  C6_8 
REMARK    5  A    between atoms: C11_13  and  O3_14 
ROOT
HETATM    1  C1  LIG X 999      45.091 127.408  22.572  1.00  0.00     0.014 C 
HETATM    2  C2  LIG X 999      44.137 127.883  23.137  1.00  0.00    -0.091 C 
HETATM    3  C3  LIG X 999      42.978 128.462  23.823  1.00  0.00     0.271 C 
ENDROOT
BRANCH   3   4
HETATM    4  O1  LIG X 999      42.496 129.598  23.109  1.00  0.00    -0.309 OA
BRANCH   4   5
HETATM    5  C4  LIG X 999      42.872 130.912  23.410  1.00  0.00     0.263 C 
HETATM    6  O2  LIG X 999      42.142 131.642  24.136  1.00  0.00    -0.265 OA
BRANCH   5   7
HETATM    7  C5  LIG X 999      44.127 131.470  22.821  1.00  0.00     0.149 C 
BRANCH   7   8
HETATM    8  C6  LIG X 999      44.001 131.546  21.324  1.00  0.00    -0.048 A 
HETATM    9  C7  LIG X 999      42.829 132.050  20.739  1.00  0.00     0.008 A 
HETATM   10  C8  LIG X 999      42.692 132.093  19.350  1.00  0.00     0.013 A 
HETATM   11  C9  LIG X 999      43.723 131.621  18.523  1.00  0.00    -0.023 A 
HETATM   12  C10 LIG X 999      43.593 131.658  17.126  1.00  0.00     0.049 A 
HETATM   13  C15 LIG X 999      44.902 131.098  19.106  1.00  0.00    -0.025 A 
HETATM   14  C11 LIG X 999      44.630 131.178  16.303  1.00  0.00     0.069 A 
HETATM   15  C13 LIG X 999      45.791 130.663  16.891  1.00  0.00     0.037 A 
HETATM   16  C14 LIG X 999      45.929 130.621  18.280  1.00  0.00     0.015 A 
HETATM   17  C16 LIG X 999      45.031 131.060  20.503  1.00  0.00     0.020 A 
BRANCH  14  18
HETATM   18  O3  LIG X 999      44.547 131.194  14.902  1.00  0.00    -0.356 OA
HETATM   19  C12 LIG X 999      45.651 130.979  14.029  1.00  0.00     0.210 C 
ENDBRANCH  14  18
ENDBRANCH   7   8
ENDBRANCH   5   7
ENDBRANCH   4   5
ENDBRANCH   3   4
TORSDOF 5
