REMARK VINA RESULT:      -6.6      2.985      5.209
REMARK  1 active torsions:
REMARK  status: ('A' for Active; 'I' for Inactive)
REMARK    1  A    between atoms: C8_8  and  N1_9 
ROOT
HETATM    1  N1  LIG X 999      44.250 131.464  22.664  1.00  0.00    -0.072 NA
HETATM    2  N2  LIG X 999      44.255 130.530  23.468  1.00  0.00    -0.162 NA
HETATM    3  N3  LIG X 999      44.257 129.599  24.272  1.00  0.00     0.068 N 
ENDROOT
BRANCH   1   4
HETATM    4  C8  LIG X 999      44.592 131.286  21.282  1.00  0.00     0.104 A 
HETATM    5  C7  LIG X 999      45.835 130.698  20.891  1.00  0.00     0.038 A 
HETATM    6  C6  LIG X 999      46.165 130.527  19.526  1.00  0.00     0.035 A 
HETATM    7  C5  LIG X 999      45.243 130.948  18.569  1.00  0.00     0.073 A 
HETATM    8  C4  LIG X 999      44.064 131.507  18.961  1.00  0.00     0.021 A 
HETATM    9  N4  LIG X 999      45.349 130.883  17.142  1.00  0.00    -0.209 NA
HETATM   10  C3  LIG X 999      43.303 131.851  17.892  1.00  0.00     0.047 A 
HETATM   11  C9  LIG X 999      43.686 131.701  20.279  1.00  0.00     0.009 A 
HETATM   12  C2  LIG X 999      42.053 132.441  18.067  1.00  0.00     0.018 A 
HETATM   13  C11 LIG X 999      44.100 131.464  16.730  1.00  0.00     0.278 A 
HETATM   14  C1  LIG X 999      41.612 132.664  19.393  1.00  0.00     0.002 A 
HETATM   15  C10 LIG X 999      42.424 132.296  20.500  1.00  0.00     0.015 A 
HETATM   16  O1  LIG X 999      43.758 131.609  15.528  1.00  0.00    -0.265 OA
ENDBRANCH   1   4
TORSDOF 1
