REMARK VINA RESULT:      -5.6      1.742      2.296
REMARK  5 active torsions:
REMARK  status: ('A' for Active; 'I' for Inactive)
REMARK    1  A    between atoms: C6_6  and  C7_7 
REMARK    2  A    between atoms: C7_7  and  N1_8 
REMARK    3  A    between atoms: N4_11  and  C8_12 
REMARK    4  A    between atoms: C8_12  and  C9_13 
REMARK    5  A    between atoms: C9_13  and  N5_14 
ROOT
HETATM    1  N1  LIG X 999      45.899 129.350  20.900  1.00  0.00    -0.052 NA
HETATM    2  N2  LIG X 999      45.455 128.600  21.770  1.00  0.00    -0.160 NA
HETATM    3  N3  LIG X 999      45.012 127.851  22.640  1.00  0.00     0.068 N 
ENDROOT
BRANCH   1   4
HETATM    4  C7  LIG X 999      45.163 130.490  20.445  1.00  0.00     0.191 C 
HETATM    5  N4  LIG X 999      44.532 131.238  21.309  1.00  0.00    -0.267 NA
BRANCH   4   6
HETATM    6  C6  LIG X 999      45.119 130.748  18.992  1.00  0.00     0.015 A 
HETATM    7  C5  LIG X 999      46.075 130.181  18.136  1.00  0.00     0.027 A 
HETATM    8  C4  LIG X 999      46.017 130.419  16.754  1.00  0.00    -0.025 A 
HETATM    9  C3  LIG X 999      46.978 129.868  15.892  1.00  0.00     0.012 A 
HETATM   10  C12 LIG X 999      44.976 131.219  16.223  1.00  0.00    -0.026 A 
HETATM   11  C2  LIG X 999      46.910 130.113  14.517  1.00  0.00     0.001 A 
HETATM   12  C1  LIG X 999      45.885 130.905  13.993  1.00  0.00     0.001 A 
HETATM   13  C13 LIG X 999      44.920 131.457  14.840  1.00  0.00     0.012 A 
HETATM   14  C11 LIG X 999      44.010 131.761  17.082  1.00  0.00     0.013 A 
HETATM   15  C10 LIG X 999      44.077 131.519  18.457  1.00  0.00     0.016 A 
ENDBRANCH   4   6
BRANCH   5  16
HETATM   16  C8  LIG X 999      43.669 132.387  21.021  1.00  0.00     0.178 C 
BRANCH  16  17
HETATM   17  C9  LIG X 999      42.220 132.136  21.462  1.00  0.00     0.251 C 
BRANCH  17  18
HETATM   18  N5  LIG X 999      42.137 131.815  22.888  1.00  0.00    -0.078 N 
HETATM   19  H9  LIG X 999      41.706 132.622  23.393  1.00  0.00     0.274 HD
HETATM   20  H10 LIG X 999      41.540 130.971  23.035  1.00  0.00     0.274 HD
HETATM   21  H11 LIG X 999      43.093 131.645  23.275  1.00  0.00     0.274 HD
ENDBRANCH  17  18
ENDBRANCH  16  17
ENDBRANCH   5  16
ENDBRANCH   1   4
TORSDOF 5
