REMARK VINA RESULT:      -5.7      1.862      6.418
REMARK  1 active torsions:
REMARK  status: ('A' for Active; 'I' for Inactive)
REMARK    1  A    between atoms: C9_10  and  N2_11 
ROOT
HETATM    1  C1  LIG X 999      44.874 132.097  21.567  1.00  0.00     0.272 C 
HETATM    2  N1  LIG X 999      44.356 131.545  20.294  1.00  0.00    -0.067 N 
HETATM    3  C2  LIG X 999      42.919 131.220  20.460  1.00  0.00     0.272 C 
HETATM    4  C3  LIG X 999      45.118 130.315  19.903  1.00  0.00     0.276 C 
HETATM    5  C4  LIG X 999      45.497 130.517  18.488  1.00  0.00    -0.024 A 
HETATM    6  C5  LIG X 999      46.131 129.612  17.634  1.00  0.00     0.021 A 
HETATM    7  C6  LIG X 999      46.424 130.019  16.319  1.00  0.00    -0.025 A 
HETATM    8  C7  LIG X 999      47.057 129.144  15.424  1.00  0.00     0.014 A 
HETATM    9  C8  LIG X 999      47.345 129.557  14.121  1.00  0.00     0.030 A 
HETATM   10  C9  LIG X 999      47.007 130.849  13.693  1.00  0.00     0.026 A 
HETATM   11  C10 LIG X 999      46.375 131.733  14.578  1.00  0.00     0.041 A 
HETATM   12  C11 LIG X 999      46.078 131.332  15.889  1.00  0.00    -0.023 A 
HETATM   13  C12 LIG X 999      45.446 132.217  16.784  1.00  0.00     0.021 A 
HETATM   14  C13 LIG X 999      45.166 131.773  18.077  1.00  0.00    -0.024 A 
HETATM   15  C14 LIG X 999      44.535 132.529  19.180  1.00  0.00     0.276 C 
ENDROOT
BRANCH  10  16
HETATM   16  N2  LIG X 999      47.307 131.263  12.358  1.00  0.00    -0.399 N 
HETATM   17  H12 LIG X 999      47.357 130.567  11.580  1.00  0.00     0.156 HD
HETATM   18  H13 LIG X 999      47.483 132.268  12.136  1.00  0.00     0.156 HD
ENDBRANCH  10  16
TORSDOF 1
