REMARK VINA RESULT:      -6.4      1.770      5.591
REMARK  1 active torsions:
REMARK  status: ('A' for Active; 'I' for Inactive)
REMARK    1  A    between atoms: C10_11  and  N2_12 
ROOT
HETATM    1  C1  LIG X 999      44.109 132.262  24.476  1.00  0.00     0.272 C 
HETATM    2  N1  LIG X 999      43.696 131.071  23.696  1.00  0.00    -0.067 N 
HETATM    3  C2  LIG X 999      43.168 130.046  24.625  1.00  0.00     0.272 C 
HETATM    4  C3  LIG X 999      44.861 130.536  22.922  1.00  0.00     0.276 C 
HETATM    5  C4  LIG X 999      44.580 130.857  21.506  1.00  0.00    -0.024 A 
HETATM    6  C5  LIG X 999      45.403 130.648  20.405  1.00  0.00     0.021 A 
HETATM    7  C6  LIG X 999      44.928 131.001  19.126  1.00  0.00    -0.023 A 
HETATM    8  C7  LIG X 999      45.739 130.790  18.003  1.00  0.00     0.012 A 
HETATM    9  C8  LIG X 999      45.279 131.124  16.732  1.00  0.00     0.003 A 
HETATM   10  C9  LIG X 999      44.010 131.677  16.566  1.00  0.00     0.030 A 
HETATM   11  C10 LIG X 999      43.172 131.912  17.667  1.00  0.00     0.036 A 
HETATM   12  C11 LIG X 999      43.621 131.564  18.971  1.00  0.00     0.001 A 
HETATM   13  C12 LIG X 999      42.817 131.737  20.126  1.00  0.00     0.024 A 
HETATM   14  C13 LIG X 999      43.332 131.379  21.372  1.00  0.00    -0.023 A 
HETATM   15  C14 LIG X 999      42.658 131.455  22.686  1.00  0.00     0.276 C 
ENDROOT
BRANCH  11  16
HETATM   16  N2  LIG X 999      41.889 132.511  17.424  1.00  0.00    -0.398 N 
HETATM   17  H13 LIG X 999      41.519 133.319  17.968  1.00  0.00     0.156 HD
HETATM   18  H14 LIG X 999      41.304 132.189  16.621  1.00  0.00     0.156 HD
ENDBRANCH  11  16
TORSDOF 1
