REMARK VINA RESULT:      -7.1      2.686      5.473
REMARK  1 active torsions:
REMARK  status: ('A' for Active; 'I' for Inactive)
REMARK    1  A    between atoms: C11_13  and  N2_14 
ROOT
HETATM    1  N2  LIG X 999      45.002 130.989  22.000  1.00  0.00    -0.053 NA
HETATM    2  N3  LIG X 999      44.378 130.146  22.647  1.00  0.00    -0.160 NA
HETATM    3  N4  LIG X 999      43.755 129.306  23.293  1.00  0.00     0.068 N 
ENDROOT
BRANCH   1   4
HETATM    4  C11 LIG X 999      44.961 131.004  20.572  1.00  0.00     0.175 A 
HETATM    5  C10 LIG X 999      43.908 131.488  19.810  1.00  0.00     0.026 A 
HETATM    6  C5  LIG X 999      44.290 131.308  18.524  1.00  0.00     0.017 A 
HETATM    7  C9  LIG X 999      42.672 132.059  20.109  1.00  0.00     0.016 A 
HETATM    8  C4  LIG X 999      45.521 130.740  18.501  1.00  0.00     0.046 A 
HETATM    9  C6  LIG X 999      43.538 131.652  17.422  1.00  0.00     0.005 A 
HETATM   10  C3  LIG X 999      46.181 130.431  17.222  1.00  0.00     0.033 A 
HETATM   11  N5  LIG X 999      45.959 130.542  19.764  1.00  0.00    -0.337 N 
HETATM   12  C2  LIG X 999      45.529 130.730  16.075  1.00  0.00     0.034 A 
HETATM   13  C1  LIG X 999      44.165 131.360  16.095  1.00  0.00     0.059 A 
HETATM   14  N1  LIG X 999      43.573 131.630  14.975  1.00  0.00    -0.300 NA
HETATM   15  H1  LIG X 999      42.627 132.067  14.918  1.00  0.00     0.187 HD
HETATM   16  H7  LIG X 999      46.869 130.122  20.054  1.00  0.00     0.167 HD
HETATM   17  C7  LIG X 999      42.275 132.236  17.677  1.00  0.00     0.015 A 
HETATM   18  C8  LIG X 999      41.849 132.437  19.020  1.00  0.00     0.002 A 
ENDBRANCH   1   4
TORSDOF 1
