REMARK VINA RESULT:      -7.4      0.000      0.000
REMARK  1 active torsions:
REMARK  status: ('A' for Active; 'I' for Inactive)
REMARK    1  A    between atoms: C7_7  and  N1_8 
ROOT
HETATM    1  N1  LIG X 999      45.465 131.711  17.557  1.00  0.00    -0.110 NA
HETATM    2  N2  LIG X 999      44.839 131.764  18.616  1.00  0.00    -0.167 NA
HETATM    3  N3  LIG X 999      44.216 131.815  19.675  1.00  0.00     0.068 N 
ENDROOT
BRANCH   1   4
HETATM    4  C7  LIG X 999      45.499 130.488  16.757  1.00  0.00     0.153 C 
HETATM    5  C6  LIG X 999      44.143 130.290  16.059  1.00  0.00     0.031 C 
HETATM    6  C5  LIG X 999      43.887 131.373  15.005  1.00  0.00     0.003 C 
HETATM    7  C4  LIG X 999      45.004 131.392  13.959  1.00  0.00     0.009 C 
HETATM    8  C3  LIG X 999      46.384 131.608  14.613  1.00  0.00     0.018 C 
HETATM    9  C2  LIG X 999      47.459 131.525  13.552  1.00  0.00    -0.021 C 
HETATM   10  C8  LIG X 999      46.660 130.568  15.736  1.00  0.00     0.043 C 
HETATM   11  C1  LIG X 999      48.025 130.351  13.244  1.00  0.00    -0.004 C 
HETATM   12  C10 LIG X 999      47.688 129.132  14.004  1.00  0.00    -0.004 C 
HETATM   13  C9  LIG X 999      46.993 129.214  15.144  1.00  0.00    -0.019 C 
ENDBRANCH   1   4
TORSDOF 1
