REMARK VINA RESULT:      -4.7      1.639      1.658
REMARK  6 active torsions:
REMARK  status: ('A' for Active; 'I' for Inactive)
REMARK    1  A    between atoms: C8_8  and  O1_9 
REMARK    2  A    between atoms: O1_9  and  C9_10 
REMARK    3  A    between atoms: C9_10  and  C10_11 
REMARK    4  A    between atoms: C10_11  and  C11_12 
REMARK    5  A    between atoms: C11_12  and  N1_13 
REMARK    6  A    between atoms: C13_18  and  N4_19 
ROOT
HETATM    1  N1  LIG X 999      45.417 130.713  18.428  1.00  0.00    -0.116 NA
HETATM    2  N2  LIG X 999      45.422 131.427  17.425  1.00  0.00    -0.168 NA
HETATM    3  N3  LIG X 999      45.428 132.139  16.423  1.00  0.00     0.068 N 
ENDROOT
BRANCH   1   4
HETATM    4  C11 LIG X 999      45.109 131.274  19.734  1.00  0.00     0.191 C 
BRANCH   4   5
HETATM    5  C10 LIG X 999      45.692 130.379  20.829  1.00  0.00     0.051 C 
BRANCH   5   6
HETATM    6  C9  LIG X 999      44.680 130.115  21.945  1.00  0.00     0.170 C 
BRANCH   6   7
HETATM    7  O1  LIG X 999      44.564 128.723  22.158  1.00  0.00    -0.384 OA
BRANCH   7   8
HETATM    8  C8  LIG X 999      44.856 128.390  23.507  1.00  0.00     0.146 C 
HETATM    9  C7  LIG X 999      43.687 128.806  24.410  1.00  0.00     0.072 C 
HETATM   10  C5  LIG X 999      42.448 127.981  24.164  1.00  0.00    -0.047 A 
HETATM   11  C4  LIG X 999      42.523 126.675  23.615  1.00  0.00    -0.023 A 
HETATM   12  C6  LIG X 999      41.204 128.496  24.562  1.00  0.00     0.008 A 
HETATM   13  C3  LIG X 999      41.332 125.953  23.410  1.00  0.00     0.010 A 
HETATM   14  C13 LIG X 999      43.837 126.089  23.126  1.00  0.00     0.199 C 
HETATM   15  C2  LIG X 999      40.100 126.487  23.795  1.00  0.00     0.001 A 
HETATM   16  C1  LIG X 999      40.037 127.753  24.376  1.00  0.00     0.001 A 
HETATM   17  C12 LIG X 999      45.068 126.875  23.625  1.00  0.00     0.143 C 
HETATM   18 CL1  LIG X 999      46.522 126.393  22.702  1.00  0.00    -0.120 Cl
BRANCH  14  19
HETATM   19  N4  LIG X 999      43.955 124.700  23.567  1.00  0.00    -0.104 NA
HETATM   20  N5  LIG X 999      44.190 123.794  22.766  1.00  0.00    -0.167 NA
HETATM   21  N6  LIG X 999      44.423 122.890  21.966  1.00  0.00     0.068 N 
ENDBRANCH  14  19
ENDBRANCH   7   8
ENDBRANCH   6   7
ENDBRANCH   5   6
ENDBRANCH   4   5
ENDBRANCH   1   4
TORSDOF 6
