REMARK VINA RESULT:      -4.2      2.615      4.734
REMARK  3 active torsions:
REMARK  status: ('A' for Active; 'I' for Inactive)
REMARK    1  A    between atoms: C5_5  and  N1_6 
REMARK    2  A    between atoms: C6_9  and  N4_10 
REMARK    3  A    between atoms: C8_15  and  N7_16 
ROOT
HETATM    1  N1  LIG X 999      40.074 127.415  24.625  1.00  0.00    -0.069 NA
HETATM    2  N2  LIG X 999      39.080 127.134  23.955  1.00  0.00    -0.162 NA
HETATM    3  N3  LIG X 999      38.085 126.857  23.285  1.00  0.00     0.068 N 
ENDROOT
BRANCH   1   4
HETATM    4  C5  LIG X 999      41.403 127.066  24.202  1.00  0.00     0.137 C 
HETATM    5  C4  LIG X 999      42.309 128.100  23.871  1.00  0.00     0.011 A 
HETATM    6  C3  LIG X 999      41.966 129.452  24.085  1.00  0.00     0.015 A 
HETATM    7  C9  LIG X 999      43.577 127.784  23.312  1.00  0.00     0.010 A 
HETATM    8  C2  LIG X 999      42.872 130.469  23.794  1.00  0.00     0.001 A 
HETATM    9  C1  LIG X 999      44.135 130.160  23.295  1.00  0.00     0.001 A 
HETATM   10  C10 LIG X 999      44.491 128.832  23.062  1.00  0.00     0.015 A 
HETATM   11  C8  LIG X 999      43.906 126.430  23.048  1.00  0.00     0.128 C 
HETATM   12  C7  LIG X 999      43.038 125.412  23.470  1.00  0.00     0.100 C 
HETATM   13  C6  LIG X 999      41.811 125.715  24.078  1.00  0.00     0.149 C 
HETATM   14 CL1  LIG X 999      43.500 123.723  23.239  1.00  0.00    -0.079 Cl
BRANCH  11  15
HETATM   15  N7  LIG X 999      45.114 126.050  22.370  1.00  0.00    -0.070 NA
HETATM   16  N8  LIG X 999      46.188 125.935  22.963  1.00  0.00    -0.162 NA
HETATM   17  N9  LIG X 999      47.261 125.823  23.553  1.00  0.00     0.068 N 
ENDBRANCH  11  15
BRANCH  13  18
HETATM   18  N4  LIG X 999      41.026 124.629  24.593  1.00  0.00    -0.068 NA
HETATM   19  N5  LIG X 999      40.278 123.963  23.874  1.00  0.00    -0.162 NA
HETATM   20  N6  LIG X 999      39.527 123.299  23.160  1.00  0.00     0.068 N 
ENDBRANCH  13  18
ENDBRANCH   1   4
TORSDOF 3
