REMARK VINA RESULT:      -7.8      1.775      6.632
REMARK  4 active torsions:
REMARK  status: ('A' for Active; 'I' for Inactive)
REMARK    1  A    between atoms: C3_3  and  O1_4 
REMARK    2  A    between atoms: O1_4  and  C4_5 
REMARK    3  A    between atoms: C4_5  and  O2_6 
REMARK    4  A    between atoms: C5_8  and  C6_9 
ROOT
HETATM    1  C1  LIG X 999      42.159 132.261  20.533  1.00  0.00     0.014 C 
HETATM    2  C2  LIG X 999      43.359 132.306  20.423  1.00  0.00    -0.091 C 
HETATM    3  C3  LIG X 999      44.815 132.358  20.288  1.00  0.00     0.270 C 
ENDROOT
BRANCH   3   4
HETATM    4  O1  LIG X 999      45.191 131.745  19.063  1.00  0.00    -0.319 OA
BRANCH   4   5
HETATM    5  C4  LIG X 999      45.711 130.449  19.000  1.00  0.00     0.179 C 
HETATM    6  C5  LIG X 999      45.817 129.826  17.819  1.00  0.00     0.075 C 
BRANCH   5   7
HETATM    7  O2  LIG X 999      46.129 129.812  20.169  1.00  0.00    -0.341 OA
HETATM    8  H4  LIG X 999      45.483 129.587  20.918  1.00  0.00     0.220 HD
ENDBRANCH   5   7
BRANCH   6   9
HETATM    9  C6  LIG X 999      45.430 130.467  16.543  1.00  0.00    -0.021 A 
HETATM   10  C7  LIG X 999      44.220 131.177  16.517  1.00  0.00     0.012 A 
HETATM   11  C8  LIG X 999      43.765 131.766  15.337  1.00  0.00     0.002 A 
HETATM   12  C9  LIG X 999      44.514 131.666  14.166  1.00  0.00     0.012 A 
HETATM   13  C10 LIG X 999      45.743 130.992  14.169  1.00  0.00    -0.025 A 
HETATM   14  C11 LIG X 999      46.505 130.919  12.992  1.00  0.00     0.012 A 
HETATM   15  C15 LIG X 999      46.224 130.396  15.366  1.00  0.00    -0.015 A 
HETATM   16  C12 LIG X 999      47.744 130.277  12.995  1.00  0.00     0.001 A 
HETATM   17  C13 LIG X 999      48.239 129.716  14.173  1.00  0.00     0.001 A 
HETATM   18  C14 LIG X 999      47.493 129.778  15.352  1.00  0.00     0.013 A 
ENDBRANCH   6   9
ENDBRANCH   4   5
ENDBRANCH   3   4
TORSDOF 4
