REMARK VINA RESULT:      -3.4      2.808      4.996
REMARK  3 active torsions:
REMARK  status: ('A' for Active; 'I' for Inactive)
REMARK    1  A    between atoms: C3_3  and  O1_4 
REMARK    2  A    between atoms: O1_4  and  C4_5 
REMARK    3  A    between atoms: C15_16  and  C16_17 
ROOT
HETATM    1  C1  LIG X 999      41.865 131.914  18.903  1.00  0.00     0.014 C 
HETATM    2  C2  LIG X 999      42.824 131.914  19.633  1.00  0.00    -0.091 C 
HETATM    3  C3  LIG X 999      43.990 131.913  20.518  1.00  0.00     0.268 C 
ENDROOT
BRANCH   3   4
HETATM    4  O1  LIG X 999      44.250 130.580  20.946  1.00  0.00    -0.339 OA
BRANCH   4   5
HETATM    5  C4  LIG X 999      43.959 130.071  22.224  1.00  0.00     0.083 C 
HETATM    6  C5  LIG X 999      42.965 130.692  23.027  1.00  0.00     0.038 C 
HETATM    7  C6  LIG X 999      42.244 130.098  24.079  1.00  0.00     0.003 C 
HETATM    8  C7  LIG X 999      42.108 128.724  24.296  1.00  0.00     0.002 C 
HETATM    9  C8  LIG X 999      42.155 127.776  23.269  1.00  0.00     0.020 C 
HETATM   10  C9  LIG X 999      42.839 126.558  23.405  1.00  0.00     0.016 C 
HETATM   11  C10 LIG X 999      42.404 125.440  22.609  1.00  0.00    -0.078 C 
HETATM   12  C12 LIG X 999      43.987 126.398  24.209  1.00  0.00     0.020 C 
HETATM   13  C11 LIG X 999      42.041 124.504  21.943  1.00  0.00     0.018 C 
HETATM   14  C13 LIG X 999      44.851 127.435  24.620  1.00  0.00     0.002 C 
HETATM   15  C14 LIG X 999      44.957 128.694  24.003  1.00  0.00     0.017 C 
HETATM   16  C15 LIG X 999      44.687 128.933  22.640  1.00  0.00     0.035 C 
BRANCH  16  17
HETATM   17  C16 LIG X 999      45.220 128.015  21.607  1.00  0.00     0.272 C 
HETATM   18  O2  LIG X 999      45.877 126.986  21.923  1.00  0.00    -0.301 OA
ENDBRANCH  16  17
ENDBRANCH   4   5
ENDBRANCH   3   4
TORSDOF 3
