REMARK VINA RESULT:      -4.8      5.627      7.241
REMARK  1 active torsions:
REMARK  status: ('A' for Active; 'I' for Inactive)
REMARK    1  A    between atoms: N1_2  and  C1_3 
ROOT
HETATM    1  C1  LIG X 999      43.818 129.218  23.610  1.00  0.00     0.143 C 
HETATM    2  N2  LIG X 999      42.510 129.189  23.961  1.00  0.00    -0.229 NA
HETATM    3  C2  LIG X 999      41.774 128.049  23.922  1.00  0.00     0.070 C 
HETATM    4  C3  LIG X 999      40.453 128.097  24.366  1.00  0.00     0.033 C 
HETATM    5  C4  LIG X 999      39.662 126.957  24.355  1.00  0.00     0.014 C 
HETATM    6  C5  LIG X 999      40.143 125.771  23.793  1.00  0.00    -0.025 C 
HETATM    7  C6  LIG X 999      39.286 124.662  23.696  1.00  0.00     0.012 C 
HETATM    8  C7  LIG X 999      39.695 123.514  23.025  1.00  0.00     0.001 C 
HETATM    9  C8  LIG X 999      40.943 123.477  22.409  1.00  0.00     0.001 C 
HETATM   10  C9  LIG X 999      41.811 124.567  22.509  1.00  0.00     0.013 C 
HETATM   11  C10 LIG X 999      41.470 125.706  23.275  1.00  0.00    -0.013 C 
HETATM   12  C11 LIG X 999      42.347 126.829  23.460  1.00  0.00     0.010 C 
HETATM   13  C12 LIG X 999      43.764 126.821  23.254  1.00  0.00    -0.045 C 
HETATM   14  C13 LIG X 999      44.607 125.571  23.171  1.00  0.00     0.049 C 
HETATM   15  C14 LIG X 999      44.467 128.037  23.266  1.00  0.00     0.059 C 
ENDROOT
BRANCH   1  16
HETATM   16  N1  LIG X 999      44.474 130.334  23.637  1.00  0.00    -0.282 NA
HETATM   17  H1  LIG X 999      44.981 130.690  22.795  1.00  0.00     0.188 HD
ENDBRANCH   1  16
TORSDOF 1
