REMARK VINA RESULT:      -7.4      1.640      2.310
REMARK  6 active torsions:
REMARK  status: ('A' for Active; 'I' for Inactive)
REMARK    1  A    between atoms: C2_2  and  C3_3 
REMARK    2  A    between atoms: C3_3  and  O1_4 
REMARK    3  A    between atoms: O1_4  and  C4_5 
REMARK    4  A    between atoms: C4_5  and  C6_7 
REMARK    5  A    between atoms: C6_7  and  C7_8 
REMARK       I    between atoms: N1_10  and  C9_11 
REMARK    6  A    between atoms: C9_11  and  C10_13 
ROOT
HETATM    1  C7  LIG X 999      43.065 131.267  22.627  1.00  0.00     0.043 A 
HETATM    2  C8  LIG X 999      44.287 130.853  22.140  1.00  0.00     0.144 A 
HETATM    3  N1  LIG X 999      44.286 131.134  20.821  1.00  0.00    -0.213 N 
HETATM    4  C9  LIG X 999      45.374 130.933  19.905  1.00  0.00     0.274 C 
HETATM    5  O2  LIG X 999      46.525 130.690  20.360  1.00  0.00    -0.266 OA
HETATM    6  N2  LIG X 999      43.130 131.707  20.515  1.00  0.00    -0.013 NA
HETATM    7  N3  LIG X 999      42.374 131.792  21.598  1.00  0.00    -0.286 N 
HETATM    8  H20 LIG X 999      41.414 132.199  21.625  1.00  0.00     0.184 HD
ENDROOT
BRANCH   4   9
HETATM    9  C10 LIG X 999      45.181 131.023  18.440  1.00  0.00     0.034 A 
HETATM   10  C11 LIG X 999      44.021 131.623  17.923  1.00  0.00     0.018 A 
HETATM   11  C12 LIG X 999      43.827 131.725  16.543  1.00  0.00     0.013 A 
HETATM   12  C13 LIG X 999      44.796 131.240  15.655  1.00  0.00    -0.026 A 
HETATM   13  C14 LIG X 999      44.611 131.338  14.268  1.00  0.00     0.012 A 
HETATM   14  C18 LIG X 999      45.977 130.648  16.165  1.00  0.00    -0.025 A 
HETATM   15  C15 LIG X 999      45.588 130.854  13.393  1.00  0.00     0.001 A 
HETATM   16  C16 LIG X 999      46.754 130.271  13.896  1.00  0.00     0.001 A 
HETATM   17  C17 LIG X 999      46.952 130.168  15.276  1.00  0.00     0.012 A 
HETATM   18  C19 LIG X 999      46.163 130.549  17.552  1.00  0.00     0.029 A 
ENDBRANCH   4   9
BRANCH   1  19
HETATM   19  C6  LIG X 999      42.588 131.214  24.049  1.00  0.00     0.091 C 
BRANCH  19  20
HETATM   20  C4  LIG X 999      42.490 129.774  24.595  1.00  0.00     0.123 C 
HETATM   21  C5  LIG X 999      41.557 128.913  23.740  1.00  0.00     0.040 C 
BRANCH  20  22
HETATM   22  O1  LIG X 999      43.770 129.161  24.625  1.00  0.00    -0.382 OA
BRANCH  22  23
HETATM   23  C3  LIG X 999      43.734 127.891  24.004  1.00  0.00     0.194 C 
BRANCH  23  24
HETATM   24  C2  LIG X 999      45.093 127.565  23.461  1.00  0.00    -0.011 C 
HETATM   25  C1  LIG X 999      45.260 126.679  22.475  1.00  0.00     0.009 C 
ENDBRANCH  23  24
ENDBRANCH  22  23
ENDBRANCH  20  22
ENDBRANCH  19  20
ENDBRANCH   1  19
TORSDOF 6
