MODEL 1
REMARK VINA RESULT:      -4.5      0.000      0.000
REMARK  2 active torsions:
REMARK  status: ('A' for Active; 'I' for Inactive)
REMARK    1  A    between atoms: C4_4  and  O1_5 
REMARK    2  A    between atoms: C10_11  and  N1_12 
ROOT
HETATM    1  N1  LIG X 999      45.386 127.011  22.047  1.00  0.00    -0.072 NA
HETATM    2  N2  LIG X 999      45.008 127.877  22.836  1.00  0.00    -0.162 NA
HETATM    3  N3  LIG X 999      44.630 128.742  23.624  1.00  0.00     0.068 N 
ENDROOT
BRANCH   1   4
HETATM    4  C10 LIG X 999      45.975 125.777  22.485  1.00  0.00     0.101 C 
HETATM    5  C9  LIG X 999      45.189 124.606  22.408  1.00  0.00     0.007 C 
HETATM    6  C8  LIG X 999      45.635 123.297  22.301  1.00  0.00    -0.022 C 
HETATM    7  C12 LIG X 999      43.711 124.604  22.593  1.00  0.00     0.278 C 
HETATM    8  C7  LIG X 999      46.924 122.870  21.954  1.00  0.00     0.012 C 
HETATM    9  C15 LIG X 999      44.545 122.375  22.697  1.00  0.00     0.276 C 
HETATM   10  C6  LIG X 999      47.737 123.601  21.080  1.00  0.00     0.037 C 
HETATM   11  C4  LIG X 999      49.118 123.791  21.287  1.00  0.00     0.068 C 
HETATM   12  C3  LIG X 999      49.695 123.865  22.571  1.00  0.00     0.037 C 
HETATM   13  C2  LIG X 999      49.028 124.189  23.768  1.00  0.00     0.003 C 
HETATM   14  C1  LIG X 999      47.787 124.834  23.856  1.00  0.00     0.002 C 
HETATM   15  C11 LIG X 999      47.321 125.744  22.898  1.00  0.00     0.035 C 
HETATM   16  N4  LIG X 999      43.289 123.171  22.599  1.00  0.00    -0.067 N 
HETATM   17  C13 LIG X 999      42.396 122.886  23.745  1.00  0.00     0.272 C 
HETATM   18  C14 LIG X 999      42.578 122.844  21.339  1.00  0.00     0.272 C 
BRANCH  11  19
HETATM   19  O1  LIG X 999      49.987 123.955  20.198  1.00  0.00    -0.356 OA
HETATM   20  C5  LIG X 999      50.280 122.941  19.241  1.00  0.00     0.210 C 
ENDBRANCH  11  19
ENDBRANCH   1   4
TORSDOF 2
ENDMDL
MODEL 2
REMARK VINA RESULT:      -4.1      3.155      5.453
REMARK  2 active torsions:
REMARK  status: ('A' for Active; 'I' for Inactive)
REMARK    1  A    between atoms: C4_4  and  O1_5 
REMARK    2  A    between atoms: C10_11  and  N1_12 
ROOT
HETATM    1  N1  LIG X 999      42.726 124.439  21.620  1.00  0.00    -0.072 NA
HETATM    2  N2  LIG X 999      41.574 124.189  21.979  1.00  0.00    -0.162 NA
HETATM    3  N3  LIG X 999      40.425 123.940  22.337  1.00  0.00     0.068 N 
ENDROOT
BRANCH   1   4
HETATM    4  C10 LIG X 999      43.631 125.210  22.424  1.00  0.00     0.101 C 
HETATM    5  C9  LIG X 999      44.991 124.830  22.437  1.00  0.00     0.007 C 
HETATM    6  C8  LIG X 999      46.089 125.634  22.708  1.00  0.00    -0.022 C 
HETATM    7  C12 LIG X 999      45.443 123.417  22.306  1.00  0.00     0.278 C 
HETATM    8  C7  LIG X 999      46.123 127.034  22.736  1.00  0.00     0.012 C 
HETATM    9  C15 LIG X 999      47.247 124.779  23.055  1.00  0.00     0.276 C 
HETATM   10  C6  LIG X 999      45.298 127.813  21.915  1.00  0.00     0.037 C 
HETATM   11  C4  LIG X 999      44.647 128.981  22.361  1.00  0.00     0.068 C 
HETATM   12  C3  LIG X 999      44.213 129.154  23.691  1.00  0.00     0.037 C 
HETATM   13  C2  LIG X 999      43.957 128.132  24.625  1.00  0.00     0.003 C 
HETATM   14  C1  LIG X 999      43.740 126.784  24.313  1.00  0.00     0.002 C 
HETATM   15  C11 LIG X 999      43.172 126.353  23.106  1.00  0.00     0.035 C 
HETATM   16  N4  LIG X 999      46.920 123.423  22.530  1.00  0.00    -0.067 N 
HETATM   17  C13 LIG X 999      47.314 122.375  23.499  1.00  0.00     0.272 C 
HETATM   18  C14 LIG X 999      47.630 123.190  21.249  1.00  0.00     0.272 C 
BRANCH  11  19
HETATM   19  O1  LIG X 999      44.366 130.025  21.467  1.00  0.00    -0.356 OA
HETATM   20  C5  LIG X 999      43.394 131.041  21.694  1.00  0.00     0.210 C 
ENDBRANCH  11  19
ENDBRANCH   1   4
TORSDOF 2
ENDMDL
MODEL 3
REMARK VINA RESULT:      -3.6      4.914      6.561
REMARK  2 active torsions:
REMARK  status: ('A' for Active; 'I' for Inactive)
REMARK    1  A    between atoms: C4_4  and  O1_5 
REMARK    2  A    between atoms: C10_11  and  N1_12 
ROOT
HETATM    1  N1  LIG X 999      40.621 127.315  22.982  1.00  0.00    -0.072 NA
HETATM    2  N2  LIG X 999      39.712 127.121  23.791  1.00  0.00    -0.162 NA
HETATM    3  N3  LIG X 999      38.805 126.928  24.598  1.00  0.00     0.068 N 
ENDROOT
BRANCH   1   4
HETATM    4  C10 LIG X 999      41.858 127.941  23.352  1.00  0.00     0.101 C 
HETATM    5  C9  LIG X 999      43.041 127.175  23.256  1.00  0.00     0.007 C 
HETATM    6  C8  LIG X 999      44.337 127.642  23.084  1.00  0.00    -0.022 C 
HETATM    7  C12 LIG X 999      43.081 125.705  23.489  1.00  0.00     0.278 C 
HETATM    8  C7  LIG X 999      44.724 128.926  22.677  1.00  0.00     0.012 C 
HETATM    9  C15 LIG X 999      45.294 126.584  23.479  1.00  0.00     0.276 C 
HETATM   10  C6  LIG X 999      43.944 129.695  21.805  1.00  0.00     0.037 C 
HETATM   11  C4  LIG X 999      43.734 131.078  21.974  1.00  0.00     0.068 C 
HETATM   12  C3  LIG X 999      43.697 131.697  23.240  1.00  0.00     0.037 C 
HETATM   13  C2  LIG X 999      43.432 131.065  24.470  1.00  0.00     0.003 C 
HETATM   14  C1  LIG X 999      42.817 129.816  24.625  1.00  0.00     0.002 C 
HETATM   15  C11 LIG X 999      41.880 129.300  23.718  1.00  0.00     0.035 C 
HETATM   16  N4  LIG X 999      44.521 125.310  23.454  1.00  0.00    -0.067 N 
HETATM   17  C13 LIG X 999      44.867 124.462  24.618  1.00  0.00     0.272 C 
HETATM   18  C14 LIG X 999      44.813 124.563  22.207  1.00  0.00     0.272 C 
BRANCH  11  19
HETATM   19  O1  LIG X 999      43.511 131.906  20.863  1.00  0.00    -0.356 OA
HETATM   20  C5  LIG X 999      44.268 131.858  19.658  1.00  0.00     0.210 C 
ENDBRANCH  11  19
ENDBRANCH   1   4
TORSDOF 2
ENDMDL
MODEL 4
REMARK VINA RESULT:      -2.6      5.538      7.495
REMARK  2 active torsions:
REMARK  status: ('A' for Active; 'I' for Inactive)
REMARK    1  A    between atoms: C4_4  and  O1_5 
REMARK    2  A    between atoms: C10_11  and  N1_12 
ROOT
HETATM    1  N1  LIG X 999      45.791 129.806  20.362  1.00  0.00    -0.072 NA
HETATM    2  N2  LIG X 999      45.612 130.470  19.340  1.00  0.00    -0.162 NA
HETATM    3  N3  LIG X 999      45.434 131.131  18.319  1.00  0.00     0.068 N 
ENDROOT
BRANCH   1   4
HETATM    4  C10 LIG X 999      44.862 129.818  21.457  1.00  0.00     0.101 C 
HETATM    5  C9  LIG X 999      44.972 128.798  22.428  1.00  0.00     0.007 C 
HETATM    6  C8  LIG X 999      44.562 128.846  23.752  1.00  0.00    -0.022 C 
HETATM    7  C12 LIG X 999      45.425 127.415  22.108  1.00  0.00     0.278 C 
HETATM    8  C7  LIG X 999      44.227 129.989  24.491  1.00  0.00     0.012 C 
HETATM    9  C15 LIG X 999      44.446 127.467  24.279  1.00  0.00     0.276 C 
HETATM   10  C6  LIG X 999      44.832 131.229  24.254  1.00  0.00     0.037 C 
HETATM   11  C4  LIG X 999      44.122 132.447  24.250  1.00  0.00     0.068 C 
HETATM   12  C3  LIG X 999      42.774 132.544  23.847  1.00  0.00     0.037 C 
HETATM   13  C2  LIG X 999      42.082 131.635  23.024  1.00  0.00     0.003 C 
HETATM   14  C1  LIG X 999      42.677 130.688  22.181  1.00  0.00     0.002 C 
HETATM   15  C11 LIG X 999      43.932 130.868  21.584  1.00  0.00     0.035 C 
HETATM   16  N4  LIG X 999      45.247 126.615  23.356  1.00  0.00    -0.067 N 
HETATM   17  C13 LIG X 999      44.545 125.341  23.074  1.00  0.00     0.272 C 
HETATM   18  C14 LIG X 999      46.568 126.315  23.961  1.00  0.00     0.272 C 
BRANCH  11  19
HETATM   19  O1  LIG X 999      44.754 133.642  24.621  1.00  0.00    -0.356 OA
HETATM   20  C5  LIG X 999      46.155 133.879  24.518  1.00  0.00     0.210 C 
ENDBRANCH  11  19
ENDBRANCH   1   4
TORSDOF 2
ENDMDL
MODEL 5
REMARK VINA RESULT:      -1.9      7.853      9.099
REMARK  2 active torsions:
REMARK  status: ('A' for Active; 'I' for Inactive)
REMARK    1  A    between atoms: C4_4  and  O1_5 
REMARK    2  A    between atoms: C10_11  and  N1_12 
ROOT
HETATM    1  N1  LIG X 999      46.445 130.620  19.705  1.00  0.00    -0.072 NA
HETATM    2  N2  LIG X 999      46.387 131.590  20.463  1.00  0.00    -0.162 NA
HETATM    3  N3  LIG X 999      46.329 132.557  21.220  1.00  0.00     0.068 N 
ENDROOT
BRANCH   1   4
HETATM    4  C10 LIG X 999      45.621 130.510  18.535  1.00  0.00     0.101 C 
HETATM    5  C9  LIG X 999      44.425 131.260  18.496  1.00  0.00     0.007 C 
HETATM    6  C8  LIG X 999      43.740 131.699  17.372  1.00  0.00    -0.022 C 
HETATM    7  C12 LIG X 999      43.616 131.566  19.709  1.00  0.00     0.278 C 
HETATM    8  C7  LIG X 999      44.224 131.754  16.058  1.00  0.00     0.012 C 
HETATM    9  C15 LIG X 999      42.349 132.039  17.749  1.00  0.00     0.276 C 
HETATM   10  C6  LIG X 999      45.574 131.989  15.774  1.00  0.00     0.037 C 
HETATM   11  C4  LIG X 999      46.283 131.302  14.768  1.00  0.00     0.068 C 
HETATM   12  C3  LIG X 999      45.995 129.971  14.403  1.00  0.00     0.037 C 
HETATM   13  C2  LIG X 999      45.326 129.016  15.194  1.00  0.00     0.003 C 
HETATM   14  C1  LIG X 999      45.150 129.091  16.581  1.00  0.00     0.002 C 
HETATM   15  C11 LIG X 999      46.050 129.737  17.439  1.00  0.00     0.035 C 
HETATM   16  N4  LIG X 999      42.366 132.225  19.227  1.00  0.00    -0.067 N 
HETATM   17  C13 LIG X 999      41.169 131.612  19.847  1.00  0.00     0.272 C 
HETATM   18  C14 LIG X 999      42.393 133.671  19.556  1.00  0.00     0.272 C 
BRANCH  11  19
HETATM   19  O1  LIG X 999      47.351 131.918  14.100  1.00  0.00    -0.356 OA
HETATM   20  C5  LIG X 999      48.016 131.373  12.964  1.00  0.00     0.210 C 
ENDBRANCH  11  19
ENDBRANCH   1   4
TORSDOF 2
ENDMDL
