REMARK VINA RESULT:      -5.4      4.207      8.269
REMARK  5 active torsions:
REMARK  status: ('A' for Active; 'I' for Inactive)
REMARK    1  A    between atoms: C6_6  and  C7_7 
REMARK       I    between atoms: C7_7  and  N1_9 
REMARK    2  A    between atoms: N1_9  and  C8_11 
REMARK    3  A    between atoms: C8_11  and  C9_12 
REMARK    4  A    between atoms: C9_12  and  N2_13 
REMARK    5  A    between atoms: C13_19  and  N5_20 
ROOT
HETATM    1  N2  LIG X 999      44.686 131.348  18.679  1.00  0.00    -0.114 NA
HETATM    2  N3  LIG X 999      45.083 131.659  17.555  1.00  0.00    -0.168 NA
HETATM    3  N4  LIG X 999      45.478 131.968  16.431  1.00  0.00     0.068 N 
ENDROOT
BRANCH   1   4
HETATM    4  C9  LIG X 999      44.791 132.279  19.796  1.00  0.00     0.208 C 
BRANCH   4   5
HETATM    5  C8  LIG X 999      45.728 131.706  20.858  1.00  0.00     0.147 C 
BRANCH   5   6
HETATM    6  N1  LIG X 999      45.319 130.355  21.244  1.00  0.00    -0.355 N 
HETATM    7  C7  LIG X 999      44.526 130.126  22.420  1.00  0.00     0.251 C 
HETATM    8  O1  LIG X 999      44.047 131.111  23.048  1.00  0.00    -0.268 OA
HETATM    9  H4  LIG X 999      45.570 129.549  20.630  1.00  0.00     0.162 HD
BRANCH   7  10
HETATM   10  C6  LIG X 999      44.245 128.752  22.902  1.00  0.00     0.032 A 
HETATM   11  C1  LIG X 999      43.148 128.487  23.738  1.00  0.00     0.017 A 
HETATM   12  C2  LIG X 999      42.894 127.190  24.185  1.00  0.00     0.011 A 
HETATM   13  C3  LIG X 999      43.727 126.126  23.806  1.00  0.00    -0.024 A 
HETATM   14  C4  LIG X 999      44.814 126.374  22.935  1.00  0.00    -0.049 A 
HETATM   15  C13 LIG X 999      43.372 124.725  24.259  1.00  0.00     0.179 C 
HETATM   16  C5  LIG X 999      45.068 127.685  22.503  1.00  0.00     0.024 A 
HETATM   17  C10 LIG X 999      45.785 125.283  22.549  1.00  0.00     0.039 C 
HETATM   18  C11 LIG X 999      45.214 123.878  22.755  1.00  0.00     0.007 C 
HETATM   19  C12 LIG X 999      44.566 123.762  24.134  1.00  0.00     0.035 C 
BRANCH  15  20
HETATM   20  N5  LIG X 999      42.240 124.249  23.468  1.00  0.00    -0.105 NA
HETATM   21  N6  LIG X 999      41.534 123.318  23.860  1.00  0.00    -0.167 NA
HETATM   22  N7  LIG X 999      40.830 122.389  24.251  1.00  0.00     0.068 N 
ENDBRANCH  15  20
ENDBRANCH   7  10
ENDBRANCH   5   6
ENDBRANCH   4   5
ENDBRANCH   1   4
TORSDOF 5
