REMARK VINA RESULT:      -5.8      2.204      6.286
REMARK  1 active torsions:
REMARK  status: ('A' for Active; 'I' for Inactive)
REMARK    1  A    between atoms: C8_9  and  N2_10 
ROOT
HETATM    1  C1  LIG X 999      43.010 131.078  21.167  1.00  0.00     0.283 C 
HETATM    2  N1  LIG X 999      44.309 131.580  20.675  1.00  0.00    -0.005 N 
HETATM    3  C2  LIG X 999      45.024 132.306  21.745  1.00  0.00     0.283 C 
HETATM    4  C3  LIG X 999      44.134 132.440  19.457  1.00  0.00     0.286 A 
HETATM    5  C4  LIG X 999      44.874 131.746  18.356  1.00  0.00    -0.015 A 
HETATM    6  C5  LIG X 999      45.012 132.146  17.027  1.00  0.00     0.022 A 
HETATM    7  C6  LIG X 999      45.761 131.331  16.152  1.00  0.00    -0.023 A 
HETATM    8  C7  LIG X 999      45.926 131.694  14.806  1.00  0.00     0.041 A 
HETATM    9  C8  LIG X 999      46.671 130.881  13.940  1.00  0.00     0.026 A 
HETATM   10  C9  LIG X 999      47.253 129.700  14.421  1.00  0.00     0.030 A 
HETATM   11  C10 LIG X 999      47.097 129.325  15.758  1.00  0.00     0.014 A 
HETATM   12  C11 LIG X 999      46.356 130.129  16.634  1.00  0.00    -0.025 A 
HETATM   13  C12 LIG X 999      46.194 129.758  17.984  1.00  0.00     0.030 A 
HETATM   14  C13 LIG X 999      45.446 130.595  18.810  1.00  0.00     0.049 A 
HETATM   15  C14 LIG X 999      45.116 130.478  20.205  1.00  0.00     0.351 A 
HETATM   16  O1  LIG X 999      45.489 129.522  20.938  1.00  0.00    -0.259 OA
ENDROOT
BRANCH   9  17
HETATM   17  N2  LIG X 999      46.836 131.255  12.570  1.00  0.00    -0.399 N 
HETATM   18  H11 LIG X 999      46.983 130.531  11.831  1.00  0.00     0.156 HD
HETATM   19  H12 LIG X 999      46.812 132.259  12.282  1.00  0.00     0.156 HD
ENDBRANCH   9  17
TORSDOF 1
