REMARK VINA RESULT:      -6.1      4.259      6.337
REMARK  4 active torsions:
REMARK  status: ('A' for Active; 'I' for Inactive)
REMARK    1  A    between atoms: C2_2  and  C3_3 
REMARK    2  A    between atoms: C3_3  and  C5_5 
REMARK       I    between atoms: C5_5  and  N1_7 
REMARK    3  A    between atoms: N1_7  and  C6_8 
REMARK    4  A    between atoms: C7_9  and  O2_10 
ROOT
HETATM    1  C6  LIG X 999      43.807 129.581  22.979  1.00  0.00     0.104 A 
HETATM    2  C7  LIG X 999      42.747 130.031  23.795  1.00  0.00     0.098 A 
HETATM    3  C9  LIG X 999      42.073 129.116  24.625  1.00  0.00     0.040 A 
HETATM    4  C10 LIG X 999      42.420 127.766  24.622  1.00  0.00     0.015 A 
HETATM    5  C11 LIG X 999      43.439 127.299  23.786  1.00  0.00    -0.024 A 
HETATM    6  C12 LIG X 999      43.773 125.935  23.773  1.00  0.00     0.012 A 
HETATM    7  C13 LIG X 999      44.790 125.469  22.939  1.00  0.00     0.001 A 
HETATM    8  C14 LIG X 999      45.483 126.356  22.115  1.00  0.00     0.001 A 
HETATM    9  C15 LIG X 999      45.164 127.716  22.118  1.00  0.00     0.014 A 
HETATM   10  C16 LIG X 999      44.137 128.207  22.951  1.00  0.00     0.006 A 
ENDROOT
BRANCH   1  11
HETATM   11  N1  LIG X 999      44.514 130.495  22.125  1.00  0.00    -0.210 NA
HETATM   12  C5  LIG X 999      43.984 131.098  20.938  1.00  0.00     0.247 C 
HETATM   13  O1  LIG X 999      42.750 131.033  20.686  1.00  0.00    -0.271 OA
BRANCH  12  14
HETATM   14  C3  LIG X 999      44.891 131.874  20.020  1.00  0.00     0.076 C 
HETATM   15  C4  LIG X 999      46.329 131.365  20.162  1.00  0.00     0.020 C 
BRANCH  14  16
HETATM   16  C2  LIG X 999      44.425 131.782  18.553  1.00  0.00     0.009 C 
HETATM   17  C1  LIG X 999      45.452 131.088  17.659  1.00  0.00     0.006 C 
ENDBRANCH  14  16
ENDBRANCH  12  14
ENDBRANCH   1  11
BRANCH   2  18
HETATM   18  O2  LIG X 999      42.368 131.382  23.735  1.00  0.00    -0.354 OA
HETATM   19  C8  LIG X 999      42.949 132.425  24.512  1.00  0.00     0.210 C 
ENDBRANCH   2  18
TORSDOF 4
