REMARK VINA RESULT:      -0.1      0.000      0.000
REMARK  4 active torsions:
REMARK  status: ('A' for Active; 'I' for Inactive)
REMARK    1  A    between atoms: C5_5  and  O1_6 
REMARK    2  A    between atoms: O1_6  and  C6_7 
REMARK       I    between atoms: C6_7  and  N1_9 
REMARK    3  A    between atoms: C9_13  and  N2_14 
REMARK    4  A    between atoms: C11_19  and  N5_20 
ROOT
HETATM    1  N2  LIG X 999      46.811 131.940  21.249  1.00  0.00    -0.068 NA
HETATM    2  N3  LIG X 999      47.023 133.094  21.622  1.00  0.00    -0.162 NA
HETATM    3  N4  LIG X 999      47.239 134.248  21.989  1.00  0.00     0.068 N 
ENDROOT
BRANCH   1   4
HETATM    4  C9  LIG X 999      45.574 131.253  21.513  1.00  0.00     0.151 C 
HETATM    5  C5  LIG X 999      45.335 130.048  20.829  1.00  0.00     0.114 C 
HETATM    6  C4  LIG X 999      45.716 129.883  19.480  1.00  0.00     0.040 C 
HETATM    7  C3  LIG X 999      45.749 130.911  18.514  1.00  0.00     0.003 C 
HETATM    8  C2  LIG X 999      45.094 132.155  18.607  1.00  0.00     0.000 C 
HETATM    9  C1  LIG X 999      44.012 132.422  19.453  1.00  0.00     0.000 C 
HETATM   10  C13 LIG X 999      43.076 131.444  19.797  1.00  0.00     0.002 C 
HETATM   11  C12 LIG X 999      42.556 131.286  21.086  1.00  0.00     0.036 C 
HETATM   12  C11 LIG X 999      43.218 131.612  22.301  1.00  0.00     0.117 C 
HETATM   13  C10 LIG X 999      44.624 131.775  22.427  1.00  0.00     0.100 C 
HETATM   14 CL1  LIG X 999      45.223 132.611  23.863  1.00  0.00    -0.079 Cl
BRANCH   5  15
HETATM   15  O1  LIG X 999      44.717 129.009  21.543  1.00  0.00    -0.254 OA
BRANCH  15  16
HETATM   16  C6  LIG X 999      45.373 127.982  22.241  1.00  0.00     0.461 C 
HETATM   17  O2  LIG X 999      46.330 127.350  21.713  1.00  0.00    -0.230 OA
HETATM   18  N1  LIG X 999      44.890 127.584  23.539  1.00  0.00     0.009 N 
HETATM   19  H5  LIG X 999      45.533 126.864  23.945  1.00  0.00     0.292 HD
HETATM   20  C7  LIG X 999      44.864 128.742  24.446  1.00  0.00     0.282 C 
HETATM   21  C8  LIG X 999      43.550 126.992  23.407  1.00  0.00     0.282 C 
ENDBRANCH  15  16
ENDBRANCH   5  15
BRANCH  12  22
HETATM   22  N5  LIG X 999      42.439 131.739  23.503  1.00  0.00    -0.071 NA
HETATM   23  N6  LIG X 999      41.915 130.775  24.064  1.00  0.00    -0.162 NA
HETATM   24  N7  LIG X 999      41.391 129.814  24.625  1.00  0.00     0.068 N 
ENDBRANCH  12  22
ENDBRANCH   1   4
TORSDOF 4
