REMARK VINA RESULT:      -5.8      1.940      2.972
REMARK  1 active torsions:
REMARK  status: ('A' for Active; 'I' for Inactive)
REMARK    1  A    between atoms: C5_8  and  O1_9 
ROOT
HETATM    1  H1  LIG X 999      42.849 132.092  15.833  1.00  0.00     0.187 HD
HETATM    2  N1  LIG X 999      43.505 131.766  16.578  1.00  0.00    -0.300 NA
HETATM    3  C1  LIG X 999      43.217 131.878  17.835  1.00  0.00     0.059 A 
HETATM    4  C2  LIG X 999      41.915 132.486  18.283  1.00  0.00     0.034 A 
HETATM    5  C3  LIG X 999      41.615 132.603  19.598  1.00  0.00     0.035 A 
HETATM    6  C4  LIG X 999      42.595 132.119  20.588  1.00  0.00     0.071 A 
HETATM    7  N2  LIG X 999      42.520 132.129  21.940  1.00  0.00    -0.224 NA
HETATM    8  C5  LIG X 999      43.695 131.565  22.345  1.00  0.00     0.174 A 
HETATM    9  C6  LIG X 999      44.484 131.212  21.261  1.00  0.00     0.030 A 
HETATM   10  C7  LIG X 999      45.740 130.620  21.114  1.00  0.00     0.017 A 
HETATM   11  C8  LIG X 999      46.214 130.420  19.793  1.00  0.00     0.002 A 
HETATM   12  C9  LIG X 999      45.433 130.812  18.670  1.00  0.00     0.015 A 
HETATM   13  C10 LIG X 999      44.169 131.407  18.875  1.00  0.00     0.005 A 
HETATM   14  C11 LIG X 999      43.764 131.574  20.180  1.00  0.00     0.020 A 
ENDROOT
BRANCH   8  15
HETATM   15  O1  LIG X 999      44.042 131.376  23.678  1.00  0.00    -0.344 OA
HETATM   16  H4  LIG X 999      43.326 131.279  24.388  1.00  0.00     0.219 HD
ENDBRANCH   8  15
TORSDOF 1
