REMARK VINA RESULT:      -8.1      1.366      5.210
REMARK  1 active torsions:
REMARK  status: ('A' for Active; 'I' for Inactive)
REMARK    1  A    between atoms: C12_13  and  N2_14 
ROOT
HETATM    1  C1  LIG X 999      43.907 132.141  23.346  1.00  0.00     0.272 C 
HETATM    2  N1  LIG X 999      43.662 131.194  22.234  1.00  0.00    -0.067 N 
HETATM    3  C2  LIG X 999      42.955 130.002  22.763  1.00  0.00     0.272 C 
HETATM    4  C3  LIG X 999      44.950 130.783  21.595  1.00  0.00     0.276 C 
HETATM    5  C4  LIG X 999      44.749 130.963  20.142  1.00  0.00    -0.021 A 
HETATM    6  C5  LIG X 999      45.622 130.603  19.122  1.00  0.00     0.022 A 
HETATM    7  C6  LIG X 999      45.260 130.877  17.791  1.00  0.00    -0.023 A 
HETATM    8  C7  LIG X 999      46.131 130.525  16.749  1.00  0.00     0.012 A 
HETATM    9  C8  LIG X 999      45.795 130.807  15.426  1.00  0.00     0.001 A 
HETATM   10  C9  LIG X 999      44.593 131.447  15.130  1.00  0.00     0.001 A 
HETATM   11  C10 LIG X 999      43.710 131.806  16.152  1.00  0.00     0.014 A 
HETATM   12  C11 LIG X 999      44.016 131.520  17.501  1.00  0.00     0.001 A 
HETATM   13  C12 LIG X 999      43.142 131.865  18.575  1.00  0.00     0.045 A 
HETATM   14  C13 LIG X 999      43.557 131.569  19.885  1.00  0.00     0.003 A 
HETATM   15  C14 LIG X 999      42.845 131.840  21.159  1.00  0.00     0.278 C 
ENDROOT
BRANCH  13  16
HETATM   16  N2  LIG X 999      41.865 132.491  18.365  1.00  0.00    -0.398 N 
HETATM   17  H14 LIG X 999      40.980 131.969  18.545  1.00  0.00     0.156 HD
HETATM   18  H15 LIG X 999      41.759 133.441  17.955  1.00  0.00     0.156 HD
ENDBRANCH  13  16
TORSDOF 1
