REMARK VINA RESULT:      -3.8      2.811      5.945
REMARK  6 active torsions:
REMARK  status: ('A' for Active; 'I' for Inactive)
REMARK    1  A    between atoms: C6_6  and  N1_7 
REMARK       I    between atoms: N1_7  and  C7_8 
REMARK    2  A    between atoms: C7_8  and  O2_10 
REMARK    3  A    between atoms: O2_10  and  C8_11 
REMARK    4  A    between atoms: C8_11  and  C10_13 
REMARK    5  A    between atoms: C10_13  and  O3_14 
REMARK    6  A    between atoms: C12_16  and  N2_17 
ROOT
HETATM    1  N2  LIG X 999      42.529 129.372  24.619  1.00  0.00    -0.070 NA
HETATM    2  N3  LIG X 999      41.459 128.763  24.596  1.00  0.00    -0.162 NA
HETATM    3  N4  LIG X 999      40.389 128.155  24.576  1.00  0.00     0.068 N 
ENDROOT
BRANCH   1   4
HETATM    4  C12 LIG X 999      43.255 129.701  23.423  1.00  0.00     0.122 A 
HETATM    5  C6  LIG X 999      44.426 128.985  23.120  1.00  0.00     0.095 A 
HETATM    6  C5  LIG X 999      45.166 129.313  21.970  1.00  0.00     0.046 A 
HETATM    7  C4  LIG X 999      44.721 130.318  21.099  1.00  0.00    -0.024 A 
HETATM    8  C3  LIG X 999      45.450 130.638  19.943  1.00  0.00     0.012 A 
HETATM    9  C14 LIG X 999      43.528 131.020  21.391  1.00  0.00    -0.024 A 
HETATM   10  C2  LIG X 999      44.998 131.642  19.082  1.00  0.00     0.001 A 
HETATM   11  C1  LIG X 999      43.818 132.334  19.369  1.00  0.00     0.001 A 
HETATM   12  C15 LIG X 999      43.084 132.027  20.518  1.00  0.00     0.012 A 
HETATM   13  C13 LIG X 999      42.807 130.711  22.552  1.00  0.00     0.049 A 
BRANCH   5  14
HETATM   14  N1  LIG X 999      44.874 127.965  24.027  1.00  0.00    -0.185 NA
HETATM   15  C7  LIG X 999      45.712 126.855  23.691  1.00  0.00     0.387 C 
HETATM   16  O1  LIG X 999      46.229 126.177  24.618  1.00  0.00    -0.236 OA
BRANCH  15  17
HETATM   17  O2  LIG X 999      45.918 126.504  22.352  1.00  0.00    -0.295 OA
BRANCH  17  18
HETATM   18  C8  LIG X 999      46.864 125.524  21.925  1.00  0.00     0.153 C 
HETATM   19  C9  LIG X 999      48.197 125.731  22.652  1.00  0.00     0.042 C 
BRANCH  18  20
HETATM   20  C10 LIG X 999      46.288 124.133  22.215  1.00  0.00     0.199 C 
BRANCH  20  21
HETATM   21  O3  LIG X 999      47.325 123.262  22.618  1.00  0.00    -0.393 OA
HETATM   22  C11 LIG X 999      47.761 122.511  21.508  1.00  0.00     0.201 C 
ENDBRANCH  20  21
ENDBRANCH  18  20
ENDBRANCH  17  18
ENDBRANCH  15  17
ENDBRANCH   5  14
ENDBRANCH   1   4
TORSDOF 6
