REMARK VINA RESULT:      -4.0      3.058      6.135
REMARK  4 active torsions:
REMARK  status: ('A' for Active; 'I' for Inactive)
REMARK    1  A    between atoms: C4_4  and  N1_5 
REMARK    2  A    between atoms: C7_10  and  S1_11 
REMARK    3  A    between atoms: S1_11  and  C8_12 
REMARK    4  A    between atoms: C8_12  and  C9_13 
ROOT
HETATM    1  N1  LIG X 999      43.100 129.355  24.365  1.00  0.00    -0.071 NA
HETATM    2  N2  LIG X 999      41.914 129.041  24.468  1.00  0.00    -0.162 NA
HETATM    3  N3  LIG X 999      40.726 128.739  24.579  1.00  0.00     0.068 N 
ENDROOT
BRANCH   1   4
HETATM    4  C4  LIG X 999      44.007 128.761  23.419  1.00  0.00     0.108 A 
HETATM    5  C3  LIG X 999      44.533 129.592  22.423  1.00  0.00     0.008 A 
HETATM    6  C2  LIG X 999      45.348 129.117  21.447  1.00  0.00    -0.021 A 
HETATM    7  C15 LIG X 999      44.279 131.038  22.217  1.00  0.00     0.278 C 
HETATM    8  C1  LIG X 999      45.750 127.790  21.421  1.00  0.00     0.018 A 
HETATM    9  C18 LIG X 999      45.723 130.187  20.500  1.00  0.00     0.276 C 
HETATM   10  C6  LIG X 999      45.329 126.920  22.445  1.00  0.00    -0.035 A 
HETATM   11  C5  LIG X 999      44.420 127.390  23.447  1.00  0.00    -0.018 A 
HETATM   12  C7  LIG X 999      45.900 125.517  22.480  1.00  0.00     0.081 C 
HETATM   13  C14 LIG X 999      43.819 126.421  24.451  1.00  0.00     0.042 C 
HETATM   14  C13 LIG X 999      44.514 125.057  24.530  1.00  0.00     0.006 C 
HETATM   15  C12 LIG X 999      44.914 124.551  23.145  1.00  0.00     0.020 C 
HETATM   16  N4  LIG X 999      44.945 131.394  20.924  1.00  0.00    -0.067 N 
HETATM   17  C16 LIG X 999      43.925 131.727  19.900  1.00  0.00     0.272 C 
HETATM   18  C17 LIG X 999      45.844 132.557  21.103  1.00  0.00     0.272 C 
BRANCH  12  19
HETATM   19  S1  LIG X 999      47.500 125.476  23.397  1.00  0.00    -0.147 SA
BRANCH  19  20
HETATM   20  C8  LIG X 999      47.956 123.731  23.113  1.00  0.00     0.168 C 
BRANCH  20  21
HETATM   21  C9  LIG X 999      48.557 123.596  21.784  1.00  0.00    -0.097 C 
HETATM   22  C10 LIG X 999      49.062 123.502  20.694  1.00  0.00    -0.110 C 
HETATM   23  C11 LIG X 999      49.685 123.403  19.375  1.00  0.00     0.112 C 
ENDBRANCH  20  21
ENDBRANCH  19  20
ENDBRANCH  12  19
ENDBRANCH   1   4
TORSDOF 4
