REMARK VINA RESULT:      -4.5      5.927      8.755
REMARK  5 active torsions:
REMARK  status: ('A' for Active; 'I' for Inactive)
REMARK    1  A    between atoms: C3_3  and  C4_4 
REMARK    2  A    between atoms: C4_4  and  S1_5 
REMARK    3  A    between atoms: S1_5  and  C5_6 
REMARK    4  A    between atoms: C6_7  and  N1_8 
REMARK    5  A    between atoms: C10_12  and  N2_13 
ROOT
HETATM    1  C1  LIG X 999      52.108 126.124  22.497  1.00  0.00     0.112 C 
HETATM    2  C2  LIG X 999      50.705 125.857  22.816  1.00  0.00    -0.110 C 
HETATM    3  C3  LIG X 999      49.545 125.641  23.058  1.00  0.00    -0.097 C 
ENDROOT
BRANCH   3   4
HETATM    4  C4  LIG X 999      48.127 125.384  23.327  1.00  0.00     0.173 C 
BRANCH   4   5
HETATM    5  S1  LIG X 999      47.235 125.037  21.771  1.00  0.00    -0.115 SA
BRANCH   5   6
HETATM    6  C5  LIG X 999      45.611 124.841  22.557  1.00  0.00     0.038 A 
HETATM    7  C6  LIG X 999      45.153 123.550  22.900  1.00  0.00     0.043 A 
HETATM    8  C7  LIG X 999      43.920 123.399  23.538  1.00  0.00     0.031 A 
HETATM    9  C8  LIG X 999      43.136 124.503  23.858  1.00  0.00     0.017 A 
HETATM   10  C9  LIG X 999      43.559 125.806  23.539  1.00  0.00     0.002 A 
HETATM   11  C10 LIG X 999      42.775 126.951  23.872  1.00  0.00     0.045 A 
HETATM   12  C14 LIG X 999      44.799 125.973  22.840  1.00  0.00    -0.004 A 
HETATM   13  C11 LIG X 999      43.235 128.211  23.463  1.00  0.00     0.003 A 
HETATM   14  C12 LIG X 999      44.396 128.358  22.772  1.00  0.00    -0.021 A 
HETATM   15  C18 LIG X 999      42.608 129.538  23.689  1.00  0.00     0.278 C 
HETATM   16  C13 LIG X 999      45.193 127.271  22.441  1.00  0.00     0.023 A 
HETATM   17  C15 LIG X 999      44.654 129.781  22.462  1.00  0.00     0.276 C 
HETATM   18  N3  LIG X 999      43.580 130.550  23.165  1.00  0.00    -0.067 N 
HETATM   19  C16 LIG X 999      42.909 131.481  22.231  1.00  0.00     0.272 C 
HETATM   20  C17 LIG X 999      44.162 131.326  24.286  1.00  0.00     0.272 C 
BRANCH   7  21
HETATM   21  N1  LIG X 999      45.924 122.375  22.608  1.00  0.00    -0.398 N 
HETATM   22  H6  LIG X 999      46.956 122.442  22.462  1.00  0.00     0.156 HD
HETATM   23  H7  LIG X 999      45.498 121.426  22.537  1.00  0.00     0.156 HD
ENDBRANCH   7  21
BRANCH  11  24
HETATM   24  N2  LIG X 999      41.554 126.859  24.625  1.00  0.00    -0.398 N 
HETATM   25  H10 LIG X 999      41.322 126.039  25.223  1.00  0.00     0.156 HD
HETATM   26  H11 LIG X 999      40.903 127.673  24.686  1.00  0.00     0.156 HD
ENDBRANCH  11  24
ENDBRANCH   5   6
ENDBRANCH   4   5
ENDBRANCH   3   4
TORSDOF 5
