REMARK VINA RESULT:      -8.1      0.000      0.000
REMARK  1 active torsions:
REMARK  status: ('A' for Active; 'I' for Inactive)
REMARK    1  A    between atoms: C9_10  and  N2_11 
ROOT
HETATM    1  C1  LIG X 999      46.188 131.564  14.829  1.00  0.00     0.272 C 
HETATM    2  N1  LIG X 999      45.412 130.761  15.803  1.00  0.00    -0.067 N 
HETATM    3  C2  LIG X 999      44.987 129.497  15.154  1.00  0.00     0.272 C 
HETATM    4  C3  LIG X 999      44.212 131.522  16.278  1.00  0.00     0.276 C 
HETATM    5  C4  LIG X 999      44.239 131.424  17.753  1.00  0.00    -0.024 A 
HETATM    6  C5  LIG X 999      43.280 131.882  18.659  1.00  0.00     0.021 A 
HETATM    7  C6  LIG X 999      43.516 131.706  20.036  1.00  0.00    -0.025 A 
HETATM    8  C7  LIG X 999      42.580 132.146  20.983  1.00  0.00     0.014 A 
HETATM    9  C8  LIG X 999      42.824 131.969  22.348  1.00  0.00     0.030 A 
HETATM   10  C9  LIG X 999      44.004 131.351  22.785  1.00  0.00     0.026 A 
HETATM   11  C10 LIG X 999      44.947 130.906  21.848  1.00  0.00     0.041 A 
HETATM   12  C11 LIG X 999      44.716 131.077  20.475  1.00  0.00    -0.023 A 
HETATM   13  C12 LIG X 999      45.661 130.636  19.528  1.00  0.00     0.021 A 
HETATM   14  C13 LIG X 999      45.387 130.822  18.173  1.00  0.00    -0.024 A 
HETATM   15  C14 LIG X 999      46.236 130.463  17.017  1.00  0.00     0.276 C 
ENDROOT
BRANCH  10  16
HETATM   16  N2  LIG X 999      44.244 131.175  24.184  1.00  0.00    -0.399 N 
HETATM   17  H12 LIG X 999      44.406 131.997  24.807  1.00  0.00     0.156 HD
HETATM   18  H13 LIG X 999      44.261 130.220  24.607  1.00  0.00     0.156 HD
ENDBRANCH  10  16
TORSDOF 1
