REMARK VINA RESULT:      -7.4      2.835      6.471
REMARK  1 active torsions:
REMARK  status: ('A' for Active; 'I' for Inactive)
REMARK    1  A    between atoms: C2_2  and  N1_3 
ROOT
HETATM    1  N1  LIG X 999      44.279 131.578  15.611  1.00  0.00    -0.073 NA
HETATM    2  N2  LIG X 999      45.456 131.535  15.250  1.00  0.00    -0.162 NA
HETATM    3  N3  LIG X 999      46.630 131.494  14.888  1.00  0.00     0.068 N 
ENDROOT
BRANCH   1   4
HETATM    4  C2  LIG X 999      43.903 131.633  16.994  1.00  0.00     0.094 A 
HETATM    5  C1  LIG X 999      42.585 131.926  17.392  1.00  0.00     0.035 A 
HETATM    6  C11 LIG X 999      42.249 131.973  18.748  1.00  0.00     0.014 A 
HETATM    7  C10 LIG X 999      43.223 131.725  19.725  1.00  0.00    -0.024 A 
HETATM    8  C4  LIG X 999      44.549 131.430  19.332  1.00  0.00    -0.024 A 
HETATM    9  C9  LIG X 999      42.895 131.770  21.090  1.00  0.00     0.034 A 
HETATM   10  C3  LIG X 999      44.879 131.386  17.969  1.00  0.00     0.046 A 
HETATM   11  C5  LIG X 999      45.526 131.183  20.311  1.00  0.00     0.014 A 
HETATM   12  C6  LIG X 999      45.188 131.230  21.666  1.00  0.00     0.023 A 
HETATM   13  C7  LIG X 999      43.877 131.522  22.057  1.00  0.00     0.045 A 
HETATM   14  C8  LIG X 999      43.537 131.568  23.456  1.00  0.00     0.099 C 
HETATM   15  N4  LIG X 999      43.264 131.605  24.580  1.00  0.00    -0.191 NA
ENDBRANCH   1   4
TORSDOF 1
