REMARK VINA RESULT:      -4.9      2.761      6.416
REMARK  3 active torsions:
REMARK  status: ('A' for Active; 'I' for Inactive)
REMARK    1  A    between atoms: N2_3  and  N3_4 
REMARK    2  A    between atoms: C1_5  and  C2_6 
REMARK    3  A    between atoms: C3_8  and  C4_9 
REMARK       I    between atoms: N4_19  and  C14_20 
ROOT
HETATM    1  C2  LIG X 999      45.299 126.590  24.212  1.00  0.00     0.259 C 
HETATM    2  O1  LIG X 999      45.233 127.972  24.518  1.00  0.00    -0.335 OA
HETATM    3  C3  LIG X 999      43.866 128.286  24.625  1.00  0.00     0.280 C 
HETATM    4  N4  LIG X 999      43.153 127.175  24.038  1.00  0.00    -0.247 N 
HETATM    5  C14 LIG X 999      41.724 127.088  23.907  1.00  0.00     0.232 C 
HETATM    6  O2  LIG X 999      40.987 127.978  24.411  1.00  0.00    -0.272 OA
HETATM    7  C15 LIG X 999      41.093 125.927  23.205  1.00  0.00     0.119 C 
HETATM    8  N5  LIG X 999      44.009 126.136  23.687  1.00  0.00    -0.199 NA
HETATM    9  H15 LIG X 999      43.716 125.287  24.227  1.00  0.00     0.150 HD
ENDROOT
BRANCH   3  10
HETATM   10  C4  LIG X 999      43.573 129.578  23.872  1.00  0.00     0.003 A 
HETATM   11  C5  LIG X 999      42.666 130.477  24.467  1.00  0.00     0.012 A 
HETATM   12  C6  LIG X 999      42.318 131.672  23.845  1.00  0.00     0.002 A 
HETATM   13  C7  LIG X 999      42.872 132.010  22.616  1.00  0.00     0.012 A 
HETATM   14  C8  LIG X 999      43.799 131.160  22.001  1.00  0.00    -0.025 A 
HETATM   15  C9  LIG X 999      44.361 131.531  20.769  1.00  0.00     0.012 A 
HETATM   16  C13 LIG X 999      44.175 129.934  22.625  1.00  0.00    -0.015 A 
HETATM   17  C10 LIG X 999      45.301 130.712  20.149  1.00  0.00     0.001 A 
HETATM   18  C11 LIG X 999      45.694 129.521  20.753  1.00  0.00     0.001 A 
HETATM   19  C12 LIG X 999      45.145 129.132  21.977  1.00  0.00     0.013 A 
ENDBRANCH   3  10
BRANCH   1  20
HETATM   20  C1  LIG X 999      46.379 126.336  23.210  1.00  0.00     0.164 C 
HETATM   21  N3  LIG X 999      46.471 125.188  22.618  1.00  0.00    -0.143 NA
BRANCH  21  22
HETATM   22  N2  LIG X 999      47.480 124.946  21.680  1.00  0.00    -0.052 NA
HETATM   23  N1  LIG X 999      48.678 125.275  21.940  1.00  0.00    -0.184 NA
HETATM   24  H1  LIG X 999      49.432 125.096  21.241  1.00  0.00     0.214 HD
ENDBRANCH  21  22
ENDBRANCH   1  20
TORSDOF 3
