REMARK VINA RESULT:      -4.0      2.299      6.380
REMARK  5 active torsions:
REMARK  status: ('A' for Active; 'I' for Inactive)
REMARK    1  A    between atoms: C3_3  and  C4_4 
REMARK    2  A    between atoms: C4_4  and  S1_5 
REMARK    3  A    between atoms: S1_5  and  C5_6 
REMARK    4  A    between atoms: C6_7  and  N1_8 
REMARK    5  A    between atoms: C10_12  and  N2_13 
ROOT
HETATM    1  C1  LIG X 999      47.966 130.589  12.543  1.00  0.00     0.112 C 
HETATM    2  C2  LIG X 999      47.197 130.184  13.719  1.00  0.00    -0.110 C 
HETATM    3  C3  LIG X 999      46.549 129.866  14.685  1.00  0.00    -0.097 C 
ENDROOT
BRANCH   3   4
HETATM    4  C4  LIG X 999      45.744 129.496  15.852  1.00  0.00     0.173 C 
BRANCH   4   5
HETATM    5  S1  LIG X 999      46.242 130.477  17.310  1.00  0.00    -0.115 SA
BRANCH   5   6
HETATM    6  C5  LIG X 999      44.604 131.211  17.577  1.00  0.00     0.038 A 
HETATM    7  C6  LIG X 999      43.862 131.679  16.471  1.00  0.00     0.043 A 
HETATM    8  C7  LIG X 999      42.619 132.282  16.677  1.00  0.00     0.031 A 
HETATM    9  C8  LIG X 999      42.102 132.443  17.959  1.00  0.00     0.017 A 
HETATM   10  C9  LIG X 999      42.813 131.995  19.086  1.00  0.00     0.002 A 
HETATM   11  C10 LIG X 999      42.304 132.165  20.409  1.00  0.00     0.045 A 
HETATM   12  C14 LIG X 999      44.067 131.332  18.887  1.00  0.00    -0.004 A 
HETATM   13  C11 LIG X 999      43.044 131.636  21.476  1.00  0.00     0.003 A 
HETATM   14  C12 LIG X 999      44.216 130.978  21.276  1.00  0.00    -0.021 A 
HETATM   15  C18 LIG X 999      42.733 131.682  22.927  1.00  0.00     0.278 C 
HETATM   16  C13 LIG X 999      44.749 130.803  20.006  1.00  0.00     0.023 A 
HETATM   17  C15 LIG X 999      44.788 130.513  22.558  1.00  0.00     0.276 C 
HETATM   18  N3  LIG X 999      43.936 131.125  23.621  1.00  0.00    -0.067 N 
HETATM   19  C16 LIG X 999      43.540 130.110  24.625  1.00  0.00     0.272 C 
HETATM   20  C17 LIG X 999      44.678 132.213  24.303  1.00  0.00     0.272 C 
BRANCH   7  21
HETATM   21  N1  LIG X 999      44.350 131.552  15.127  1.00  0.00    -0.398 N 
HETATM   22  H6  LIG X 999      44.927 132.310  14.700  1.00  0.00     0.156 HD
HETATM   23  H7  LIG X 999      44.144 130.722  14.530  1.00  0.00     0.156 HD
ENDBRANCH   7  21
BRANCH  11  24
HETATM   24  N2  LIG X 999      41.083 132.871  20.683  1.00  0.00    -0.398 N 
HETATM   25  H10 LIG X 999      40.979 133.529  21.484  1.00  0.00     0.156 HD
HETATM   26  H11 LIG X 999      40.212 132.659  20.147  1.00  0.00     0.156 HD
ENDBRANCH  11  24
ENDBRANCH   5   6
ENDBRANCH   4   5
ENDBRANCH   3   4
TORSDOF 5
