REMARK VINA RESULT:      -5.3      2.405      5.131
REMARK  3 active torsions:
REMARK  status: ('A' for Active; 'I' for Inactive)
REMARK    1  A    between atoms: C3_3  and  O1_4 
REMARK    2  A    between atoms: O1_4  and  C4_5 
REMARK    3  A    between atoms: C5_6  and  C6_7 
ROOT
HETATM    1  C1  LIG X 999      44.713 128.560  22.853  1.00  0.00     0.014 C 
HETATM    2  C2  LIG X 999      44.519 129.698  22.508  1.00  0.00    -0.091 C 
HETATM    3  C3  LIG X 999      44.282 131.080  22.089  1.00  0.00     0.268 C 
ENDROOT
BRANCH   3   4
HETATM    4  O1  LIG X 999      44.836 131.278  20.794  1.00  0.00    -0.338 OA
BRANCH   4   5
HETATM    5  C4  LIG X 999      44.022 131.553  19.691  1.00  0.00     0.094 A 
HETATM    6  C5  LIG X 999      42.748 132.131  19.882  1.00  0.00     0.036 A 
HETATM    7  C7  LIG X 999      41.931 132.383  18.768  1.00  0.00     0.018 A 
HETATM    8  C8  LIG X 999      42.368 132.079  17.479  1.00  0.00     0.013 A 
HETATM    9  C9  LIG X 999      43.636 131.521  17.276  1.00  0.00    -0.023 A 
HETATM   10  C10 LIG X 999      44.080 131.224  15.977  1.00  0.00     0.012 A 
HETATM   11  C14 LIG X 999      44.476 131.258  18.387  1.00  0.00     0.009 A 
HETATM   12  C11 LIG X 999      45.347 130.675  15.777  1.00  0.00     0.001 A 
HETATM   13  C12 LIG X 999      46.182 130.419  16.867  1.00  0.00     0.001 A 
HETATM   14  C13 LIG X 999      45.753 130.709  18.165  1.00  0.00     0.015 A 
BRANCH   6  15
HETATM   15  C6  LIG X 999      42.279 132.475  21.241  1.00  0.00     0.272 C 
HETATM   16  O2  LIG X 999      41.249 133.180  21.414  1.00  0.00    -0.301 OA
ENDBRANCH   6  15
ENDBRANCH   4   5
ENDBRANCH   3   4
TORSDOF 3
