REMARK VINA RESULT:      -7.3      1.384      5.206
REMARK  1 active torsions:
REMARK  status: ('A' for Active; 'I' for Inactive)
REMARK    1  A    between atoms: C12_13  and  N2_14 
ROOT
HETATM    1  C1  LIG X 999      43.155 130.176  23.195  1.00  0.00     0.272 C 
HETATM    2  N1  LIG X 999      43.844 131.117  22.283  1.00  0.00    -0.067 N 
HETATM    3  C2  LIG X 999      44.351 132.267  23.070  1.00  0.00     0.272 C 
HETATM    4  C3  LIG X 999      44.976 130.439  21.579  1.00  0.00     0.276 C 
HETATM    5  C4  LIG X 999      44.806 130.764  20.147  1.00  0.00    -0.021 A 
HETATM    6  C5  LIG X 999      45.677 130.459  19.107  1.00  0.00     0.022 A 
HETATM    7  C6  LIG X 999      45.329 130.836  17.799  1.00  0.00    -0.023 A 
HETATM    8  C7  LIG X 999      46.193 130.532  16.735  1.00  0.00     0.012 A 
HETATM    9  C8  LIG X 999      45.852 130.881  15.430  1.00  0.00     0.001 A 
HETATM   10  C9  LIG X 999      44.646 131.530  15.170  1.00  0.00     0.001 A 
HETATM   11  C10 LIG X 999      43.771 131.843  16.214  1.00  0.00     0.014 A 
HETATM   12  C11 LIG X 999      44.095 131.515  17.548  1.00  0.00     0.001 A 
HETATM   13  C12 LIG X 999      43.232 131.819  18.644  1.00  0.00     0.045 A 
HETATM   14  C13 LIG X 999      43.632 131.417  19.930  1.00  0.00     0.003 A 
HETATM   15  C14 LIG X 999      42.910 131.598  21.216  1.00  0.00     0.278 C 
ENDROOT
BRANCH  13  16
HETATM   16  N2  LIG X 999      41.988 132.521  18.479  1.00  0.00    -0.398 N 
HETATM   17  H14 LIG X 999      41.976 133.547  18.287  1.00  0.00     0.156 HD
HETATM   18  H15 LIG X 999      41.064 132.043  18.464  1.00  0.00     0.156 HD
ENDBRANCH  13  16
TORSDOF 1
