REMARK VINA RESULT:      -5.5      2.960      5.011
REMARK  1 active torsions:
REMARK  status: ('A' for Active; 'I' for Inactive)
REMARK    1  A    between atoms: C8_8  and  N1_9 
ROOT
HETATM    1  N1  LIG X 999      44.467 131.390  22.660  1.00  0.00    -0.072 NA
HETATM    2  N2  LIG X 999      44.076 132.024  23.640  1.00  0.00    -0.162 NA
HETATM    3  N3  LIG X 999      43.685 132.650  24.623  1.00  0.00     0.068 N 
ENDROOT
BRANCH   1   4
HETATM    4  C8  LIG X 999      43.933 131.588  21.342  1.00  0.00     0.104 A 
HETATM    5  C7  LIG X 999      42.650 132.192  21.235  1.00  0.00     0.038 A 
HETATM    6  C6  LIG X 999      42.068 132.471  19.978  1.00  0.00     0.035 A 
HETATM    7  C5  LIG X 999      42.786 132.130  18.835  1.00  0.00     0.073 A 
HETATM    8  C4  LIG X 999      44.004 131.527  18.948  1.00  0.00     0.021 A 
HETATM    9  N4  LIG X 999      42.390 132.280  17.467  1.00  0.00    -0.209 NA
HETATM   10  C3  LIG X 999      44.507 131.220  17.725  1.00  0.00     0.047 A 
HETATM   11  C9  LIG X 999      44.622 131.211  20.152  1.00  0.00     0.009 A 
HETATM   12  C2  LIG X 999      45.714 130.537  17.600  1.00  0.00     0.018 A 
HETATM   13  C11 LIG X 999      43.504 131.692  16.777  1.00  0.00     0.278 A 
HETATM   14  C1  LIG X 999      46.385 130.175  18.788  1.00  0.00     0.002 A 
HETATM   15  C10 LIG X 999      45.842 130.498  20.060  1.00  0.00     0.015 A 
HETATM   16  O1  LIG X 999      43.580 131.599  15.523  1.00  0.00    -0.265 OA
ENDBRANCH   1   4
TORSDOF 1
