REMARK VINA RESULT:      -5.1      7.439      8.995
REMARK  5 active torsions:
REMARK  status: ('A' for Active; 'I' for Inactive)
REMARK    1  A    between atoms: O1_2  and  C1_3 
REMARK    2  A    between atoms: C1_3  and  C13_17 
REMARK    3  A    between atoms: N1_4  and  C2_5 
REMARK    4  A    between atoms: C3_6  and  O2_7 
REMARK    5  A    between atoms: C13_17  and  C15_19 
ROOT
HETATM    1  C2  LIG X 999      42.191 125.980  23.919  1.00  0.00     0.103 A 
HETATM    2  C3  LIG X 999      40.838 125.827  24.289  1.00  0.00     0.097 A 
HETATM    3  C5  LIG X 999      40.025 126.966  24.437  1.00  0.00     0.040 A 
HETATM    4  C6  LIG X 999      40.553 128.244  24.251  1.00  0.00     0.015 A 
HETATM    5  C7  LIG X 999      41.903 128.410  23.924  1.00  0.00    -0.024 A 
HETATM    6  C8  LIG X 999      42.435 129.699  23.756  1.00  0.00     0.012 A 
HETATM    7  C9  LIG X 999      43.783 129.865  23.429  1.00  0.00     0.001 A 
HETATM    8  C10 LIG X 999      44.608 128.752  23.266  1.00  0.00     0.001 A 
HETATM    9  C11 LIG X 999      44.092 127.464  23.430  1.00  0.00     0.014 A 
HETATM   10  C12 LIG X 999      42.735 127.275  23.762  1.00  0.00     0.006 A 
ENDROOT
BRANCH   1  11
HETATM   11  N1  LIG X 999      43.038 124.829  23.770  1.00  0.00    -0.225 NA
HETATM   12  C1  LIG X 999      43.148 124.124  22.683  1.00  0.00     0.142 C 
BRANCH  12  13
HETATM   13  O1  LIG X 999      42.468 124.503  21.524  1.00  0.00    -0.348 OA
HETATM   14  H1  LIG X 999      41.646 124.004  21.204  1.00  0.00     0.219 HD
ENDBRANCH  12  13
BRANCH  12  15
HETATM   15  C13 LIG X 999      44.044 122.908  22.670  1.00  0.00     0.058 C 
HETATM   16  C14 LIG X 999      44.180 122.375  21.237  1.00  0.00     0.018 C 
BRANCH  15  17
HETATM   17  C15 LIG X 999      45.412 123.256  23.297  1.00  0.00     0.008 C 
HETATM   18  C16 LIG X 999      46.282 124.114  22.378  1.00  0.00     0.006 C 
ENDBRANCH  15  17
ENDBRANCH  12  15
ENDBRANCH   1  11
BRANCH   2  19
HETATM   19  O2  LIG X 999      40.342 124.534  24.526  1.00  0.00    -0.354 OA
HETATM   20  C4  LIG X 999      39.483 123.820  23.643  1.00  0.00     0.210 C 
ENDBRANCH   2  19
TORSDOF 5
