REMARK VINA RESULT:      -6.4      1.831      2.213
REMARK  1 active torsions:
REMARK  status: ('A' for Active; 'I' for Inactive)
REMARK    1  A    between atoms: C8_8  and  N1_9 
ROOT
HETATM    1  N1  LIG X 999      44.499 131.243  16.427  1.00  0.00    -0.072 NA
HETATM    2  N2  LIG X 999      44.022 131.412  15.304  1.00  0.00    -0.162 NA
HETATM    3  N3  LIG X 999      43.547 131.580  14.181  1.00  0.00     0.068 N 
ENDROOT
BRANCH   1   4
HETATM    4  C8  LIG X 999      43.781 131.580  17.623  1.00  0.00     0.104 A 
HETATM    5  C7  LIG X 999      42.487 132.185  17.570  1.00  0.00     0.038 A 
HETATM    6  C6  LIG X 999      41.787 132.515  18.754  1.00  0.00     0.035 A 
HETATM    7  C5  LIG X 999      42.392 132.233  19.978  1.00  0.00     0.073 A 
HETATM    8  C4  LIG X 999      43.626 131.655  20.008  1.00  0.00     0.021 A 
HETATM    9  N4  LIG X 999      41.887 132.471  21.296  1.00  0.00    -0.209 NA
HETATM   10  C3  LIG X 999      44.046 131.460  21.282  1.00  0.00     0.047 A 
HETATM   11  C9  LIG X 999      44.360 131.311  18.885  1.00  0.00     0.009 A 
HETATM   12  C2  LIG X 999      45.287 130.880  21.543  1.00  0.00     0.018 A 
HETATM   13  C11 LIG X 999      42.959 131.970  22.113  1.00  0.00     0.278 A 
HETATM   14  C1  LIG X 999      46.082 130.506  20.433  1.00  0.00     0.002 A 
HETATM   15  C10 LIG X 999      45.624 130.719  19.106  1.00  0.00     0.015 A 
HETATM   16  O1  LIG X 999      42.943 131.978  23.372  1.00  0.00    -0.265 OA
ENDBRANCH   1   4
TORSDOF 1
