REMARK VINA RESULT:      -8.7      0.000      0.000
REMARK  1 active torsions:
REMARK  status: ('A' for Active; 'I' for Inactive)
REMARK    1  A    between atoms: C12_13  and  N2_14 
ROOT
HETATM    1  C1  LIG X 999      45.188 129.942  14.880  1.00  0.00     0.272 C 
HETATM    2  N1  LIG X 999      45.341 131.000  15.905  1.00  0.00    -0.067 N 
HETATM    3  C2  LIG X 999      46.124 132.120  15.328  1.00  0.00     0.272 C 
HETATM    4  C3  LIG X 999      46.032 130.464  17.118  1.00  0.00     0.276 C 
HETATM    5  C4  LIG X 999      45.203 130.885  18.267  1.00  0.00    -0.021 A 
HETATM    6  C5  LIG X 999      45.494 130.727  19.617  1.00  0.00     0.022 A 
HETATM    7  C6  LIG X 999      44.562 131.176  20.569  1.00  0.00    -0.023 A 
HETATM    8  C7  LIG X 999      44.837 131.021  21.935  1.00  0.00     0.012 A 
HETATM    9  C8  LIG X 999      43.915 131.444  22.892  1.00  0.00     0.001 A 
HETATM   10  C9  LIG X 999      42.710 132.019  22.495  1.00  0.00     0.001 A 
HETATM   11  C10 LIG X 999      42.416 132.186  21.139  1.00  0.00     0.014 A 
HETATM   12  C11 LIG X 999      43.336 131.780  20.148  1.00  0.00     0.001 A 
HETATM   13  C12 LIG X 999      43.077 131.934  18.753  1.00  0.00     0.045 A 
HETATM   14  C13 LIG X 999      44.044 131.463  17.846  1.00  0.00     0.003 A 
HETATM   15  C14 LIG X 999      44.003 131.491  16.363  1.00  0.00     0.278 C 
ENDROOT
BRANCH  13  16
HETATM   16  N2  LIG X 999      41.881 132.552  18.250  1.00  0.00    -0.398 N 
HETATM   17  H14 LIG X 999      41.635 133.531  18.515  1.00  0.00     0.156 HD
HETATM   18  H15 LIG X 999      41.177 132.043  17.678  1.00  0.00     0.156 HD
ENDBRANCH  13  16
TORSDOF 1
