REMARK VINA RESULT:      -7.2      3.669      7.837
REMARK  4 active torsions:
REMARK  status: ('A' for Active; 'I' for Inactive)
REMARK       I    between atoms: N1_1  and  C1_2 
REMARK    1  A    between atoms: C1_2  and  C2_4 
REMARK    2  A    between atoms: C11_13  and  O2_14 
REMARK    3  A    between atoms: O2_14  and  C12_15 
REMARK    4  A    between atoms: C12_15  and  C13_17 
ROOT
HETATM    1  C2  LIG X 999      43.471 127.263  23.523  1.00  0.00     0.068 A 
HETATM    2  C3  LIG X 999      42.775 126.045  23.399  1.00  0.00     0.032 A 
HETATM    3  C4  LIG X 999      41.382 125.993  23.537  1.00  0.00    -0.025 A 
HETATM    4  C5  LIG X 999      40.695 124.774  23.413  1.00  0.00     0.012 A 
HETATM    5  C6  LIG X 999      39.304 124.735  23.543  1.00  0.00     0.001 A 
HETATM    6  C7  LIG X 999      38.589 125.908  23.795  1.00  0.00     0.001 A 
HETATM    7  C8  LIG X 999      39.262 127.127  23.920  1.00  0.00     0.012 A 
HETATM    8  C9  LIG X 999      40.659 127.178  23.795  1.00  0.00    -0.023 A 
HETATM    9  C10 LIG X 999      41.342 128.394  23.917  1.00  0.00     0.050 A 
HETATM   10  C11 LIG X 999      42.744 128.447  23.799  1.00  0.00     0.096 A 
ENDROOT
BRANCH  10  11
HETATM   11  O2  LIG X 999      43.420 129.674  23.899  1.00  0.00    -0.274 OA
BRANCH  11  12
HETATM   12  C12 LIG X 999      43.103 130.837  23.182  1.00  0.00     0.298 C 
HETATM   13  O3  LIG X 999      42.368 131.724  23.696  1.00  0.00    -0.259 OA
BRANCH  12  14
HETATM   14  C13 LIG X 999      43.689 131.048  21.839  1.00  0.00     0.039 A 
HETATM   15  C14 LIG X 999      44.990 130.596  21.553  1.00  0.00     0.017 A 
HETATM   16  C15 LIG X 999      45.545 130.794  20.285  1.00  0.00     0.001 A 
HETATM   17  C16 LIG X 999      44.809 131.443  19.290  1.00  0.00     0.000 A 
HETATM   18  C17 LIG X 999      43.516 131.895  19.563  1.00  0.00     0.001 A 
HETATM   19  C18 LIG X 999      42.956 131.700  20.830  1.00  0.00     0.017 A 
ENDBRANCH  12  14
ENDBRANCH  11  12
ENDBRANCH  10  11
BRANCH   1  20
HETATM   20  C1  LIG X 999      44.953 127.264  23.371  1.00  0.00     0.273 C 
HETATM   21  N1  LIG X 999      45.814 127.428  24.496  1.00  0.00    -0.263 NA
HETATM   22  H1  LIG X 999      46.853 127.426  24.384  1.00  0.00     0.190 HD
HETATM   23  O1  LIG X 999      45.471 127.109  22.231  1.00  0.00    -0.266 OA
ENDBRANCH   1  20
TORSDOF 4
