REMARK VINA RESULT:      -8.2      0.000      0.000
REMARK  3 active torsions:
REMARK  status: ('A' for Active; 'I' for Inactive)
REMARK    1  A    between atoms: C1_2  and  C2_4 
REMARK       I    between atoms: N1_6  and  C4_7 
REMARK    2  A    between atoms: C4_7  and  C5_9 
REMARK    3  A    between atoms: C6_10  and  C7_11 
ROOT
HETATM    1  C5  LIG X 999      44.576 130.868  20.785  1.00  0.00     0.000 C 
HETATM    2  C6  LIG X 999      44.720 130.945  19.591  1.00  0.00    -0.057 C 
ENDROOT
BRANCH   1   3
HETATM    3  C4  LIG X 999      44.404 130.767  22.209  1.00  0.00     0.300 C 
HETATM    4  N1  LIG X 999      44.617 129.520  22.887  1.00  0.00    -0.317 N 
HETATM    5  C3  LIG X 999      45.000 128.291  22.255  1.00  0.00     0.172 C 
HETATM    6  C17 LIG X 999      44.486 129.330  24.314  1.00  0.00     0.298 C 
HETATM    7  C2  LIG X 999      44.969 127.294  23.406  1.00  0.00     0.242 C 
HETATM    8  O4  LIG X 999      44.861 128.005  24.624  1.00  0.00    -0.354 OA
HETATM    9  O3  LIG X 999      44.063 131.790  22.860  1.00  0.00    -0.258 OA
BRANCH   7  10
HETATM   10  C1  LIG X 999      46.199 126.437  23.424  1.00  0.00     0.204 C 
HETATM   11  O1  LIG X 999      46.801 126.219  24.507  1.00  0.00    -0.646 OA
HETATM   12  O2  LIG X 999      46.650 125.838  22.254  1.00  0.00    -0.646 OA
ENDBRANCH   7  10
ENDBRANCH   1   3
BRANCH   2  13
HETATM   13  C7  LIG X 999      44.891 131.031  18.164  1.00  0.00     0.019 A 
HETATM   14  C8  LIG X 999      43.962 131.735  17.390  1.00  0.00     0.021 A 
HETATM   15  C9  LIG X 999      44.121 131.822  16.004  1.00  0.00     0.013 A 
HETATM   16  C10 LIG X 999      45.214 131.204  15.379  1.00  0.00    -0.026 A 
HETATM   17  C11 LIG X 999      45.384 131.285  13.989  1.00  0.00     0.012 A 
HETATM   18  C15 LIG X 999      46.157 130.491  16.160  1.00  0.00    -0.025 A 
HETATM   19  C12 LIG X 999      46.478 130.664  13.379  1.00  0.00     0.001 A 
HETATM   20  C13 LIG X 999      47.408 129.960  14.149  1.00  0.00     0.001 A 
HETATM   21  C14 LIG X 999      47.250 129.873  15.535  1.00  0.00     0.012 A 
HETATM   22  C16 LIG X 999      45.987 130.409  17.552  1.00  0.00     0.032 A 
ENDBRANCH   2  13
TORSDOF 3
