REMARK VINA RESULT:      -6.5      2.217      3.552
REMARK  5 active torsions:
REMARK  status: ('A' for Active; 'I' for Inactive)
REMARK    1  A    between atoms: C6_6  and  C7_7 
REMARK    2  A    between atoms: C7_7  and  N1_8 
REMARK    3  A    between atoms: N4_11  and  C8_12 
REMARK    4  A    between atoms: C8_12  and  C9_13 
REMARK    5  A    between atoms: C9_13  and  N5_14 
ROOT
HETATM    1  N1  LIG X 999      43.030 131.027  21.326  1.00  0.00    -0.052 NA
HETATM    2  N2  LIG X 999      42.818 131.286  22.511  1.00  0.00    -0.160 NA
HETATM    3  N3  LIG X 999      42.605 131.546  23.695  1.00  0.00     0.068 N 
ENDROOT
BRANCH   1   4
HETATM    4  C7  LIG X 999      44.265 131.375  20.692  1.00  0.00     0.191 C 
HETATM    5  N4  LIG X 999      45.291 131.718  21.421  1.00  0.00    -0.267 NA
BRANCH   4   6
HETATM    6  C6  LIG X 999      44.308 131.368  19.216  1.00  0.00     0.015 A 
HETATM    7  C5  LIG X 999      45.401 130.809  18.535  1.00  0.00     0.027 A 
HETATM    8  C4  LIG X 999      45.427 130.792  17.133  1.00  0.00    -0.025 A 
HETATM    9  C3  LIG X 999      46.523 130.248  16.444  1.00  0.00     0.012 A 
HETATM   10  C12 LIG X 999      44.337 131.326  16.404  1.00  0.00    -0.026 A 
HETATM   11  C2  LIG X 999      46.538 130.237  15.046  1.00  0.00     0.001 A 
HETATM   12  C1  LIG X 999      45.463 130.768  14.326  1.00  0.00     0.001 A 
HETATM   13  C13 LIG X 999      44.365 131.310  15.000  1.00  0.00     0.012 A 
HETATM   14  C11 LIG X 999      43.237 131.861  17.091  1.00  0.00     0.013 A 
HETATM   15  C10 LIG X 999      43.221 131.873  18.489  1.00  0.00     0.016 A 
ENDBRANCH   4   6
BRANCH   5  16
HETATM   16  C8  LIG X 999      46.599 132.179  20.947  1.00  0.00     0.178 C 
BRANCH  16  17
HETATM   17  C9  LIG X 999      47.064 133.438  21.695  1.00  0.00     0.251 C 
BRANCH  17  18
HETATM   18  N5  LIG X 999      48.472 133.348  22.082  1.00  0.00    -0.078 N 
HETATM   19  H9  LIG X 999      48.531 133.165  23.109  1.00  0.00     0.274 HD
HETATM   20  H10 LIG X 999      48.937 132.562  21.574  1.00  0.00     0.274 HD
HETATM   21  H11 LIG X 999      48.963 134.247  21.871  1.00  0.00     0.274 HD
ENDBRANCH  17  18
ENDBRANCH  16  17
ENDBRANCH   5  16
ENDBRANCH   1   4
TORSDOF 5
