REMARK VINA RESULT:      -5.7      3.558      4.945
REMARK  5 active torsions:
REMARK  status: ('A' for Active; 'I' for Inactive)
REMARK    1  A    between atoms: C3_3  and  N1_4 
REMARK    2  A    between atoms: N1_4  and  C6_7 
REMARK    3  A    between atoms: C6_7  and  C7_8 
REMARK    4  A    between atoms: C9_10  and  C10_11 
REMARK    5  A    between atoms: C11_14  and  N4_15 
ROOT
HETATM    1  C1  LIG X 999      46.799 131.215  14.147  1.00  0.00     0.013 C 
HETATM    2  C2  LIG X 999      46.323 131.612  15.180  1.00  0.00    -0.089 C 
HETATM    3  C3  LIG X 999      45.739 132.100  16.448  1.00  0.00     0.329 C 
ENDROOT
BRANCH   3   4
HETATM    4  N1  LIG X 999      44.914 131.077  17.161  1.00  0.00    -0.061 N 
HETATM    5  C4  LIG X 999      44.176 130.243  16.175  1.00  0.00     0.273 C 
HETATM    6  C5  LIG X 999      45.777 130.188  17.980  1.00  0.00     0.273 C 
BRANCH   4   7
HETATM    7  C6  LIG X 999      43.893 131.751  18.025  1.00  0.00     0.275 C 
BRANCH   7   8
HETATM    8  C7  LIG X 999      44.214 131.736  19.508  1.00  0.00    -0.035 C 
HETATM    9  C8  LIG X 999      43.263 131.425  20.415  1.00  0.00     0.001 C 
HETATM   10  C9  LIG X 999      43.614 131.296  21.883  1.00  0.00     0.054 C 
HETATM   11  C12 LIG X 999      42.375 131.558  22.775  1.00  0.00     0.023 C 
HETATM   12  C16 LIG X 999      44.684 132.379  22.219  1.00  0.00     0.028 C 
HETATM   13  C13 LIG X 999      42.745 131.544  24.271  1.00  0.00     0.002 C 
HETATM   14  C14 LIG X 999      43.866 132.547  24.594  1.00  0.00     0.001 C 
HETATM   15  C15 LIG X 999      45.098 132.340  23.699  1.00  0.00     0.010 C 
HETATM   16  C17 LIG X 999      45.844 132.289  21.260  1.00  0.00    -0.020 C 
HETATM   17  C18 LIG X 999      45.597 132.037  19.968  1.00  0.00     0.005 C 
BRANCH  10  18
HETATM   18  C10 LIG X 999      44.120 129.877  22.095  1.00  0.00     0.184 A 
HETATM   19  N2  LIG X 999      45.239 129.378  21.525  1.00  0.00    -0.124 NA
HETATM   20  N3  LIG X 999      45.374 128.141  21.976  1.00  0.00    -0.099 NA
HETATM   21  C11 LIG X 999      44.339 127.938  22.808  1.00  0.00     0.326 A 
HETATM   22  O1  LIG X 999      43.568 128.993  22.894  1.00  0.00    -0.255 OA
BRANCH  21  23
HETATM   23  N4  LIG X 999      44.118 126.717  23.510  1.00  0.00    -0.023 NA
HETATM   24  N5  LIG X 999      43.873 125.677  22.899  1.00  0.00    -0.158 NA
HETATM   25  N6  LIG X 999      43.628 124.638  22.289  1.00  0.00     0.068 N 
ENDBRANCH  21  23
ENDBRANCH  10  18
ENDBRANCH   7   8
ENDBRANCH   4   7
ENDBRANCH   3   4
TORSDOF 5
