REMARK VINA RESULT:      -3.8      8.881      9.949
REMARK  2 active torsions:
REMARK  status: ('A' for Active; 'I' for Inactive)
REMARK    1  A    between atoms: C9_10  and  N2_11 
REMARK       I    between atoms: N2_11  and  C10_12 
REMARK    2  A    between atoms: C10_12  and  C11_14 
ROOT
HETATM    1  C11 LIG X 999      39.751 123.918  23.190  1.00  0.00     0.282 C 
HETATM    2 CL1  LIG X 999      39.240 122.763  24.446  1.00  0.00    -0.099 Cl
HETATM    3  C12 LIG X 999      39.383 125.278  23.597  1.00  0.00     0.089 C 
HETATM    4  N3  LIG X 999      39.092 126.350  23.919  1.00  0.00    -0.195 NA
ENDROOT
BRANCH   1   5
HETATM    5  C10 LIG X 999      41.231 123.830  22.980  1.00  0.00     0.276 C 
HETATM    6  N2  LIG X 999      42.124 124.211  24.036  1.00  0.00    -0.212 NA
HETATM    7  O1  LIG X 999      41.678 123.483  21.853  1.00  0.00    -0.268 OA
BRANCH   6   8
HETATM    8  C9  LIG X 999      43.535 123.956  24.094  1.00  0.00     0.061 A 
HETATM    9  C8  LIG X 999      43.968 122.680  24.474  1.00  0.00     0.032 A 
HETATM   10  C7  LIG X 999      45.330 122.375  24.529  1.00  0.00     0.014 A 
HETATM   11  C6  LIG X 999      46.283 123.342  24.186  1.00  0.00    -0.025 A 
HETATM   12  C5  LIG X 999      47.660 123.045  24.240  1.00  0.00     0.021 A 
HETATM   13  C14 LIG X 999      45.854 124.636  23.775  1.00  0.00    -0.023 A 
HETATM   14  C4  LIG X 999      48.572 124.035  23.875  1.00  0.00    -0.024 A 
HETATM   15  C3  LIG X 999      50.049 123.954  23.875  1.00  0.00     0.276 C 
HETATM   16  C16 LIG X 999      48.161 125.272  23.477  1.00  0.00    -0.024 A 
HETATM   17  N1  LIG X 999      50.524 125.240  23.273  1.00  0.00    -0.067 N 
HETATM   18  C1  LIG X 999      51.568 125.859  24.119  1.00  0.00     0.272 C 
HETATM   19  C2  LIG X 999      51.083 124.992  21.922  1.00  0.00     0.272 C 
HETATM   20  C17 LIG X 999      49.325 126.133  23.175  1.00  0.00     0.276 C 
HETATM   21  C15 LIG X 999      46.809 125.609  23.418  1.00  0.00     0.021 A 
HETATM   22  C13 LIG X 999      44.482 124.928  23.725  1.00  0.00     0.044 A 
ENDBRANCH   6   8
ENDBRANCH   1   5
TORSDOF 2
