REMARK VINA RESULT:      -6.8      3.199      5.071
REMARK  7 active torsions:
REMARK  status: ('A' for Active; 'I' for Inactive)
REMARK    1  A    between atoms: S1_2  and  C1_3 
REMARK    2  A    between atoms: C1_3  and  N2_11 
REMARK    3  A    between atoms: N1_4  and  C2_6 
REMARK    4  A    between atoms: C2_6  and  C3_7 
REMARK    5  A    between atoms: C3_7  and  C4_8 
REMARK    6  A    between atoms: C4_8  and  S2_9 
REMARK    7  A    between atoms: N2_11  and  C5_14 
ROOT
HETATM    1  N2  LIG X 999      42.379 132.121  22.194  1.00  0.00     0.006 N 
HETATM    2  H10 LIG X 999      41.366 132.033  21.945  1.00  0.00     0.293 HD
HETATM    3  H11 LIG X 999      42.557 133.120  22.448  1.00  0.00     0.293 HD
ENDROOT
BRANCH   1   4
HETATM    4  C1  LIG X 999      42.678 131.267  23.317  1.00  0.00     0.240 C 
HETATM    5  N1  LIG X 999      42.194 130.062  23.359  1.00  0.00    -0.365 N 
HETATM    6  H2  LIG X 999      41.545 129.761  22.616  1.00  0.00     0.161 HD
BRANCH   4   7
HETATM    7  S1  LIG X 999      43.749 131.911  24.625  1.00  0.00    -0.100 SA
HETATM    8  H1  LIG X 999      43.023 133.114  24.696  1.00  0.00     0.110 HD
ENDBRANCH   4   7
BRANCH   5   9
HETATM    9  C2  LIG X 999      42.558 129.075  24.359  1.00  0.00     0.122 C 
BRANCH   9  10
HETATM   10  C3  LIG X 999      43.201 127.838  23.712  1.00  0.00     0.029 C 
BRANCH  10  11
HETATM   11  C4  LIG X 999      44.629 128.118  23.230  1.00  0.00     0.072 C 
BRANCH  11  12
HETATM   12  S2  LIG X 999      45.320 126.652  22.406  1.00  0.00    -0.182 SA
HETATM   13  H9  LIG X 999      45.911 127.410  21.376  1.00  0.00     0.101 HD
ENDBRANCH  11  12
ENDBRANCH  10  11
ENDBRANCH   9  10
ENDBRANCH   5   9
ENDBRANCH   1   4
BRANCH   1  14
HETATM   14  C5  LIG X 999      43.225 131.757  21.084  1.00  0.00     0.141 A 
HETATM   15  C6  LIG X 999      44.545 131.327  21.304  1.00  0.00     0.038 A 
HETATM   16  C7  LIG X 999      45.389 131.041  20.228  1.00  0.00     0.014 A 
HETATM   17  C8  LIG X 999      44.930 131.188  18.912  1.00  0.00    -0.026 A 
HETATM   18  C9  LIG X 999      45.773 130.913  17.824  1.00  0.00     0.012 A 
HETATM   19  C13 LIG X 999      43.603 131.622  18.678  1.00  0.00    -0.024 A 
HETATM   20  C10 LIG X 999      45.305 131.070  16.517  1.00  0.00     0.001 A 
HETATM   21  C11 LIG X 999      43.995 131.500  16.285  1.00  0.00     0.001 A 
HETATM   22  C12 LIG X 999      43.145 131.775  17.360  1.00  0.00     0.012 A 
HETATM   23  C14 LIG X 999      42.760 131.902  19.764  1.00  0.00     0.049 A 
ENDBRANCH   1  14
TORSDOF 7
