REMARK VINA RESULT:      -4.5      3.084      7.590
REMARK  5 active torsions:
REMARK  status: ('A' for Active; 'I' for Inactive)
REMARK    1  A    between atoms: C3_3  and  C4_4 
REMARK    2  A    between atoms: C4_4  and  S1_5 
REMARK    3  A    between atoms: S1_5  and  C5_6 
REMARK    4  A    between atoms: C6_7  and  N1_8 
REMARK    5  A    between atoms: C10_12  and  N2_13 
ROOT
HETATM    1  C1  LIG X 999      46.697 131.220  14.605  1.00  0.00     0.112 C 
HETATM    2  C2  LIG X 999      46.053 131.124  15.915  1.00  0.00    -0.110 C 
HETATM    3  C3  LIG X 999      45.509 131.060  16.988  1.00  0.00    -0.097 C 
ENDROOT
BRANCH   3   4
HETATM    4  C4  LIG X 999      44.832 131.005  18.287  1.00  0.00     0.173 C 
BRANCH   4   5
HETATM    5  S1  LIG X 999      46.017 130.572  19.607  1.00  0.00    -0.115 SA
BRANCH   5   6
HETATM    6  C5  LIG X 999      44.785 130.577  20.939  1.00  0.00     0.038 A 
HETATM    7  C6  LIG X 999      43.932 131.692  21.094  1.00  0.00     0.043 A 
HETATM    8  C7  LIG X 999      42.958 131.684  22.095  1.00  0.00     0.031 A 
HETATM    9  C8  LIG X 999      42.800 130.588  22.937  1.00  0.00     0.017 A 
HETATM   10  C9  LIG X 999      43.625 129.456  22.810  1.00  0.00     0.002 A 
HETATM   11  C10 LIG X 999      43.468 128.316  23.654  1.00  0.00     0.045 A 
HETATM   12  C14 LIG X 999      44.661 129.469  21.820  1.00  0.00    -0.004 A 
HETATM   13  C11 LIG X 999      44.371 127.254  23.508  1.00  0.00     0.003 A 
HETATM   14  C12 LIG X 999      45.371 127.287  22.589  1.00  0.00    -0.021 A 
HETATM   15  C18 LIG X 999      44.414 125.972  24.256  1.00  0.00     0.278 C 
HETATM   16  C13 LIG X 999      45.548 128.371  21.740  1.00  0.00     0.023 A 
HETATM   17  C15 LIG X 999      46.180 126.050  22.636  1.00  0.00     0.276 C 
HETATM   18  N3  LIG X 999      45.486 125.150  23.610  1.00  0.00    -0.067 N 
HETATM   19  C16 LIG X 999      46.439 124.646  24.624  1.00  0.00     0.272 C 
HETATM   20  C17 LIG X 999      44.886 123.997  22.897  1.00  0.00     0.272 C 
BRANCH   7  21
HETATM   21  N1  LIG X 999      44.038 132.846  20.248  1.00  0.00    -0.398 N 
HETATM   22  H6  LIG X 999      43.878 133.803  20.635  1.00  0.00     0.156 HD
HETATM   23  H7  LIG X 999      44.278 132.781  19.235  1.00  0.00     0.156 HD
ENDBRANCH   7  21
BRANCH  11  24
HETATM   24  N2  LIG X 999      42.412 128.212  24.625  1.00  0.00    -0.398 N 
HETATM   25  H10 LIG X 999      41.524 127.702  24.438  1.00  0.00     0.156 HD
HETATM   26  H11 LIG X 999      42.551 128.553  25.602  1.00  0.00     0.156 HD
ENDBRANCH  11  24
ENDBRANCH   5   6
ENDBRANCH   4   5
ENDBRANCH   3   4
TORSDOF 5
