REMARK VINA RESULT:      -8.0      4.655      6.411
REMARK  2 active torsions:
REMARK  status: ('A' for Active; 'I' for Inactive)
REMARK    1  A    between atoms: C1_1  and  N1_2 
REMARK    2  A    between atoms: C2_5  and  C3_7 
ROOT
HETATM    1  N1  LIG X 999      43.297 131.508  22.174  1.00  0.00    -0.082 NA
HETATM    2  N2  LIG X 999      42.901 130.524  22.800  1.00  0.00    -0.163 NA
HETATM    3  N3  LIG X 999      42.505 129.542  23.424  1.00  0.00     0.068 N 
ENDROOT
BRANCH   1   4
HETATM    4  C1  LIG X 999      43.349 131.489  20.748  1.00  0.00     0.196 C 
HETATM    5  C2  LIG X 999      44.507 131.257  20.119  1.00  0.00     0.137 C 
HETATM    6  O1  LIG X 999      45.659 131.064  20.877  1.00  0.00    -0.190 OA
BRANCH   5   7
HETATM    7  C3  LIG X 999      44.612 131.223  18.636  1.00  0.00     0.003 A 
HETATM    8  C4  LIG X 999      43.584 131.787  17.863  1.00  0.00     0.015 A 
HETATM    9  C5  LIG X 999      43.651 131.781  16.468  1.00  0.00     0.013 A 
HETATM   10  C6  LIG X 999      44.757 131.218  15.818  1.00  0.00    -0.026 A 
HETATM   11  C7  LIG X 999      44.835 131.208  14.416  1.00  0.00     0.012 A 
HETATM   12  C11 LIG X 999      45.808 130.659  16.582  1.00  0.00    -0.025 A 
HETATM   13  C8  LIG X 999      45.947 130.649  13.780  1.00  0.00     0.001 A 
HETATM   14  C9  LIG X 999      46.986 130.099  14.533  1.00  0.00     0.001 A 
HETATM   15  C10 LIG X 999      46.921 130.103  15.930  1.00  0.00     0.012 A 
HETATM   16  C12 LIG X 999      45.731 130.668  17.984  1.00  0.00     0.026 A 
ENDBRANCH   5   7
ENDBRANCH   1   4
TORSDOF 2
