REMARK VINA RESULT:      -8.2      0.000      0.000
REMARK  1 active torsions:
REMARK  status: ('A' for Active; 'I' for Inactive)
REMARK    1  A    between atoms: C8_8  and  N1_9 
ROOT
HETATM    1  N1  LIG X 999      46.568 129.978  16.751  1.00  0.00    -0.072 NA
HETATM    2  N2  LIG X 999      46.950 129.865  15.585  1.00  0.00    -0.162 NA
HETATM    3  N3  LIG X 999      47.333 129.752  14.422  1.00  0.00     0.068 N 
ENDROOT
BRANCH   1   4
HETATM    4  C8  LIG X 999      45.355 130.665  17.097  1.00  0.00     0.104 A 
HETATM    5  C7  LIG X 999      44.421 131.078  16.097  1.00  0.00     0.038 A 
HETATM    6  C6  LIG X 999      43.228 131.754  16.445  1.00  0.00     0.033 A 
HETATM    7  C5  LIG X 999      42.990 132.006  17.794  1.00  0.00     0.047 A 
HETATM    8  C4  LIG X 999      43.890 131.604  18.737  1.00  0.00     0.019 A 
HETATM    9  N4  LIG X 999      41.877 132.661  18.405  1.00  0.00    -0.322 N 
HETATM   10  C3  LIG X 999      43.481 131.940  19.991  1.00  0.00     0.045 A 
HETATM   11  C9  LIG X 999      45.073 130.941  18.456  1.00  0.00     0.009 A 
HETATM   12  C2  LIG X 999      44.260 131.619  21.102  1.00  0.00     0.018 A 
HETATM   13  C11 LIG X 999      42.198 132.615  19.804  1.00  0.00     0.257 A 
HETATM   14  C1  LIG X 999      45.480 130.940  20.874  1.00  0.00     0.002 A 
HETATM   15  C10 LIG X 999      45.889 130.600  19.557  1.00  0.00     0.015 A 
HETATM   16  O1  LIG X 999      41.471 133.091  20.714  1.00  0.00    -0.267 OA
HETATM   17  H6  LIG X 999      41.036 133.074  17.947  1.00  0.00     0.169 HD
ENDBRANCH   1   4
TORSDOF 1
