REMARK VINA RESULT:      -5.7      0.000      0.000
REMARK  5 active torsions:
REMARK  status: ('A' for Active; 'I' for Inactive)
REMARK    1  A    between atoms: C3_3  and  O1_4 
REMARK    2  A    between atoms: O1_4  and  C4_5 
REMARK    3  A    between atoms: C5_6  and  C6_7 
REMARK    4  A    between atoms: C6_7  and  O2_8 
REMARK    5  A    between atoms: C17_20  and  N1_21 
ROOT
HETATM    1  C1  LIG X 999      43.215 131.232  23.647  1.00  0.00     0.014 C 
HETATM    2  C2  LIG X 999      42.645 130.266  24.088  1.00  0.00    -0.091 C 
HETATM    3  C3  LIG X 999      41.952 129.089  24.623  1.00  0.00     0.268 C 
ENDROOT
BRANCH   3   4
HETATM    4  O1  LIG X 999      41.218 128.430  23.592  1.00  0.00    -0.336 OA
BRANCH   4   5
HETATM    5  C4  LIG X 999      41.003 127.045  23.600  1.00  0.00     0.108 C 
HETATM    6  C5  LIG X 999      39.716 126.519  23.824  1.00  0.00     0.012 C 
HETATM    7  C7  LIG X 999      39.560 125.113  23.962  1.00  0.00    -0.014 C 
HETATM    8  C8  LIG X 999      38.312 124.540  24.308  1.00  0.00     0.013 C 
HETATM    9  C12 LIG X 999      40.691 124.251  23.802  1.00  0.00    -0.012 C 
HETATM   10  C9  LIG X 999      38.201 123.183  24.594  1.00  0.00     0.001 C 
HETATM   11  C10 LIG X 999      39.328 122.375  24.582  1.00  0.00     0.001 C 
HETATM   12  C11 LIG X 999      40.563 122.905  24.214  1.00  0.00     0.013 C 
HETATM   13  C13 LIG X 999      41.927 124.790  23.330  1.00  0.00     0.013 C 
HETATM   14  C14 LIG X 999      43.018 124.020  22.809  1.00  0.00    -0.045 C 
HETATM   15  C18 LIG X 999      42.085 126.198  23.341  1.00  0.00     0.105 C 
HETATM   16  C15 LIG X 999      42.894 122.599  22.314  1.00  0.00     0.049 C 
HETATM   17  C16 LIG X 999      44.258 124.642  22.595  1.00  0.00     0.063 C 
HETATM   18  C17 LIG X 999      44.387 126.025  22.751  1.00  0.00     0.186 C 
HETATM   19  N4  LIG X 999      43.296 126.756  23.075  1.00  0.00    -0.223 NA
BRANCH   6  20
HETATM   20  C6  LIG X 999      38.529 127.468  23.880  1.00  0.00     0.206 C 
BRANCH  20  21
HETATM   21  O2  LIG X 999      37.685 127.242  22.783  1.00  0.00    -0.396 OA
HETATM   22  H6  LIG X 999      36.769 127.505  23.057  1.00  0.00     0.209 HD
ENDBRANCH  20  21
ENDBRANCH   6  20
BRANCH  18  23
HETATM   23  N1  LIG X 999      45.629 126.702  22.519  1.00  0.00    -0.052 NA
HETATM   24  N2  LIG X 999      46.673 126.097  22.270  1.00  0.00    -0.160 NA
HETATM   25  N3  LIG X 999      47.717 125.495  22.021  1.00  0.00     0.068 N 
ENDBRANCH  18  23
ENDBRANCH   4   5
ENDBRANCH   3   4
TORSDOF 5
