MODEL 1
REMARK VINA RESULT:      -7.6      0.000      0.000
REMARK  6 active torsions:
REMARK  status: ('A' for Active; 'I' for Inactive)
REMARK    1  A    between atoms: S1_2  and  C1_3 
REMARK    2  A    between atoms: C1_3  and  N2_15 
REMARK    3  A    between atoms: N1_4  and  C2_5 
REMARK    4  A    between atoms: N2_15  and  C12_17 
REMARK    5  A    between atoms: C12_17  and  C13_18 
REMARK    6  A    between atoms: C13_18  and  C14_19 
ROOT
HETATM    1  C2  LIG X 999      44.795 131.121  16.858  1.00  0.00     0.060 A 
HETATM    2  C3  LIG X 999      45.296 129.861  17.204  1.00  0.00     0.032 A 
HETATM    3  C4  LIG X 999      46.278 129.248  16.423  1.00  0.00     0.014 A 
HETATM    4  C5  LIG X 999      46.757 129.881  15.267  1.00  0.00    -0.026 A 
HETATM    5  C6  LIG X 999      47.744 129.275  14.474  1.00  0.00     0.012 A 
HETATM    6  C7  LIG X 999      48.204 129.913  13.318  1.00  0.00     0.001 A 
HETATM    7  C8  LIG X 999      47.683 131.154  12.944  1.00  0.00     0.001 A 
HETATM    8  C9  LIG X 999      46.699 131.767  13.725  1.00  0.00     0.012 A 
HETATM    9  C10 LIG X 999      46.231 131.141  14.890  1.00  0.00    -0.024 A 
HETATM   10  C11 LIG X 999      45.243 131.746  15.682  1.00  0.00     0.044 A 
ENDROOT
BRANCH   1  11
HETATM   11  N1  LIG X 999      43.752 131.697  17.660  1.00  0.00    -0.225 NA
HETATM   12  C1  LIG X 999      43.746 131.826  18.956  1.00  0.00     0.160 C 
BRANCH  12  13
HETATM   13  S1  LIG X 999      42.363 132.692  19.699  1.00  0.00    -0.105 SA
HETATM   14  H1  LIG X 999      43.184 133.264  20.689  1.00  0.00     0.110 HD
ENDBRANCH  12  13
BRANCH  12  15
HETATM   15  N2  LIG X 999      44.763 131.224  19.780  1.00  0.00    -0.369 N 
HETATM   16  H9  LIG X 999      45.377 130.481  19.380  1.00  0.00     0.161 HD
BRANCH  15  17
HETATM   17  C12 LIG X 999      44.873 131.469  21.217  1.00  0.00     0.122 C 
BRANCH  17  18
HETATM   18  C13 LIG X 999      44.584 130.180  21.996  1.00  0.00     0.030 C 
BRANCH  18  19
HETATM   19  C14 LIG X 999      43.186 130.183  22.619  1.00  0.00     0.088 C 
HETATM   20  S2  LIG X 999      42.870 131.701  23.501  1.00  0.00    -0.098 SA
ENDBRANCH  18  19
ENDBRANCH  17  18
ENDBRANCH  15  17
ENDBRANCH  12  15
ENDBRANCH   1  11
TORSDOF 6
ENDMDL
MODEL 2
REMARK VINA RESULT:      -7.0      2.903      7.138
REMARK  6 active torsions:
REMARK  status: ('A' for Active; 'I' for Inactive)
REMARK    1  A    between atoms: S1_2  and  C1_3 
REMARK    2  A    between atoms: C1_3  and  N2_15 
REMARK    3  A    between atoms: N1_4  and  C2_5 
REMARK    4  A    between atoms: N2_15  and  C12_17 
REMARK    5  A    between atoms: C12_17  and  C13_18 
REMARK    6  A    between atoms: C13_18  and  C14_19 
ROOT
HETATM    1  C2  LIG X 999      44.186 131.563  18.416  1.00  0.00     0.060 A 
HETATM    2  C3  LIG X 999      45.384 130.992  18.860  1.00  0.00     0.032 A 
HETATM    3  C4  LIG X 999      45.594 130.747  20.219  1.00  0.00     0.014 A 
HETATM    4  C5  LIG X 999      44.612 131.094  21.158  1.00  0.00    -0.026 A 
HETATM    5  C6  LIG X 999      44.810 130.853  22.526  1.00  0.00     0.012 A 
HETATM    6  C7  LIG X 999      43.827 131.214  23.452  1.00  0.00     0.001 A 
HETATM    7  C8  LIG X 999      42.643 131.819  23.022  1.00  0.00     0.001 A 
HETATM    8  C9  LIG X 999      42.434 132.065  21.662  1.00  0.00     0.012 A 
HETATM    9  C10 LIG X 999      43.410 131.704  20.721  1.00  0.00    -0.024 A 
HETATM   10  C11 LIG X 999      43.212 131.947  19.353  1.00  0.00     0.044 A 
ENDROOT
BRANCH   1  11
HETATM   11  N1  LIG X 999      44.028 131.842  17.016  1.00  0.00    -0.225 NA
HETATM   12  C1  LIG X 999      44.286 131.036  16.026  1.00  0.00     0.160 C 
BRANCH  12  13
HETATM   13  S1  LIG X 999      43.885 131.598  14.370  1.00  0.00    -0.105 SA
HETATM   14  H1  LIG X 999      42.929 130.579  14.199  1.00  0.00     0.110 HD
ENDBRANCH  12  13
BRANCH  12  15
HETATM   15  N2  LIG X 999      44.947 129.773  16.232  1.00  0.00    -0.369 N 
HETATM   16  H9  LIG X 999      44.984 129.362  17.191  1.00  0.00     0.161 HD
BRANCH  15  17
HETATM   17  C12 LIG X 999      45.737 129.109  15.198  1.00  0.00     0.122 C 
BRANCH  17  18
HETATM   18  C13 LIG X 999      47.191 129.592  15.251  1.00  0.00     0.030 C 
BRANCH  18  19
HETATM   19  C14 LIG X 999      47.867 129.543  13.878  1.00  0.00     0.088 C 
HETATM   20  S2  LIG X 999      47.620 131.063  12.978  1.00  0.00    -0.098 SA
ENDBRANCH  18  19
ENDBRANCH  17  18
ENDBRANCH  15  17
ENDBRANCH  12  15
ENDBRANCH   1  11
TORSDOF 6
ENDMDL
MODEL 3
REMARK VINA RESULT:      -6.8      1.213      1.263
REMARK  6 active torsions:
REMARK  status: ('A' for Active; 'I' for Inactive)
REMARK    1  A    between atoms: S1_2  and  C1_3 
REMARK    2  A    between atoms: C1_3  and  N2_15 
REMARK    3  A    between atoms: N1_4  and  C2_5 
REMARK    4  A    between atoms: N2_15  and  C12_17 
REMARK    5  A    between atoms: C12_17  and  C13_18 
REMARK    6  A    between atoms: C13_18  and  C14_19 
ROOT
HETATM    1  C2  LIG X 999      44.526 131.363  17.465  1.00  0.00     0.060 A 
HETATM    2  C3  LIG X 999      45.418 130.440  18.022  1.00  0.00     0.032 A 
HETATM    3  C4  LIG X 999      46.426 129.867  17.243  1.00  0.00     0.014 A 
HETATM    4  C5  LIG X 999      46.540 130.195  15.884  1.00  0.00    -0.026 A 
HETATM    5  C6  LIG X 999      47.548 129.626  15.091  1.00  0.00     0.012 A 
HETATM    6  C7  LIG X 999      47.643 129.953  13.735  1.00  0.00     0.001 A 
HETATM    7  C8  LIG X 999      46.733 130.845  13.161  1.00  0.00     0.001 A 
HETATM    8  C9  LIG X 999      45.724 131.418  13.940  1.00  0.00     0.012 A 
HETATM    9  C10 LIG X 999      45.620 131.102  15.304  1.00  0.00    -0.024 A 
HETATM   10  C11 LIG X 999      44.610 131.669  16.096  1.00  0.00     0.044 A 
ENDROOT
BRANCH   1  11
HETATM   11  N1  LIG X 999      43.475 131.894  18.286  1.00  0.00    -0.225 NA
HETATM   12  C1  LIG X 999      43.467 131.978  19.586  1.00  0.00     0.160 C 
BRANCH  12  13
HETATM   13  S1  LIG X 999      42.071 132.796  20.359  1.00  0.00    -0.105 SA
HETATM   14  H1  LIG X 999      42.522 134.066  19.952  1.00  0.00     0.110 HD
ENDBRANCH  12  13
BRANCH  12  15
HETATM   15  N2  LIG X 999      44.495 131.365  20.389  1.00  0.00    -0.369 N 
HETATM   16  H9  LIG X 999      45.201 130.744  19.935  1.00  0.00     0.161 HD
BRANCH  15  17
HETATM   17  C12 LIG X 999      44.502 131.417  21.849  1.00  0.00     0.122 C 
BRANCH  17  18
HETATM   18  C13 LIG X 999      43.708 130.238  22.425  1.00  0.00     0.030 C 
BRANCH  18  19
HETATM   19  C14 LIG X 999      44.565 128.976  22.561  1.00  0.00     0.088 C 
HETATM   20  S2  LIG X 999      44.665 128.441  24.260  1.00  0.00    -0.098 SA
ENDBRANCH  18  19
ENDBRANCH  17  18
ENDBRANCH  15  17
ENDBRANCH  12  15
ENDBRANCH   1  11
TORSDOF 6
ENDMDL
MODEL 4
REMARK VINA RESULT:      -6.6      2.648      4.372
REMARK  6 active torsions:
REMARK  status: ('A' for Active; 'I' for Inactive)
REMARK    1  A    between atoms: S1_2  and  C1_3 
REMARK    2  A    between atoms: C1_3  and  N2_15 
REMARK    3  A    between atoms: N1_4  and  C2_5 
REMARK    4  A    between atoms: N2_15  and  C12_17 
REMARK    5  A    between atoms: C12_17  and  C13_18 
REMARK    6  A    between atoms: C13_18  and  C14_19 
ROOT
HETATM    1  C2  LIG X 999      43.322 131.951  20.581  1.00  0.00     0.060 A 
HETATM    2  C3  LIG X 999      42.252 132.308  19.752  1.00  0.00     0.032 A 
HETATM    3  C4  LIG X 999      42.343 132.154  18.367  1.00  0.00     0.014 A 
HETATM    4  C5  LIG X 999      43.522 131.661  17.789  1.00  0.00    -0.026 A 
HETATM    5  C6  LIG X 999      43.626 131.502  16.398  1.00  0.00     0.012 A 
HETATM    6  C7  LIG X 999      44.811 131.020  15.834  1.00  0.00     0.001 A 
HETATM    7  C8  LIG X 999      45.898 130.697  16.650  1.00  0.00     0.001 A 
HETATM    8  C9  LIG X 999      45.807 130.851  18.036  1.00  0.00     0.012 A 
HETATM    9  C10 LIG X 999      44.623 131.330  18.616  1.00  0.00    -0.024 A 
HETATM   10  C11 LIG X 999      44.520 131.491  20.006  1.00  0.00     0.044 A 
ENDROOT
BRANCH   1  11
HETATM   11  N1  LIG X 999      43.207 132.168  21.995  1.00  0.00    -0.225 NA
HETATM   12  C1  LIG X 999      43.041 131.258  22.913  1.00  0.00     0.160 C 
BRANCH  12  13
HETATM   13  S1  LIG X 999      43.045 131.793  24.625  1.00  0.00    -0.105 SA
HETATM   14  H1  LIG X 999      44.223 131.073  24.902  1.00  0.00     0.110 HD
ENDBRANCH  12  13
BRANCH  12  15
HETATM   15  N2  LIG X 999      42.776 129.883  22.574  1.00  0.00    -0.369 N 
HETATM   16  H9  LIG X 999      42.060 129.660  21.847  1.00  0.00     0.161 HD
BRANCH  15  17
HETATM   17  C12 LIG X 999      43.330 128.757  23.323  1.00  0.00     0.122 C 
BRANCH  17  18
HETATM   18  C13 LIG X 999      44.744 128.435  22.825  1.00  0.00     0.030 C 
BRANCH  18  19
HETATM   19  C14 LIG X 999      44.901 126.960  22.446  1.00  0.00     0.088 C 
HETATM   20  S2  LIG X 999      43.707 125.941  23.294  1.00  0.00    -0.098 SA
ENDBRANCH  18  19
ENDBRANCH  17  18
ENDBRANCH  15  17
ENDBRANCH  12  15
ENDBRANCH   1  11
TORSDOF 6
ENDMDL
MODEL 5
REMARK VINA RESULT:      -6.4      2.298      3.412
REMARK  6 active torsions:
REMARK  status: ('A' for Active; 'I' for Inactive)
REMARK    1  A    between atoms: S1_2  and  C1_3 
REMARK    2  A    between atoms: C1_3  and  N2_15 
REMARK    3  A    between atoms: N1_4  and  C2_5 
REMARK    4  A    between atoms: N2_15  and  C12_17 
REMARK    5  A    between atoms: C12_17  and  C13_18 
REMARK    6  A    between atoms: C13_18  and  C14_19 
ROOT
HETATM    1  C2  LIG X 999      44.242 131.442  19.633  1.00  0.00     0.060 A 
HETATM    2  C3  LIG X 999      45.474 130.778  19.673  1.00  0.00     0.032 A 
HETATM    3  C4  LIG X 999      46.143 130.450  18.492  1.00  0.00     0.014 A 
HETATM    4  C5  LIG X 999      45.575 130.764  17.249  1.00  0.00    -0.026 A 
HETATM    5  C6  LIG X 999      46.239 130.440  16.055  1.00  0.00     0.012 A 
HETATM    6  C7  LIG X 999      45.656 130.749  14.822  1.00  0.00     0.001 A 
HETATM    7  C8  LIG X 999      44.409 131.379  14.771  1.00  0.00     0.001 A 
HETATM    8  C9  LIG X 999      43.738 131.706  15.954  1.00  0.00     0.012 A 
HETATM    9  C10 LIG X 999      44.314 131.406  17.197  1.00  0.00    -0.024 A 
HETATM   10  C11 LIG X 999      43.650 131.728  18.391  1.00  0.00     0.044 A 
ENDROOT
BRANCH   1  11
HETATM   11  N1  LIG X 999      43.563 131.720  20.867  1.00  0.00    -0.225 NA
HETATM   12  C1  LIG X 999      43.796 131.173  22.026  1.00  0.00     0.160 C 
BRANCH  12  13
HETATM   13  S1  LIG X 999      42.877 131.790  23.436  1.00  0.00    -0.105 SA
HETATM   14  H1  LIG X 999      43.094 130.605  24.164  1.00  0.00     0.110 HD
ENDBRANCH  12  13
BRANCH  12  15
HETATM   15  N2  LIG X 999      44.694 130.055  22.167  1.00  0.00    -0.369 N 
HETATM   16  H9  LIG X 999      45.503 129.959  21.514  1.00  0.00     0.161 HD
BRANCH  15  17
HETATM   17  C12 LIG X 999      44.436 128.935  23.069  1.00  0.00     0.122 C 
BRANCH  17  18
HETATM   18  C13 LIG X 999      45.105 127.662  22.537  1.00  0.00     0.030 C 
BRANCH  18  19
HETATM   19  C14 LIG X 999      44.834 126.450  23.432  1.00  0.00     0.088 C 
HETATM   20  S2  LIG X 999      43.852 125.224  22.585  1.00  0.00    -0.098 SA
ENDBRANCH  18  19
ENDBRANCH  17  18
ENDBRANCH  15  17
ENDBRANCH  12  15
ENDBRANCH   1  11
TORSDOF 6
ENDMDL
MODEL 6
REMARK VINA RESULT:      -6.3      1.230      2.000
REMARK  6 active torsions:
REMARK  status: ('A' for Active; 'I' for Inactive)
REMARK    1  A    between atoms: S1_2  and  C1_3 
REMARK    2  A    between atoms: C1_3  and  N2_15 
REMARK    3  A    between atoms: N1_4  and  C2_5 
REMARK    4  A    between atoms: N2_15  and  C12_17 
REMARK    5  A    between atoms: C12_17  and  C13_18 
REMARK    6  A    between atoms: C13_18  and  C14_19 
ROOT
HETATM    1  C2  LIG X 999      44.696 131.244  16.622  1.00  0.00     0.060 A 
HETATM    2  C3  LIG X 999      45.050 132.448  16.002  1.00  0.00     0.032 A 
HETATM    3  C4  LIG X 999      46.011 132.469  14.989  1.00  0.00     0.014 A 
HETATM    4  C5  LIG X 999      46.650 131.284  14.597  1.00  0.00    -0.026 A 
HETATM    5  C6  LIG X 999      47.618 131.292  13.581  1.00  0.00     0.012 A 
HETATM    6  C7  LIG X 999      48.254 130.105  13.208  1.00  0.00     0.001 A 
HETATM    7  C8  LIG X 999      47.934 128.904  13.847  1.00  0.00     0.001 A 
HETATM    8  C9  LIG X 999      46.973 128.883  14.862  1.00  0.00     0.012 A 
HETATM    9  C10 LIG X 999      46.323 130.066  15.243  1.00  0.00    -0.024 A 
HETATM   10  C11 LIG X 999      45.357 130.058  16.261  1.00  0.00     0.044 A 
ENDROOT
BRANCH   1  11
HETATM   11  N1  LIG X 999      43.738 131.270  17.691  1.00  0.00    -0.225 NA
HETATM   12  C1  LIG X 999      43.944 131.668  18.914  1.00  0.00     0.160 C 
BRANCH  12  13
HETATM   13  S1  LIG X 999      42.536 131.707  20.024  1.00  0.00    -0.105 SA
HETATM   14  H1  LIG X 999      43.115 130.748  20.877  1.00  0.00     0.110 HD
ENDBRANCH  12  13
BRANCH  12  15
HETATM   15  N2  LIG X 999      45.265 131.986  19.393  1.00  0.00    -0.369 N 
HETATM   16  H9  LIG X 999      45.957 132.420  18.743  1.00  0.00     0.161 HD
BRANCH  15  17
HETATM   17  C12 LIG X 999      45.759 131.569  20.702  1.00  0.00     0.122 C 
BRANCH  17  18
HETATM   18  C13 LIG X 999      45.413 130.096  20.953  1.00  0.00     0.030 C 
BRANCH  18  19
HETATM   19  C14 LIG X 999      44.656 129.896  22.269  1.00  0.00     0.088 C 
HETATM   20  S2  LIG X 999      44.730 128.198  22.809  1.00  0.00    -0.098 SA
ENDBRANCH  18  19
ENDBRANCH  17  18
ENDBRANCH  15  17
ENDBRANCH  12  15
ENDBRANCH   1  11
TORSDOF 6
ENDMDL
MODEL 7
REMARK VINA RESULT:      -6.3      2.968      7.063
REMARK  6 active torsions:
REMARK  status: ('A' for Active; 'I' for Inactive)
REMARK    1  A    between atoms: S1_2  and  C1_3 
REMARK    2  A    between atoms: C1_3  and  N2_15 
REMARK    3  A    between atoms: N1_4  and  C2_5 
REMARK    4  A    between atoms: N2_15  and  C12_17 
REMARK    5  A    between atoms: C12_17  and  C13_18 
REMARK    6  A    between atoms: C13_18  and  C14_19 
ROOT
HETATM    1  C2  LIG X 999      42.928 131.913  18.154  1.00  0.00     0.060 A 
HETATM    2  C3  LIG X 999      41.831 132.500  18.794  1.00  0.00     0.032 A 
HETATM    3  C4  LIG X 999      41.772 132.565  20.188  1.00  0.00     0.014 A 
HETATM    4  C5  LIG X 999      42.804 132.018  20.964  1.00  0.00    -0.026 A 
HETATM    5  C6  LIG X 999      42.756 132.076  22.365  1.00  0.00     0.012 A 
HETATM    6  C7  LIG X 999      43.787 131.517  23.126  1.00  0.00     0.001 A 
HETATM    7  C8  LIG X 999      44.869 130.895  22.497  1.00  0.00     0.001 A 
HETATM    8  C9  LIG X 999      44.928 130.830  21.102  1.00  0.00     0.012 A 
HETATM    9  C10 LIG X 999      43.902 131.391  20.326  1.00  0.00    -0.024 A 
HETATM   10  C11 LIG X 999      43.950 131.331  18.924  1.00  0.00     0.044 A 
ENDROOT
BRANCH   1  11
HETATM   11  N1  LIG X 999      42.930 131.825  16.721  1.00  0.00    -0.225 NA
HETATM   12  C1  LIG X 999      43.967 131.654  15.952  1.00  0.00     0.160 C 
BRANCH  12  13
HETATM   13  S1  LIG X 999      43.675 131.460  14.193  1.00  0.00    -0.105 SA
HETATM   14  H1  LIG X 999      42.417 130.869  14.413  1.00  0.00     0.110 HD
ENDBRANCH  12  13
BRANCH  12  15
HETATM   15  N2  LIG X 999      45.310 131.703  16.471  1.00  0.00    -0.369 N 
HETATM   16  H9  LIG X 999      45.474 132.050  17.442  1.00  0.00     0.161 HD
BRANCH  15  17
HETATM   17  C12 LIG X 999      46.492 131.462  15.647  1.00  0.00     0.122 C 
BRANCH  17  18
HETATM   18  C13 LIG X 999      46.780 129.958  15.563  1.00  0.00     0.030 C 
BRANCH  18  19
HETATM   19  C14 LIG X 999      47.384 129.560  14.213  1.00  0.00     0.088 C 
HETATM   20  S2  LIG X 999      47.536 130.969  13.129  1.00  0.00    -0.098 SA
ENDBRANCH  18  19
ENDBRANCH  17  18
ENDBRANCH  15  17
ENDBRANCH  12  15
ENDBRANCH   1  11
TORSDOF 6
ENDMDL
MODEL 8
REMARK VINA RESULT:      -6.1      1.363      1.673
REMARK  6 active torsions:
REMARK  status: ('A' for Active; 'I' for Inactive)
REMARK    1  A    between atoms: S1_2  and  C1_3 
REMARK    2  A    between atoms: C1_3  and  N2_15 
REMARK    3  A    between atoms: N1_4  and  C2_5 
REMARK    4  A    between atoms: N2_15  and  C12_17 
REMARK    5  A    between atoms: C12_17  and  C13_18 
REMARK    6  A    between atoms: C13_18  and  C14_19 
ROOT
HETATM    1  C2  LIG X 999      44.631 131.092  16.525  1.00  0.00     0.060 A 
HETATM    2  C3  LIG X 999      45.367 130.059  17.115  1.00  0.00     0.032 A 
HETATM    3  C4  LIG X 999      46.472 129.509  16.460  1.00  0.00     0.014 A 
HETATM    4  C5  LIG X 999      46.841 129.972  15.189  1.00  0.00    -0.026 A 
HETATM    5  C6  LIG X 999      47.948 129.428  14.520  1.00  0.00     0.012 A 
HETATM    6  C7  LIG X 999      48.298 129.892  13.249  1.00  0.00     0.001 A 
HETATM    7  C8  LIG X 999      47.547 130.898  12.635  1.00  0.00     0.001 A 
HETATM    8  C9  LIG X 999      46.440 131.448  13.291  1.00  0.00     0.012 A 
HETATM    9  C10 LIG X 999      46.081 130.994  14.569  1.00  0.00    -0.024 A 
HETATM   10  C11 LIG X 999      44.972 131.538  15.236  1.00  0.00     0.044 A 
ENDROOT
BRANCH   1  11
HETATM   11  N1  LIG X 999      43.475 131.599  17.209  1.00  0.00    -0.225 NA
HETATM   12  C1  LIG X 999      43.374 131.860  18.481  1.00  0.00     0.160 C 
BRANCH  12  13
HETATM   13  S1  LIG X 999      41.845 132.599  19.059  1.00  0.00    -0.105 SA
HETATM   14  H1  LIG X 999      41.775 133.455  17.943  1.00  0.00     0.110 HD
ENDBRANCH  12  13
BRANCH  12  15
HETATM   15  N2  LIG X 999      44.410 131.494  19.413  1.00  0.00    -0.369 N 
HETATM   16  H9  LIG X 999      45.381 131.334  19.065  1.00  0.00     0.161 HD
BRANCH  15  17
HETATM   17  C12 LIG X 999      44.143 131.154  20.808  1.00  0.00     0.122 C 
BRANCH  17  18
HETATM   18  C13 LIG X 999      45.132 131.880  21.728  1.00  0.00     0.030 C 
BRANCH  18  19
HETATM   19  C14 LIG X 999      46.466 132.165  21.031  1.00  0.00     0.088 C 
HETATM   20  S2  LIG X 999      47.384 133.436  21.883  1.00  0.00    -0.098 SA
ENDBRANCH  18  19
ENDBRANCH  17  18
ENDBRANCH  15  17
ENDBRANCH  12  15
ENDBRANCH   1  11
TORSDOF 6
ENDMDL
MODEL 9
REMARK VINA RESULT:      -5.6      2.525      3.389
REMARK  6 active torsions:
REMARK  status: ('A' for Active; 'I' for Inactive)
REMARK    1  A    between atoms: S1_2  and  C1_3 
REMARK    2  A    between atoms: C1_3  and  N2_15 
REMARK    3  A    between atoms: N1_4  and  C2_5 
REMARK    4  A    between atoms: N2_15  and  C12_17 
REMARK    5  A    between atoms: C12_17  and  C13_18 
REMARK    6  A    between atoms: C13_18  and  C14_19 
ROOT
HETATM    1  C2  LIG X 999      45.288 130.746  18.011  1.00  0.00     0.060 A 
HETATM    2  C3  LIG X 999      45.064 132.020  17.478  1.00  0.00     0.032 A 
HETATM    3  C4  LIG X 999      45.521 132.347  16.199  1.00  0.00     0.014 A 
HETATM    4  C5  LIG X 999      46.232 131.404  15.442  1.00  0.00    -0.026 A 
HETATM    5  C6  LIG X 999      46.696 131.719  14.156  1.00  0.00     0.012 A 
HETATM    6  C7  LIG X 999      47.413 130.774  13.417  1.00  0.00     0.001 A 
HETATM    7  C8  LIG X 999      47.674 129.511  13.955  1.00  0.00     0.001 A 
HETATM    8  C9  LIG X 999      47.217 129.184  15.236  1.00  0.00     0.012 A 
HETATM    9  C10 LIG X 999      46.493 130.123  15.987  1.00  0.00    -0.024 A 
HETATM   10  C11 LIG X 999      46.030 129.807  17.273  1.00  0.00     0.044 A 
ENDROOT
BRANCH   1  11
HETATM   11  N1  LIG X 999      44.843 130.464  19.346  1.00  0.00    -0.225 NA
HETATM   12  C1  LIG X 999      45.302 130.985  20.448  1.00  0.00     0.160 C 
BRANCH  12  13
HETATM   13  S1  LIG X 999      44.485 130.544  21.982  1.00  0.00    -0.105 SA
HETATM   14  H1  LIG X 999      44.372 131.892  22.371  1.00  0.00     0.110 HD
ENDBRANCH  12  13
BRANCH  12  15
HETATM   15  N2  LIG X 999      46.477 131.820  20.456  1.00  0.00    -0.369 N 
HETATM   16  H9  LIG X 999      47.381 131.439  20.098  1.00  0.00     0.161 HD
BRANCH  15  17
HETATM   17  C12 LIG X 999      46.522 133.126  21.110  1.00  0.00     0.122 C 
BRANCH  17  18
HETATM   18  C13 LIG X 999      47.756 133.222  22.015  1.00  0.00     0.030 C 
BRANCH  18  19
HETATM   19  C14 LIG X 999      48.361 134.628  22.021  1.00  0.00     0.088 C 
HETATM   20  S2  LIG X 999      49.697 134.756  23.196  1.00  0.00    -0.098 SA
ENDBRANCH  18  19
ENDBRANCH  17  18
ENDBRANCH  15  17
ENDBRANCH  12  15
ENDBRANCH   1  11
TORSDOF 6
ENDMDL
