REMARK VINA RESULT:      -6.2      1.268      2.254
REMARK  3 active torsions:
REMARK  status: ('A' for Active; 'I' for Inactive)
REMARK    1  A    between atoms: C2_2  and  O1_3 
REMARK    2  A    between atoms: O1_3  and  C3_4 
REMARK       I    between atoms: C3_4  and  N1_6 
REMARK    3  A    between atoms: N1_6  and  C4_7 
ROOT
HETATM    1  C4  LIG X 999      44.924 131.890  16.196  1.00  0.00     0.063 A 
HETATM    2  C5  LIG X 999      43.527 131.915  16.112  1.00  0.00     0.032 A 
HETATM    3  C6  LIG X 999      42.740 131.818  17.263  1.00  0.00     0.014 A 
HETATM    4  C7  LIG X 999      43.343 131.709  18.522  1.00  0.00    -0.025 A 
HETATM    5  C8  LIG X 999      42.560 131.613  19.688  1.00  0.00     0.021 A 
HETATM    6  C9  LIG X 999      43.206 131.513  20.922  1.00  0.00    -0.024 A 
HETATM    7  C10 LIG X 999      44.564 131.516  21.017  1.00  0.00    -0.024 A 
HETATM    8  C11 LIG X 999      45.377 131.618  19.887  1.00  0.00     0.021 A 
HETATM    9  C12 LIG X 999      44.765 131.710  18.622  1.00  0.00    -0.023 A 
HETATM   10  C13 LIG X 999      45.542 131.810  17.459  1.00  0.00     0.044 A 
HETATM   11  C14 LIG X 999      44.985 131.431  22.432  1.00  0.00     0.276 C 
HETATM   12  N2  LIG X 999      43.728 131.208  23.214  1.00  0.00    -0.067 N 
HETATM   13  C15 LIG X 999      43.693 129.821  23.736  1.00  0.00     0.272 C 
HETATM   14  C16 LIG X 999      43.646 132.152  24.352  1.00  0.00     0.272 C 
HETATM   15  C17 LIG X 999      42.591 131.426  22.263  1.00  0.00     0.276 C 
ENDROOT
BRANCH   1  16
HETATM   16  N1  LIG X 999      45.687 132.007  14.986  1.00  0.00    -0.188 NA
HETATM   17  C3  LIG X 999      46.811 131.200  14.623  1.00  0.00     0.387 C 
HETATM   18  O2  LIG X 999      47.535 131.558  13.655  1.00  0.00    -0.236 OA
BRANCH  17  19
HETATM   19  O1  LIG X 999      47.074 130.004  15.296  1.00  0.00    -0.303 OA
BRANCH  19  20
HETATM   20  C2  LIG X 999      46.489 128.761  14.920  1.00  0.00     0.176 C 
HETATM   21  C1  LIG X 999      45.101 128.650  15.528  1.00  0.00     0.034 C 
ENDBRANCH  19  20
ENDBRANCH  17  19
ENDBRANCH   1  16
TORSDOF 3
