REMARK VINA RESULT:      -5.9      1.587      2.465
REMARK  4 active torsions:
REMARK  status: ('A' for Active; 'I' for Inactive)
REMARK    1  A    between atoms: C1_2  and  C2_4 
REMARK    2  A    between atoms: C8_10  and  C9_11 
REMARK       I    between atoms: C9_11  and  N1_13 
REMARK    3  A    between atoms: N1_13  and  S1_14 
REMARK    4  A    between atoms: S1_14  and  C10_17 
ROOT
HETATM    1  C9  LIG X 999      44.344 129.734  21.625  1.00  0.00     0.259 C 
HETATM    2  O3  LIG X 999      43.265 130.232  22.046  1.00  0.00    -0.270 OA
HETATM    3  N1  LIG X 999      44.870 130.133  20.358  1.00  0.00    -0.122 NA
ENDROOT
BRANCH   3   4
HETATM    4  S1  LIG X 999      44.224 131.473  19.475  1.00  0.00     0.286 S 
HETATM    5  O4  LIG X 999      42.724 131.448  19.560  1.00  0.00    -0.198 OA
HETATM    6  O5  LIG X 999      44.716 132.762  20.072  1.00  0.00    -0.198 OA
BRANCH   4   7
HETATM    7  C10 LIG X 999      44.719 131.335  17.791  1.00  0.00     0.082 A 
HETATM    8  C11 LIG X 999      43.912 131.878  16.781  1.00  0.00     0.026 A 
HETATM    9  C12 LIG X 999      44.265 131.726  15.438  1.00  0.00     0.014 A 
HETATM   10  C13 LIG X 999      45.427 131.022  15.089  1.00  0.00    -0.026 A 
HETATM   11  C14 LIG X 999      45.786 130.857  13.742  1.00  0.00     0.012 A 
HETATM   12  C18 LIG X 999      46.242 130.469  16.105  1.00  0.00    -0.025 A 
HETATM   13  C15 LIG X 999      46.944 130.148  13.407  1.00  0.00     0.001 A 
HETATM   14  C16 LIG X 999      47.748 129.600  14.411  1.00  0.00     0.001 A 
HETATM   15  C17 LIG X 999      47.401 129.757  15.756  1.00  0.00     0.012 A 
HETATM   16  C19 LIG X 999      45.881 130.630  17.452  1.00  0.00     0.037 A 
ENDBRANCH   4   7
ENDBRANCH   3   4
BRANCH   1  17
HETATM   17  C8  LIG X 999      45.135 128.767  22.476  1.00  0.00     0.099 C 
HETATM   18  C2  LIG X 999      44.858 128.868  24.008  1.00  0.00     0.104 C 
HETATM   19  C3  LIG X 999      44.398 127.430  24.360  1.00  0.00     0.001 C 
HETATM   20  C4  LIG X 999      45.625 126.499  24.305  1.00  0.00     0.006 C 
HETATM   21  C7  LIG X 999      43.652 127.003  23.114  1.00  0.00     0.011 C 
HETATM   22  C5  LIG X 999      45.912 126.401  22.796  1.00  0.00     0.006 C 
HETATM   23  C6  LIG X 999      44.808 127.281  22.178  1.00  0.00    -0.000 C 
BRANCH  18  24
HETATM   24  C1  LIG X 999      43.852 129.923  24.420  1.00  0.00     0.178 C 
HETATM   25  O1  LIG X 999      44.203 131.115  24.625  1.00  0.00    -0.648 OA
HETATM   26  O2  LIG X 999      42.527 129.559  24.625  1.00  0.00    -0.648 OA
ENDBRANCH  18  24
ENDBRANCH   1  17
TORSDOF 4
