REMARK VINA RESULT:      -4.6      1.877      6.972
REMARK  3 active torsions:
REMARK  status: ('A' for Active; 'I' for Inactive)
REMARK    1  A    between atoms: C7_9  and  C8_10 
REMARK    2  A    between atoms: C9_13  and  N4_14 
REMARK    3  A    between atoms: N7_23  and  C14_24 
ROOT
HETATM    1  N4  LIG X 999      42.458 130.618  24.190  1.00  0.00    -0.023 NA
HETATM    2  N5  LIG X 999      41.842 129.552  24.165  1.00  0.00    -0.158 NA
HETATM    3  N6  LIG X 999      41.226 128.487  24.141  1.00  0.00     0.068 N 
ENDROOT
BRANCH   1   4
HETATM    4  C9  LIG X 999      43.076 131.128  23.010  1.00  0.00     0.326 A 
HETATM    5  N3  LIG X 999      44.149 131.937  23.023  1.00  0.00    -0.099 NA
HETATM    6  N2  LIG X 999      44.423 132.193  21.753  1.00  0.00    -0.119 NA
HETATM    7  C8  LIG X 999      43.501 131.535  21.019  1.00  0.00     0.205 A 
HETATM    8  O1  LIG X 999      42.674 130.870  21.790  1.00  0.00    -0.252 OA
BRANCH   7   9
HETATM    9  C7  LIG X 999      43.475 131.524  19.543  1.00  0.00     0.032 A 
HETATM   10  C6  LIG X 999      44.557 131.036  18.748  1.00  0.00     0.020 A 
HETATM   11  C1  LIG X 999      45.782 130.286  19.184  1.00  0.00     0.060 A 
HETATM   12  C5  LIG X 999      44.441 131.208  17.380  1.00  0.00     0.019 A 
HETATM   13  N1  LIG X 999      45.936 129.900  20.409  1.00  0.00    -0.299 NA
HETATM   14  C2  LIG X 999      46.795 129.888  18.144  1.00  0.00     0.034 A 
HETATM   15  H1  LIG X 999      46.767 129.348  20.717  1.00  0.00     0.187 HD
HETATM   16  C3  LIG X 999      46.586 130.132  16.835  1.00  0.00     0.033 A 
HETATM   17  C4  LIG X 999      45.342 130.815  16.440  1.00  0.00     0.048 A 
HETATM   18  N7  LIG X 999      44.869 131.110  15.205  1.00  0.00    -0.324 N 
HETATM   19  C13 LIG X 999      43.646 131.676  15.401  1.00  0.00     0.193 A 
HETATM   20  C12 LIG X 999      43.366 131.750  16.755  1.00  0.00     0.032 A 
HETATM   21  O2  LIG X 999      42.801 132.093  14.379  1.00  0.00    -0.171 OA
HETATM   22  C11 LIG X 999      42.270 132.196  17.484  1.00  0.00     0.018 A 
HETATM   23  C10 LIG X 999      42.333 132.083  18.890  1.00  0.00     0.018 A 
BRANCH  18  24
HETATM   24  C14 LIG X 999      45.487 130.786  13.920  1.00  0.00     0.127 C 
HETATM   25  C15 LIG X 999      46.916 131.316  13.871  1.00  0.00     0.027 C 
ENDBRANCH  18  24
ENDBRANCH   7   9
ENDBRANCH   1   4
TORSDOF 3
