REMARK VINA RESULT:      -8.3      1.139      1.903
REMARK  7 active torsions:
REMARK  status: ('A' for Active; 'I' for Inactive)
REMARK    1  A    between atoms: C2_2  and  C4_4 
REMARK    2  A    between atoms: C4_4  and  C5_5 
REMARK       I    between atoms: C5_5  and  N1_7 
REMARK    3  A    between atoms: N1_7  and  C6_8 
REMARK    4  A    between atoms: C6_8  and  C7_9 
REMARK    5  A    between atoms: C7_9  and  C8_10 
REMARK    6  A    between atoms: C8_10  and  O2_11 
REMARK    7  A    between atoms: O2_11  and  C9_12 
ROOT
HETATM    1  O2  LIG X 999      44.368 132.172  17.995  1.00  0.00    -0.351 OA
ENDROOT
BRANCH   1   2
HETATM    2  C8  LIG X 999      43.050 131.827  18.425  1.00  0.00     0.177 C 
BRANCH   2   3
HETATM    3  C7  LIG X 999      42.933 131.785  19.958  1.00  0.00     0.048 C 
BRANCH   3   4
HETATM    4  C6  LIG X 999      44.295 131.721  20.664  1.00  0.00     0.154 C 
BRANCH   4   5
HETATM    5  N1  LIG X 999      44.351 130.610  21.610  1.00  0.00    -0.256 NA
HETATM    6  C5  LIG X 999      44.086 130.743  23.010  1.00  0.00     0.238 C 
HETATM    7  O1  LIG X 999      43.696 131.844  23.485  1.00  0.00    -0.272 OA
BRANCH   6   8
HETATM    8  C4  LIG X 999      44.261 129.562  23.917  1.00  0.00     0.108 C 
BRANCH   8   9
HETATM    9  C2  LIG X 999      43.964 128.232  23.195  1.00  0.00    -0.014 C 
HETATM   10  C1  LIG X 999      45.225 127.363  23.076  1.00  0.00     0.010 C 
HETATM   11  C3  LIG X 999      42.865 127.464  23.938  1.00  0.00     0.010 C 
ENDBRANCH   8   9
ENDBRANCH   6   8
ENDBRANCH   4   5
ENDBRANCH   3   4
ENDBRANCH   2   3
ENDBRANCH   1   2
BRANCH   1  12
HETATM   12  C9  LIG X 999      45.146 131.455  17.070  1.00  0.00     0.069 A 
HETATM   13  C10 LIG X 999      45.453 130.123  17.367  1.00  0.00     0.037 A 
HETATM   14  C11 LIG X 999      46.258 129.367  16.512  1.00  0.00     0.015 A 
HETATM   15  C12 LIG X 999      46.763 129.935  15.336  1.00  0.00    -0.026 A 
HETATM   16  C13 LIG X 999      47.584 129.189  14.476  1.00  0.00     0.012 A 
HETATM   17  C17 LIG X 999      46.441 131.275  15.013  1.00  0.00    -0.023 A 
HETATM   18  C14 LIG X 999      48.079 129.767  13.303  1.00  0.00     0.001 A 
HETATM   19  C15 LIG X 999      47.760 131.089  12.981  1.00  0.00     0.001 A 
HETATM   20  C16 LIG X 999      46.944 131.842  13.831  1.00  0.00     0.012 A 
HETATM   21  C18 LIG X 999      45.627 132.024  15.876  1.00  0.00     0.049 A 
ENDBRANCH   1  12
TORSDOF 7
