REMARK VINA RESULT:      -6.9      1.423      7.533
REMARK  5 active torsions:
REMARK  status: ('A' for Active; 'I' for Inactive)
REMARK    1  A    between atoms: C3_3  and  O1_4 
REMARK    2  A    between atoms: O1_4  and  C4_5 
REMARK    3  A    between atoms: C4_5  and  C5_7 
REMARK    4  A    between atoms: C5_7  and  C6_8 
REMARK    5  A    between atoms: C11_13  and  O3_14 
ROOT
HETATM    1  C1  LIG X 999      46.106 133.839  24.611  1.00  0.00     0.014 C 
HETATM    2  C2  LIG X 999      45.134 133.126  24.617  1.00  0.00    -0.091 C 
HETATM    3  C3  LIG X 999      43.952 132.258  24.625  1.00  0.00     0.271 C 
ENDROOT
BRANCH   3   4
HETATM    4  O1  LIG X 999      44.126 131.177  23.711  1.00  0.00    -0.309 OA
BRANCH   4   5
HETATM    5  C4  LIG X 999      43.278 130.948  22.621  1.00  0.00     0.263 C 
HETATM    6  O2  LIG X 999      42.634 129.868  22.521  1.00  0.00    -0.265 OA
BRANCH   5   7
HETATM    7  C5  LIG X 999      43.179 131.975  21.540  1.00  0.00     0.149 C 
BRANCH   7   8
HETATM    8  C6  LIG X 999      43.946 131.521  20.329  1.00  0.00    -0.048 A 
HETATM    9  C7  LIG X 999      45.185 130.878  20.478  1.00  0.00     0.008 A 
HETATM   10  C8  LIG X 999      45.918 130.483  19.356  1.00  0.00     0.013 A 
HETATM   11  C9  LIG X 999      45.428 130.738  18.066  1.00  0.00    -0.023 A 
HETATM   12  C10 LIG X 999      46.159 130.346  16.934  1.00  0.00     0.049 A 
HETATM   13  C15 LIG X 999      44.187 131.398  17.908  1.00  0.00    -0.025 A 
HETATM   14  C11 LIG X 999      45.663 130.609  15.642  1.00  0.00     0.069 A 
HETATM   15  C13 LIG X 999      44.435 131.264  15.498  1.00  0.00     0.037 A 
HETATM   16  C14 LIG X 999      43.700 131.658  16.619  1.00  0.00     0.015 A 
HETATM   17  C16 LIG X 999      43.457 131.790  19.040  1.00  0.00     0.020 A 
BRANCH  14  18
HETATM   18  O3  LIG X 999      46.357 130.238  14.480  1.00  0.00    -0.356 OA
HETATM   19  C12 LIG X 999      47.071 131.144  13.645  1.00  0.00     0.210 C 
ENDBRANCH  14  18
ENDBRANCH   7   8
ENDBRANCH   5   7
ENDBRANCH   4   5
ENDBRANCH   3   4
TORSDOF 5
