REMARK VINA RESULT:      -7.1      4.111      6.490
REMARK  3 active torsions:
REMARK  status: ('A' for Active; 'I' for Inactive)
REMARK    1  A    between atoms: C3_3  and  S1_4 
REMARK    2  A    between atoms: S1_4  and  C4_7 
REMARK    3  A    between atoms: C12_15  and  N1_16 
ROOT
HETATM    1  C1  LIG X 999      45.012 127.892  22.681  1.00  0.00     0.013 C 
HETATM    2  C2  LIG X 999      44.204 128.687  23.092  1.00  0.00    -0.102 C 
HETATM    3  C3  LIG X 999      43.223 129.654  23.593  1.00  0.00     0.233 C 
ENDROOT
BRANCH   3   4
HETATM    4  S1  LIG X 999      43.419 131.235  22.782  1.00  0.00     0.159 S 
HETATM    5  O1  LIG X 999      44.766 131.789  23.156  1.00  0.00    -0.227 OA
HETATM    6  O2  LIG X 999      42.355 132.188  23.253  1.00  0.00    -0.227 OA
BRANCH   4   7
HETATM    7  C4  LIG X 999      43.340 131.062  20.995  1.00  0.00     0.116 C 
HETATM    8  C5  LIG X 999      44.737 131.229  20.389  1.00  0.00     0.059 C 
HETATM    9  C6  LIG X 999      44.706 131.219  18.882  1.00  0.00    -0.049 A 
HETATM   10  C7  LIG X 999      45.891 130.917  18.191  1.00  0.00     0.007 A 
HETATM   11  C11 LIG X 999      43.538 131.569  18.156  1.00  0.00    -0.019 A 
HETATM   12  C8  LIG X 999      45.915 130.901  16.797  1.00  0.00     0.001 A 
HETATM   13  C9  LIG X 999      44.757 131.186  16.077  1.00  0.00     0.001 A 
HETATM   14  C10 LIG X 999      43.575 131.506  16.748  1.00  0.00     0.010 A 
HETATM   15  C12 LIG X 999      42.220 131.874  18.864  1.00  0.00     0.252 C 
HETATM   16  C13 LIG X 999      42.397 132.099  20.381  1.00  0.00     0.060 C 
BRANCH  15  17
HETATM   17  N1  LIG X 999      41.576 133.055  18.273  1.00  0.00     0.087 N 
HETATM   18  H12 LIG X 999      41.687 133.862  18.928  1.00  0.00     0.313 HD
HETATM   19  H13 LIG X 999      42.103 133.338  17.415  1.00  0.00     0.313 HD
ENDBRANCH  15  17
ENDBRANCH   4   7
ENDBRANCH   3   4
TORSDOF 3
