REMARK VINA RESULT:      -2.7      1.909      3.102
REMARK  4 active torsions:
REMARK  status: ('A' for Active; 'I' for Inactive)
REMARK    1  A    between atoms: C3_3  and  C4_4 
REMARK    2  A    between atoms: C5_7  and  N3_8 
REMARK    3  A    between atoms: C8_14  and  C9_15 
REMARK    4  A    between atoms: C10_16  and  C11_17 
ROOT
HETATM    1  N3  LIG X 999      40.147 127.095  24.370  1.00  0.00    -0.023 NA
HETATM    2  N4  LIG X 999      40.400 128.292  24.497  1.00  0.00    -0.158 NA
HETATM    3  N5  LIG X 999      40.653 129.489  24.623  1.00  0.00     0.068 N 
ENDROOT
BRANCH   1   4
HETATM    4  C5  LIG X 999      41.187 126.151  24.122  1.00  0.00     0.326 A 
HETATM    5  N2  LIG X 999      40.970 124.842  23.913  1.00  0.00    -0.099 NA
HETATM    6  N1  LIG X 999      42.164 124.304  23.721  1.00  0.00    -0.124 NA
HETATM    7  C4  LIG X 999      43.061 125.308  23.826  1.00  0.00     0.184 A 
HETATM    8  O1  LIG X 999      42.462 126.451  24.069  1.00  0.00    -0.255 OA
BRANCH   7   9
HETATM    9  C3  LIG X 999      44.557 125.132  23.651  1.00  0.00     0.054 C 
HETATM   10  C2  LIG X 999      45.251 126.074  24.624  1.00  0.00    -0.008 C 
HETATM   11  C1  LIG X 999      45.462 127.355  24.295  1.00  0.00    -0.003 C 
HETATM   12  C15 LIG X 999      45.139 127.847  22.941  1.00  0.00    -0.004 C 
HETATM   13  C14 LIG X 999      44.859 126.985  21.956  1.00  0.00    -0.021 C 
HETATM   14  C13 LIG X 999      44.983 125.494  22.184  1.00  0.00     0.030 C 
HETATM   15  C12 LIG X 999      46.438 125.070  21.877  1.00  0.00     0.027 C 
HETATM   16  C8  LIG X 999      46.671 123.586  22.187  1.00  0.00     0.066 C 
HETATM   17  C7  LIG X 999      46.350 123.296  23.659  1.00  0.00     0.019 C 
HETATM   18  C6  LIG X 999      44.894 123.654  23.973  1.00  0.00     0.024 C 
BRANCH  16  19
HETATM   19  C9  LIG X 999      48.066 123.224  21.897  1.00  0.00    -0.090 C 
HETATM   20  C10 LIG X 999      49.210 122.928  21.658  1.00  0.00     0.005 C 
BRANCH  20  21
HETATM   21  C11 LIG X 999      50.572 122.576  21.373  1.00  0.00     0.258 C 
HETATM   22  O2  LIG X 999      51.395 122.438  22.315  1.00  0.00    -0.637 OA
HETATM   23  O3  LIG X 999      50.980 122.387  20.060  1.00  0.00    -0.637 OA
ENDBRANCH  20  21
ENDBRANCH  16  19
ENDBRANCH   7   9
ENDBRANCH   1   4
TORSDOF 4
