REMARK VINA RESULT:      -4.9      5.129      6.558
REMARK  6 active torsions:
REMARK  status: ('A' for Active; 'I' for Inactive)
REMARK    1  A    between atoms: C8_8  and  O1_9 
REMARK    2  A    between atoms: O1_9  and  C9_10 
REMARK    3  A    between atoms: C9_10  and  C10_11 
REMARK    4  A    between atoms: C10_11  and  C11_12 
REMARK    5  A    between atoms: C11_12  and  N1_13 
REMARK    6  A    between atoms: C13_18  and  N4_19 
ROOT
HETATM    1  N1  LIG X 999      43.827 125.454  22.619  1.00  0.00    -0.116 NA
HETATM    2  N2  LIG X 999      43.011 124.735  22.042  1.00  0.00    -0.168 NA
HETATM    3  N3  LIG X 999      42.196 124.017  21.466  1.00  0.00     0.068 N 
ENDROOT
BRANCH   1   4
HETATM    4  C11 LIG X 999      44.745 124.905  23.611  1.00  0.00     0.191 C 
BRANCH   4   5
HETATM    5  C10 LIG X 999      45.636 126.011  24.186  1.00  0.00     0.051 C 
BRANCH   5   6
HETATM    6  C9  LIG X 999      45.310 127.389  23.604  1.00  0.00     0.170 C 
BRANCH   6   7
HETATM    7  O1  LIG X 999      44.614 128.157  24.565  1.00  0.00    -0.384 OA
BRANCH   7   8
HETATM    8  C8  LIG X 999      44.280 129.434  24.049  1.00  0.00     0.146 C 
HETATM    9  C7  LIG X 999      44.671 129.478  22.564  1.00  0.00     0.072 C 
HETATM   10  C5  LIG X 999      44.061 130.638  21.812  1.00  0.00    -0.047 A 
HETATM   11  C4  LIG X 999      42.927 131.332  22.302  1.00  0.00    -0.023 A 
HETATM   12  C6  LIG X 999      44.560 130.945  20.536  1.00  0.00     0.008 A 
HETATM   13  C3  LIG X 999      42.336 132.329  21.507  1.00  0.00     0.010 A 
HETATM   14  C13 LIG X 999      42.386 131.086  23.697  1.00  0.00     0.199 C 
HETATM   15  C2  LIG X 999      42.851 132.632  20.246  1.00  0.00     0.001 A 
HETATM   16  C1  LIG X 999      43.964 131.942  19.762  1.00  0.00     0.001 A 
HETATM   17  C12 LIG X 999      42.768 129.692  24.225  1.00  0.00     0.143 C 
HETATM   18 CL1  LIG X 999      41.785 128.424  23.423  1.00  0.00    -0.120 Cl
BRANCH  14  19
HETATM   19  N4  LIG X 999      42.897 132.101  24.616  1.00  0.00    -0.104 NA
HETATM   20  N5  LIG X 999      44.085 132.427  24.616  1.00  0.00    -0.167 NA
HETATM   21  N6  LIG X 999      45.272 132.752  24.617  1.00  0.00     0.068 N 
ENDBRANCH  14  19
ENDBRANCH   7   8
ENDBRANCH   6   7
ENDBRANCH   5   6
ENDBRANCH   4   5
ENDBRANCH   1   4
TORSDOF 6
