MODEL 1
REMARK VINA RESULT:      -8.7      0.000      0.000
REMARK  5 active torsions:
REMARK  status: ('A' for Active; 'I' for Inactive)
REMARK    1  A    between atoms: C3_3  and  O1_4 
REMARK    2  A    between atoms: O1_4  and  C4_5 
REMARK    3  A    between atoms: C4_5  and  C5_7 
REMARK    4  A    between atoms: C5_7  and  C6_8 
REMARK    5  A    between atoms: C11_13  and  O3_14 
ROOT
HETATM    1  C1  LIG X 999      47.626 131.371  12.637  1.00  0.00     0.014 C 
HETATM    2  C2  LIG X 999      47.754 130.420  13.367  1.00  0.00    -0.091 C 
HETATM    3  C3  LIG X 999      47.909 129.263  14.255  1.00  0.00     0.271 C 
ENDROOT
BRANCH   3   4
HETATM    4  O1  LIG X 999      47.249 129.500  15.496  1.00  0.00    -0.309 OA
BRANCH   4   5
HETATM    5  C4  LIG X 999      45.918 129.924  15.590  1.00  0.00     0.263 C 
HETATM    6  O2  LIG X 999      44.969 129.124  15.366  1.00  0.00    -0.265 OA
BRANCH   5   7
HETATM    7  C5  LIG X 999      45.625 131.355  15.909  1.00  0.00     0.149 C 
BRANCH   7   8
HETATM    8  C6  LIG X 999      44.831 131.444  17.183  1.00  0.00    -0.048 A 
HETATM    9  C7  LIG X 999      43.462 131.750  17.142  1.00  0.00     0.008 A 
HETATM   10  C8  LIG X 999      42.725 131.868  18.323  1.00  0.00     0.013 A 
HETATM   11  C9  LIG X 999      43.352 131.693  19.566  1.00  0.00    -0.023 A 
HETATM   12  C10 LIG X 999      42.620 131.811  20.758  1.00  0.00     0.049 A 
HETATM   13  C15 LIG X 999      44.735 131.398  19.617  1.00  0.00    -0.025 A 
HETATM   14  C11 LIG X 999      43.256 131.639  22.003  1.00  0.00     0.069 A 
HETATM   15  C13 LIG X 999      44.625 131.348  22.040  1.00  0.00     0.037 A 
HETATM   16  C14 LIG X 999      45.362 131.229  20.859  1.00  0.00     0.015 A 
HETATM   17  C16 LIG X 999      45.466 131.281  18.425  1.00  0.00     0.020 A 
BRANCH  14  18
HETATM   18  O3  LIG X 999      42.568 131.747  23.221  1.00  0.00    -0.356 OA
HETATM   19  C12 LIG X 999      43.191 131.992  24.478  1.00  0.00     0.210 C 
ENDBRANCH  14  18
ENDBRANCH   7   8
ENDBRANCH   5   7
ENDBRANCH   4   5
ENDBRANCH   3   4
TORSDOF 5
ENDMDL
MODEL 2
REMARK VINA RESULT:      -8.5      1.062      1.945
REMARK  5 active torsions:
REMARK  status: ('A' for Active; 'I' for Inactive)
REMARK    1  A    between atoms: C3_3  and  O1_4 
REMARK    2  A    between atoms: O1_4  and  C4_5 
REMARK    3  A    between atoms: C4_5  and  C5_7 
REMARK    4  A    between atoms: C5_7  and  C6_8 
REMARK    5  A    between atoms: C11_13  and  O3_14 
ROOT
HETATM    1  C1  LIG X 999      48.619 129.293  13.379  1.00  0.00     0.014 C 
HETATM    2  C2  LIG X 999      47.906 130.242  13.592  1.00  0.00    -0.091 C 
HETATM    3  C3  LIG X 999      47.038 131.396  13.850  1.00  0.00     0.271 C 
ENDROOT
BRANCH   3   4
HETATM    4  O1  LIG X 999      45.667 131.016  13.755  1.00  0.00    -0.309 OA
BRANCH   4   5
HETATM    5  C4  LIG X 999      44.916 130.570  14.848  1.00  0.00     0.263 C 
HETATM    6  O2  LIG X 999      44.925 129.354  15.184  1.00  0.00    -0.265 OA
BRANCH   5   7
HETATM    7  C5  LIG X 999      44.053 131.539  15.590  1.00  0.00     0.149 C 
BRANCH   7   8
HETATM    8  C6  LIG X 999      44.307 131.425  17.068  1.00  0.00    -0.048 A 
HETATM    9  C7  LIG X 999      45.506 130.864  17.537  1.00  0.00     0.008 A 
HETATM   10  C8  LIG X 999      45.734 130.725  18.908  1.00  0.00     0.013 A 
HETATM   11  C9  LIG X 999      44.761 131.135  19.832  1.00  0.00    -0.023 A 
HETATM   12  C10 LIG X 999      44.981 130.997  21.211  1.00  0.00     0.049 A 
HETATM   13  C15 LIG X 999      43.545 131.689  19.366  1.00  0.00    -0.025 A 
HETATM   14  C11 LIG X 999      43.998 131.407  22.133  1.00  0.00     0.069 A 
HETATM   15  C13 LIG X 999      42.799 131.952  21.660  1.00  0.00     0.037 A 
HETATM   16  C14 LIG X 999      42.570 132.093  20.289  1.00  0.00     0.015 A 
HETATM   17  C16 LIG X 999      43.324 131.826  17.987  1.00  0.00     0.020 A 
BRANCH  14  18
HETATM   18  O3  LIG X 999      44.172 131.289  23.520  1.00  0.00    -0.356 OA
HETATM   19  C12 LIG X 999      43.616 132.184  24.479  1.00  0.00     0.210 C 
ENDBRANCH  14  18
ENDBRANCH   7   8
ENDBRANCH   5   7
ENDBRANCH   4   5
ENDBRANCH   3   4
TORSDOF 5
ENDMDL
MODEL 3
REMARK VINA RESULT:      -7.8      1.585      7.304
REMARK  5 active torsions:
REMARK  status: ('A' for Active; 'I' for Inactive)
REMARK    1  A    between atoms: C3_3  and  O1_4 
REMARK    2  A    between atoms: O1_4  and  C4_5 
REMARK    3  A    between atoms: C4_5  and  C5_7 
REMARK    4  A    between atoms: C5_7  and  C6_8 
REMARK    5  A    between atoms: C11_13  and  O3_14 
ROOT
HETATM    1  C1  LIG X 999      45.080 127.631  22.689  1.00  0.00     0.014 C 
HETATM    2  C2  LIG X 999      44.238 128.409  23.063  1.00  0.00    -0.091 C 
HETATM    3  C3  LIG X 999      43.213 129.356  23.516  1.00  0.00     0.271 C 
ENDROOT
BRANCH   3   4
HETATM    4  O1  LIG X 999      42.758 130.153  22.425  1.00  0.00    -0.309 OA
BRANCH   4   5
HETATM    5  C4  LIG X 999      43.177 131.471  22.209  1.00  0.00     0.263 C 
HETATM    6  O2  LIG X 999      43.808 132.102  23.101  1.00  0.00    -0.265 OA
BRANCH   5   7
HETATM    7  C5  LIG X 999      42.824 132.152  20.927  1.00  0.00     0.149 C 
BRANCH   7   8
HETATM    8  C6  LIG X 999      43.702 131.644  19.817  1.00  0.00    -0.048 A 
HETATM    9  C7  LIG X 999      44.923 131.017  20.114  1.00  0.00     0.008 A 
HETATM   10  C8  LIG X 999      45.760 130.573  19.087  1.00  0.00     0.013 A 
HETATM   11  C9  LIG X 999      45.393 130.760  17.746  1.00  0.00    -0.023 A 
HETATM   12  C10 LIG X 999      46.228 130.318  16.708  1.00  0.00     0.049 A 
HETATM   13  C15 LIG X 999      44.171 131.404  17.439  1.00  0.00    -0.025 A 
HETATM   14  C11 LIG X 999      45.857 130.514  15.364  1.00  0.00     0.069 A 
HETATM   15  C13 LIG X 999      44.646 131.153  15.073  1.00  0.00     0.037 A 
HETATM   16  C14 LIG X 999      43.807 131.597  16.099  1.00  0.00     0.015 A 
HETATM   17  C16 LIG X 999      43.336 131.846  18.477  1.00  0.00     0.020 A 
BRANCH  14  18
HETATM   18  O3  LIG X 999      46.657 130.091  14.293  1.00  0.00    -0.356 OA
HETATM   19  C12 LIG X 999      47.256 130.965  13.341  1.00  0.00     0.210 C 
ENDBRANCH  14  18
ENDBRANCH   7   8
ENDBRANCH   5   7
ENDBRANCH   4   5
ENDBRANCH   3   4
TORSDOF 5
ENDMDL
MODEL 4
REMARK VINA RESULT:      -7.4      1.866      7.102
REMARK  5 active torsions:
REMARK  status: ('A' for Active; 'I' for Inactive)
REMARK    1  A    between atoms: C3_3  and  O1_4 
REMARK    2  A    between atoms: O1_4  and  C4_5 
REMARK    3  A    between atoms: C4_5  and  C5_7 
REMARK    4  A    between atoms: C5_7  and  C6_8 
REMARK    5  A    between atoms: C11_13  and  O3_14 
ROOT
HETATM    1  C1  LIG X 999      45.091 127.408  22.572  1.00  0.00     0.014 C 
HETATM    2  C2  LIG X 999      44.137 127.883  23.137  1.00  0.00    -0.091 C 
HETATM    3  C3  LIG X 999      42.978 128.462  23.823  1.00  0.00     0.271 C 
ENDROOT
BRANCH   3   4
HETATM    4  O1  LIG X 999      42.496 129.598  23.109  1.00  0.00    -0.309 OA
BRANCH   4   5
HETATM    5  C4  LIG X 999      42.872 130.912  23.410  1.00  0.00     0.263 C 
HETATM    6  O2  LIG X 999      42.142 131.642  24.136  1.00  0.00    -0.265 OA
BRANCH   5   7
HETATM    7  C5  LIG X 999      44.127 131.470  22.821  1.00  0.00     0.149 C 
BRANCH   7   8
HETATM    8  C6  LIG X 999      44.001 131.546  21.324  1.00  0.00    -0.048 A 
HETATM    9  C7  LIG X 999      42.829 132.050  20.739  1.00  0.00     0.008 A 
HETATM   10  C8  LIG X 999      42.692 132.093  19.350  1.00  0.00     0.013 A 
HETATM   11  C9  LIG X 999      43.723 131.621  18.523  1.00  0.00    -0.023 A 
HETATM   12  C10 LIG X 999      43.593 131.658  17.126  1.00  0.00     0.049 A 
HETATM   13  C15 LIG X 999      44.902 131.098  19.106  1.00  0.00    -0.025 A 
HETATM   14  C11 LIG X 999      44.630 131.178  16.303  1.00  0.00     0.069 A 
HETATM   15  C13 LIG X 999      45.791 130.663  16.891  1.00  0.00     0.037 A 
HETATM   16  C14 LIG X 999      45.929 130.621  18.280  1.00  0.00     0.015 A 
HETATM   17  C16 LIG X 999      45.031 131.060  20.503  1.00  0.00     0.020 A 
BRANCH  14  18
HETATM   18  O3  LIG X 999      44.547 131.194  14.902  1.00  0.00    -0.356 OA
HETATM   19  C12 LIG X 999      45.651 130.979  14.029  1.00  0.00     0.210 C 
ENDBRANCH  14  18
ENDBRANCH   7   8
ENDBRANCH   5   7
ENDBRANCH   4   5
ENDBRANCH   3   4
TORSDOF 5
ENDMDL
MODEL 5
REMARK VINA RESULT:      -6.9      1.423      7.533
REMARK  5 active torsions:
REMARK  status: ('A' for Active; 'I' for Inactive)
REMARK    1  A    between atoms: C3_3  and  O1_4 
REMARK    2  A    between atoms: O1_4  and  C4_5 
REMARK    3  A    between atoms: C4_5  and  C5_7 
REMARK    4  A    between atoms: C5_7  and  C6_8 
REMARK    5  A    between atoms: C11_13  and  O3_14 
ROOT
HETATM    1  C1  LIG X 999      46.106 133.839  24.611  1.00  0.00     0.014 C 
HETATM    2  C2  LIG X 999      45.134 133.126  24.617  1.00  0.00    -0.091 C 
HETATM    3  C3  LIG X 999      43.952 132.258  24.625  1.00  0.00     0.271 C 
ENDROOT
BRANCH   3   4
HETATM    4  O1  LIG X 999      44.126 131.177  23.711  1.00  0.00    -0.309 OA
BRANCH   4   5
HETATM    5  C4  LIG X 999      43.278 130.948  22.621  1.00  0.00     0.263 C 
HETATM    6  O2  LIG X 999      42.634 129.868  22.521  1.00  0.00    -0.265 OA
BRANCH   5   7
HETATM    7  C5  LIG X 999      43.179 131.975  21.540  1.00  0.00     0.149 C 
BRANCH   7   8
HETATM    8  C6  LIG X 999      43.946 131.521  20.329  1.00  0.00    -0.048 A 
HETATM    9  C7  LIG X 999      45.185 130.878  20.478  1.00  0.00     0.008 A 
HETATM   10  C8  LIG X 999      45.918 130.483  19.356  1.00  0.00     0.013 A 
HETATM   11  C9  LIG X 999      45.428 130.738  18.066  1.00  0.00    -0.023 A 
HETATM   12  C10 LIG X 999      46.159 130.346  16.934  1.00  0.00     0.049 A 
HETATM   13  C15 LIG X 999      44.187 131.398  17.908  1.00  0.00    -0.025 A 
HETATM   14  C11 LIG X 999      45.663 130.609  15.642  1.00  0.00     0.069 A 
HETATM   15  C13 LIG X 999      44.435 131.264  15.498  1.00  0.00     0.037 A 
HETATM   16  C14 LIG X 999      43.700 131.658  16.619  1.00  0.00     0.015 A 
HETATM   17  C16 LIG X 999      43.457 131.790  19.040  1.00  0.00     0.020 A 
BRANCH  14  18
HETATM   18  O3  LIG X 999      46.357 130.238  14.480  1.00  0.00    -0.356 OA
HETATM   19  C12 LIG X 999      47.071 131.144  13.645  1.00  0.00     0.210 C 
ENDBRANCH  14  18
ENDBRANCH   7   8
ENDBRANCH   5   7
ENDBRANCH   4   5
ENDBRANCH   3   4
TORSDOF 5
ENDMDL
MODEL 6
REMARK VINA RESULT:      -6.8      1.218      2.210
REMARK  5 active torsions:
REMARK  status: ('A' for Active; 'I' for Inactive)
REMARK    1  A    between atoms: C3_3  and  O1_4 
REMARK    2  A    between atoms: O1_4  and  C4_5 
REMARK    3  A    between atoms: C4_5  and  C5_7 
REMARK    4  A    between atoms: C5_7  and  C6_8 
REMARK    5  A    between atoms: C11_13  and  O3_14 
ROOT
HETATM    1  C1  LIG X 999      48.277 129.218  13.801  1.00  0.00     0.014 C 
HETATM    2  C2  LIG X 999      47.642 130.239  13.716  1.00  0.00    -0.091 C 
HETATM    3  C3  LIG X 999      46.870 131.482  13.615  1.00  0.00     0.271 C 
ENDROOT
BRANCH   3   4
HETATM    4  O1  LIG X 999      46.572 131.987  14.914  1.00  0.00    -0.309 OA
BRANCH   4   5
HETATM    5  C4  LIG X 999      45.646 131.389  15.777  1.00  0.00     0.263 C 
HETATM    6  O2  LIG X 999      44.438 131.751  15.779  1.00  0.00    -0.265 OA
BRANCH   5   7
HETATM    7  C5  LIG X 999      46.111 130.348  16.743  1.00  0.00     0.149 C 
BRANCH   7   8
HETATM    8  C6  LIG X 999      45.579 130.648  18.117  1.00  0.00    -0.048 A 
HETATM    9  C7  LIG X 999      46.264 130.192  19.255  1.00  0.00     0.008 A 
HETATM   10  C8  LIG X 999      45.758 130.438  20.533  1.00  0.00     0.013 A 
HETATM   11  C9  LIG X 999      44.551 131.135  20.693  1.00  0.00    -0.023 A 
HETATM   12  C10 LIG X 999      44.034 131.386  21.974  1.00  0.00     0.049 A 
HETATM   13  C15 LIG X 999      43.848 131.586  19.551  1.00  0.00    -0.025 A 
HETATM   14  C11 LIG X 999      42.820 132.082  22.127  1.00  0.00     0.069 A 
HETATM   15  C13 LIG X 999      42.133 132.522  20.989  1.00  0.00     0.037 A 
HETATM   16  C14 LIG X 999      42.639 132.277  19.710  1.00  0.00     0.015 A 
HETATM   17  C16 LIG X 999      44.364 131.335  18.271  1.00  0.00     0.020 A 
BRANCH  14  18
HETATM   18  O3  LIG X 999      42.263 132.356  23.385  1.00  0.00    -0.356 OA
HETATM   19  C12 LIG X 999      42.844 131.965  24.625  1.00  0.00     0.210 C 
ENDBRANCH  14  18
ENDBRANCH   7   8
ENDBRANCH   5   7
ENDBRANCH   4   5
ENDBRANCH   3   4
TORSDOF 5
ENDMDL
MODEL 7
REMARK VINA RESULT:      -6.5      1.690      2.127
REMARK  5 active torsions:
REMARK  status: ('A' for Active; 'I' for Inactive)
REMARK    1  A    between atoms: C3_3  and  O1_4 
REMARK    2  A    between atoms: O1_4  and  C4_5 
REMARK    3  A    between atoms: C4_5  and  C5_7 
REMARK    4  A    between atoms: C5_7  and  C6_8 
REMARK    5  A    between atoms: C11_13  and  O3_14 
ROOT
HETATM    1  C1  LIG X 999      47.734 130.980  13.241  1.00  0.00     0.014 C 
HETATM    2  C2  LIG X 999      46.640 130.724  13.679  1.00  0.00    -0.091 C 
HETATM    3  C3  LIG X 999      45.310 130.412  14.213  1.00  0.00     0.271 C 
ENDROOT
BRANCH   3   4
HETATM    4  O1  LIG X 999      45.014 131.252  15.326  1.00  0.00    -0.309 OA
BRANCH   4   5
HETATM    5  C4  LIG X 999      45.412 130.959  16.636  1.00  0.00     0.263 C 
HETATM    6  O2  LIG X 999      45.651 129.772  16.988  1.00  0.00    -0.265 OA
BRANCH   5   7
HETATM    7  C5  LIG X 999      45.501 132.064  17.640  1.00  0.00     0.149 C 
BRANCH   7   8
HETATM    8  C6  LIG X 999      44.740 131.692  18.882  1.00  0.00    -0.048 A 
HETATM    9  C7  LIG X 999      43.489 132.272  19.143  1.00  0.00     0.008 A 
HETATM   10  C8  LIG X 999      42.791 131.956  20.312  1.00  0.00     0.013 A 
HETATM   11  C9  LIG X 999      43.341 131.063  21.244  1.00  0.00    -0.023 A 
HETATM   12  C10 LIG X 999      42.648 130.742  22.421  1.00  0.00     0.049 A 
HETATM   13  C15 LIG X 999      44.608 130.486  20.994  1.00  0.00    -0.025 A 
HETATM   14  C11 LIG X 999      43.208 129.849  23.355  1.00  0.00     0.069 A 
HETATM   15  C13 LIG X 999      44.463 129.284  23.097  1.00  0.00     0.037 A 
HETATM   16  C14 LIG X 999      45.161 129.598  21.928  1.00  0.00     0.015 A 
HETATM   17  C16 LIG X 999      45.302 130.808  19.817  1.00  0.00     0.020 A 
BRANCH  14  18
HETATM   18  O3  LIG X 999      42.555 129.496  24.545  1.00  0.00    -0.356 OA
HETATM   19  C12 LIG X 999      41.358 128.728  24.609  1.00  0.00     0.210 C 
ENDBRANCH  14  18
ENDBRANCH   7   8
ENDBRANCH   5   7
ENDBRANCH   4   5
ENDBRANCH   3   4
TORSDOF 5
ENDMDL
