REMARK VINA RESULT:      -5.2      5.014      6.995
REMARK  5 active torsions:
REMARK  status: ('A' for Active; 'I' for Inactive)
REMARK    1  A    between atoms: C6_6  and  C7_7 
REMARK       I    between atoms: C7_7  and  N1_9 
REMARK    2  A    between atoms: N1_9  and  C8_11 
REMARK    3  A    between atoms: C8_11  and  C9_12 
REMARK    4  A    between atoms: C9_12  and  N2_13 
REMARK    5  A    between atoms: C13_19  and  N5_20 
ROOT
HETATM    1  N2  LIG X 999      42.381 123.358  21.238  1.00  0.00    -0.114 NA
HETATM    2  N3  LIG X 999      41.465 123.670  21.999  1.00  0.00    -0.168 NA
HETATM    3  N4  LIG X 999      40.548 123.981  22.758  1.00  0.00     0.068 N 
ENDROOT
BRANCH   1   4
HETATM    4  C9  LIG X 999      43.397 122.393  21.640  1.00  0.00     0.208 C 
BRANCH   4   5
HETATM    5  C8  LIG X 999      44.233 122.970  22.781  1.00  0.00     0.147 C 
BRANCH   5   6
HETATM    6  N1  LIG X 999      44.473 124.400  22.585  1.00  0.00    -0.355 N 
HETATM    7  C7  LIG X 999      43.998 125.369  23.532  1.00  0.00     0.251 C 
HETATM    8  O1  LIG X 999      43.501 124.979  24.625  1.00  0.00    -0.268 OA
HETATM    9  H4  LIG X 999      45.036 124.716  21.764  1.00  0.00     0.162 HD
BRANCH   7  10
HETATM   10  C6  LIG X 999      44.098 126.823  23.259  1.00  0.00     0.032 A 
HETATM   11  C1  LIG X 999      45.015 127.324  22.320  1.00  0.00     0.017 A 
HETATM   12  C2  LIG X 999      45.100 128.694  22.072  1.00  0.00     0.011 A 
HETATM   13  C3  LIG X 999      44.272 129.598  22.755  1.00  0.00    -0.024 A 
HETATM   14  C4  LIG X 999      43.320 129.103  23.678  1.00  0.00    -0.049 A 
HETATM   15  C13 LIG X 999      44.352 131.069  22.404  1.00  0.00     0.179 C 
HETATM   16  C5  LIG X 999      43.252 127.725  23.929  1.00  0.00     0.024 A 
HETATM   17  C10 LIG X 999      42.450 130.032  24.493  1.00  0.00     0.039 C 
HETATM   18  C11 LIG X 999      42.339 131.432  23.883  1.00  0.00     0.007 C 
HETATM   19  C12 LIG X 999      43.721 131.954  23.493  1.00  0.00     0.035 C 
BRANCH  15  20
HETATM   20  N5  LIG X 999      43.689 131.281  21.119  1.00  0.00    -0.105 NA
HETATM   21  N6  LIG X 999      44.337 131.511  20.097  1.00  0.00    -0.167 NA
HETATM   22  N7  LIG X 999      44.984 131.741  19.076  1.00  0.00     0.068 N 
ENDBRANCH  15  20
ENDBRANCH   7  10
ENDBRANCH   5   6
ENDBRANCH   4   5
ENDBRANCH   1   4
TORSDOF 5
