REMARK VINA RESULT:      -7.1      0.000      0.000
REMARK  3 active torsions:
REMARK  status: ('A' for Active; 'I' for Inactive)
REMARK    1  A    between atoms: C3_3  and  S1_4 
REMARK    2  A    between atoms: S1_4  and  C4_7 
REMARK    3  A    between atoms: C17_20  and  N1_21 
ROOT
HETATM    1  C1  LIG X 999      44.628 127.617  23.461  1.00  0.00     0.013 C 
HETATM    2  C2  LIG X 999      43.692 128.374  23.516  1.00  0.00    -0.102 C 
HETATM    3  C3  LIG X 999      42.556 129.296  23.588  1.00  0.00     0.238 C 
ENDROOT
BRANCH   3   4
HETATM    4  S1  LIG X 999      43.139 130.984  23.555  1.00  0.00     0.186 S 
HETATM    5  O1  LIG X 999      42.313 131.780  24.527  1.00  0.00    -0.222 OA
HETATM    6  O2  LIG X 999      44.573 131.046  24.002  1.00  0.00    -0.222 OA
BRANCH   4   7
HETATM    7  C4  LIG X 999      42.982 131.665  21.919  1.00  0.00     0.071 C 
HETATM    8  C5  LIG X 999      41.958 132.593  21.696  1.00  0.00     0.024 C 
HETATM    9  C6  LIG X 999      41.795 133.185  20.452  1.00  0.00     0.002 C 
HETATM   10  C7  LIG X 999      42.602 132.808  19.383  1.00  0.00     0.013 C 
HETATM   11  C8  LIG X 999      43.570 131.790  19.522  1.00  0.00    -0.011 C 
HETATM   12  C9  LIG X 999      43.834 131.297  20.838  1.00  0.00    -0.003 C 
HETATM   13  C13 LIG X 999      44.360 131.326  18.417  1.00  0.00     0.008 C 
HETATM   14  C10 LIG X 999      44.970 130.496  21.046  1.00  0.00     0.016 C 
HETATM   15  C11 LIG X 999      45.848 130.221  20.008  1.00  0.00     0.031 C 
HETATM   16  C12 LIG X 999      45.566 130.628  18.703  1.00  0.00     0.045 C 
HETATM   17  N4  LIG X 999      46.449 130.324  17.707  1.00  0.00    -0.338 N 
HETATM   18  C17 LIG X 999      46.195 130.631  16.405  1.00  0.00     0.165 C 
HETATM   19  H13 LIG X 999      47.344 129.844  17.951  1.00  0.00     0.167 HD
HETATM   20  C16 LIG X 999      44.971 131.188  16.055  1.00  0.00     0.061 C 
HETATM   21  C14 LIG X 999      44.013 131.477  17.037  1.00  0.00    -0.045 C 
HETATM   22  C15 LIG X 999      42.620 131.776  16.538  1.00  0.00     0.049 C 
BRANCH  18  23
HETATM   23  N1  LIG X 999      47.141 130.332  15.370  1.00  0.00    -0.054 NA
HETATM   24  N2  LIG X 999      46.993 130.724  14.212  1.00  0.00    -0.160 NA
HETATM   25  N3  LIG X 999      46.847 131.114  13.055  1.00  0.00     0.068 N 
ENDBRANCH  18  23
ENDBRANCH   4   7
ENDBRANCH   3   4
TORSDOF 3
