REMARK VINA RESULT:      -6.6      3.078      5.397
REMARK  1 active torsions:
REMARK  status: ('A' for Active; 'I' for Inactive)
REMARK    1  A    between atoms: C1_2  and  C2_3 
ROOT
HETATM    1  C2  LIG X 999      46.007 130.372  15.168  1.00  0.00     0.013 A 
HETATM    2  C3  LIG X 999      45.294 130.753  14.014  1.00  0.00     0.015 A 
HETATM    3  C4  LIG X 999      44.089 131.445  14.107  1.00  0.00     0.002 A 
HETATM    4  C5  LIG X 999      43.563 131.775  15.350  1.00  0.00     0.012 A 
HETATM    5  C6  LIG X 999      44.238 131.415  16.522  1.00  0.00    -0.025 A 
HETATM    6  C7  LIG X 999      43.691 131.758  17.768  1.00  0.00     0.012 A 
HETATM    7  C8  LIG X 999      44.348 131.407  18.946  1.00  0.00     0.001 A 
HETATM    8  C9  LIG X 999      45.556 130.715  18.892  1.00  0.00     0.001 A 
HETATM    9  C10 LIG X 999      46.117 130.365  17.662  1.00  0.00     0.013 A 
HETATM   10  C11 LIG X 999      45.473 130.706  16.449  1.00  0.00    -0.013 A 
ENDROOT
BRANCH   1  11
HETATM   11  C1  LIG X 999      47.287 129.634  14.990  1.00  0.00     0.270 C 
HETATM   12  O1  LIG X 999      47.894 129.652  13.885  1.00  0.00    -0.301 OA
ENDBRANCH   1  11
TORSDOF 1
