REMARK VINA RESULT:      -6.0      1.105      2.531
REMARK  2 active torsions:
REMARK  status: ('A' for Active; 'I' for Inactive)
REMARK    1  A    between atoms: C2_5  and  C3_6 
REMARK    2  A    between atoms: N3_18  and  C13_19 
ROOT
HETATM    1  H1  LIG X 999      42.101 132.696  15.502  1.00  0.00     0.190 HD
HETATM    2  N1  LIG X 999      43.005 132.177  15.582  1.00  0.00    -0.260 NA
HETATM    3  C1  LIG X 999      43.458 131.811  16.738  1.00  0.00     0.268 A 
HETATM    4  O1  LIG X 999      42.838 132.034  17.874  1.00  0.00    -0.257 OA
HETATM    5  C2  LIG X 999      43.595 131.466  18.791  1.00  0.00     0.177 A 
HETATM    6  N2  LIG X 999      44.688 130.903  18.230  1.00  0.00    -0.269 N 
HETATM    7  H9  LIG X 999      45.479 130.425  18.716  1.00  0.00     0.190 HD
HETATM    8  N3  LIG X 999      44.604 131.127  16.929  1.00  0.00    -0.212 N 
ENDROOT
BRANCH   5   9
HETATM    9  C3  LIG X 999      43.306 131.497  20.240  1.00  0.00     0.028 A 
HETATM   10  C4  LIG X 999      42.388 132.455  20.697  1.00  0.00     0.017 A 
HETATM   11  C5  LIG X 999      42.121 132.598  22.058  1.00  0.00     0.002 A 
HETATM   12  C6  LIG X 999      42.762 131.782  22.989  1.00  0.00     0.012 A 
HETATM   13  C7  LIG X 999      43.657 130.792  22.562  1.00  0.00    -0.025 A 
HETATM   14  C8  LIG X 999      44.273 129.953  23.503  1.00  0.00     0.012 A 
HETATM   15  C12 LIG X 999      43.928 130.626  21.175  1.00  0.00    -0.011 A 
HETATM   16  C9  LIG X 999      45.133 128.937  23.086  1.00  0.00     0.001 A 
HETATM   17  C10 LIG X 999      45.375 128.741  21.727  1.00  0.00     0.001 A 
HETATM   18  C11 LIG X 999      44.773 129.568  20.776  1.00  0.00     0.013 A 
ENDBRANCH   5   9
BRANCH   8  19
HETATM   19  C13 LIG X 999      45.558 130.667  15.957  1.00  0.00     0.105 A 
HETATM   20  C14 LIG X 999      45.790 129.292  15.808  1.00  0.00     0.054 A 
HETATM   21  C15 LIG X 999      46.719 128.846  14.864  1.00  0.00     0.122 A 
HETATM   22  N4  LIG X 999      47.403 129.742  14.106  1.00  0.00    -0.230 NA
HETATM   23  C16 LIG X 999      47.212 131.082  14.238  1.00  0.00     0.251 A 
HETATM   24  F1  LIG X 999      47.929 131.940  13.472  1.00  0.00    -0.181 F 
HETATM   25  C17 LIG X 999      46.291 131.572  15.168  1.00  0.00     0.202 A 
HETATM   26  F2  LIG X 999      46.154 132.912  15.331  1.00  0.00    -0.199 F 
ENDBRANCH   8  19
TORSDOF 2
