REMARK VINA RESULT:      -7.1      3.828      5.982
REMARK  3 active torsions:
REMARK  status: ('A' for Active; 'I' for Inactive)
REMARK    1  A    between atoms: C3_3  and  S1_4 
REMARK    2  A    between atoms: S1_4  and  C4_7 
REMARK    3  A    between atoms: C12_15  and  N1_16 
ROOT
HETATM    1  C1  LIG X 999      45.013 127.912  22.713  1.00  0.00     0.013 C 
HETATM    2  C2  LIG X 999      44.202 128.709  23.119  1.00  0.00    -0.102 C 
HETATM    3  C3  LIG X 999      43.219 129.676  23.612  1.00  0.00     0.233 C 
ENDROOT
BRANCH   3   4
HETATM    4  S1  LIG X 999      43.412 131.253  22.792  1.00  0.00     0.159 S 
HETATM    5  O1  LIG X 999      42.353 132.210  23.265  1.00  0.00    -0.227 OA
HETATM    6  O2  LIG X 999      44.762 131.806  23.153  1.00  0.00    -0.227 OA
BRANCH   4   7
HETATM    7  C4  LIG X 999      43.320 131.070  21.007  1.00  0.00     0.116 C 
HETATM    8  C5  LIG X 999      44.723 131.182  20.394  1.00  0.00     0.059 C 
HETATM    9  C6  LIG X 999      44.692 131.189  18.886  1.00  0.00    -0.049 A 
HETATM   10  C7  LIG X 999      45.868 130.872  18.186  1.00  0.00     0.007 A 
HETATM   11  C11 LIG X 999      43.537 131.587  18.167  1.00  0.00    -0.019 A 
HETATM   12  C8  LIG X 999      45.893 130.896  16.791  1.00  0.00     0.001 A 
HETATM   13  C9  LIG X 999      44.746 131.243  16.079  1.00  0.00     0.001 A 
HETATM   14  C10 LIG X 999      43.573 131.577  16.759  1.00  0.00     0.010 A 
HETATM   15  C12 LIG X 999      42.228 131.893  18.875  1.00  0.00     0.252 C 
HETATM   16  C13 LIG X 999      42.404 132.132  20.389  1.00  0.00     0.060 C 
BRANCH  15  17
HETATM   17  N1  LIG X 999      41.566 133.044  18.252  1.00  0.00     0.087 N 
HETATM   18  H12 LIG X 999      40.987 133.533  18.974  1.00  0.00     0.313 HD
HETATM   19  H13 LIG X 999      42.291 133.721  17.918  1.00  0.00     0.313 HD
ENDBRANCH  15  17
ENDBRANCH   4   7
ENDBRANCH   3   4
TORSDOF 3
