REMARK VINA RESULT:      -7.5      1.629      6.539
REMARK  4 active torsions:
REMARK  status: ('A' for Active; 'I' for Inactive)
REMARK       I    between atoms: N1_1  and  C1_2 
REMARK    1  A    between atoms: C1_2  and  C2_4 
REMARK    2  A    between atoms: C11_13  and  O2_14 
REMARK    3  A    between atoms: O2_14  and  C12_15 
REMARK    4  A    between atoms: C12_15  and  C13_17 
ROOT
HETATM    1  C2  LIG X 999      43.084 131.795  20.287  1.00  0.00     0.068 A 
HETATM    2  C3  LIG X 999      42.796 131.162  21.513  1.00  0.00     0.032 A 
HETATM    3  C4  LIG X 999      43.629 130.155  22.017  1.00  0.00    -0.025 A 
HETATM    4  C5  LIG X 999      43.335 129.528  23.240  1.00  0.00     0.012 A 
HETATM    5  C6  LIG X 999      44.177 128.532  23.738  1.00  0.00     0.001 A 
HETATM    6  C7  LIG X 999      45.318 128.154  23.026  1.00  0.00     0.001 A 
HETATM    7  C8  LIG X 999      45.621 128.771  21.809  1.00  0.00     0.012 A 
HETATM    8  C9  LIG X 999      44.780 129.772  21.296  1.00  0.00    -0.023 A 
HETATM    9  C10 LIG X 999      45.076 130.397  20.079  1.00  0.00     0.050 A 
HETATM   10  C11 LIG X 999      44.231 131.395  19.558  1.00  0.00     0.096 A 
ENDROOT
BRANCH  10  11
HETATM   11  O2  LIG X 999      44.546 132.034  18.348  1.00  0.00    -0.274 OA
BRANCH  11  12
HETATM   12  C12 LIG X 999      44.187 131.580  17.071  1.00  0.00     0.298 C 
HETATM   13  O3  LIG X 999      42.987 131.639  16.687  1.00  0.00    -0.259 OA
BRANCH  12  14
HETATM   14  C13 LIG X 999      45.235 131.086  16.150  1.00  0.00     0.039 A 
HETATM   15  C14 LIG X 999      45.916 131.981  15.305  1.00  0.00     0.017 A 
HETATM   16  C15 LIG X 999      46.907 131.517  14.434  1.00  0.00     0.001 A 
HETATM   17  C16 LIG X 999      47.230 130.158  14.399  1.00  0.00     0.000 A 
HETATM   18  C17 LIG X 999      46.561 129.261  15.235  1.00  0.00     0.001 A 
HETATM   19  C18 LIG X 999      45.569 129.720  16.107  1.00  0.00     0.017 A 
ENDBRANCH  12  14
ENDBRANCH  11  12
ENDBRANCH  10  11
BRANCH   1  20
HETATM   20  C1  LIG X 999      42.164 132.857  19.793  1.00  0.00     0.273 C 
HETATM   21  N1  LIG X 999      41.708 132.873  18.442  1.00  0.00    -0.263 NA
HETATM   22  H1  LIG X 999      41.061 133.620  18.100  1.00  0.00     0.190 HD
HETATM   23  O1  LIG X 999      41.766 133.763  20.575  1.00  0.00    -0.266 OA
ENDBRANCH   1  20
TORSDOF 4
