REMARK VINA RESULT:      -1.1      7.683      9.612
REMARK  2 active torsions:
REMARK  status: ('A' for Active; 'I' for Inactive)
REMARK    1  A    between atoms: C4_4  and  O1_5 
REMARK    2  A    between atoms: C10_11  and  N1_12 
ROOT
HETATM    1  N1  LIG X 999      41.864 132.286  17.656  1.00  0.00    -0.072 NA
HETATM    2  N2  LIG X 999      41.861 132.619  18.843  1.00  0.00    -0.162 NA
HETATM    3  N3  LIG X 999      41.856 132.951  20.027  1.00  0.00     0.068 N 
ENDROOT
BRANCH   1   4
HETATM    4  C10 LIG X 999      43.028 131.743  17.011  1.00  0.00     0.101 C 
HETATM    5  C9  LIG X 999      43.958 131.056  17.825  1.00  0.00     0.007 C 
HETATM    6  C8  LIG X 999      44.898 130.130  17.416  1.00  0.00    -0.022 C 
HETATM    7  C12 LIG X 999      44.181 131.360  19.262  1.00  0.00     0.278 C 
HETATM    8  C7  LIG X 999      44.803 129.329  16.272  1.00  0.00     0.012 C 
HETATM    9  C15 LIG X 999      45.912 129.925  18.483  1.00  0.00     0.276 C 
HETATM   10  C6  LIG X 999      45.854 129.140  15.363  1.00  0.00     0.037 C 
HETATM   11  C4  LIG X 999      46.894 130.056  15.105  1.00  0.00     0.068 C 
HETATM   12  C3  LIG X 999      46.818 131.443  15.398  1.00  0.00     0.037 C 
HETATM   13  C2  LIG X 999      45.633 132.172  15.558  1.00  0.00     0.003 C 
HETATM   14  C1  LIG X 999      44.424 131.822  14.946  1.00  0.00     0.002 C 
HETATM   15  C11 LIG X 999      43.193 131.892  15.612  1.00  0.00     0.035 C 
HETATM   16  N4  LIG X 999      45.555 130.874  19.578  1.00  0.00    -0.067 N 
HETATM   17  C13 LIG X 999      45.585 130.201  20.895  1.00  0.00     0.272 C 
HETATM   18  C14 LIG X 999      46.507 132.011  19.592  1.00  0.00     0.272 C 
BRANCH  11  19
HETATM   19  O1  LIG X 999      48.053 129.518  14.521  1.00  0.00    -0.356 OA
HETATM   20  C5  LIG X 999      48.431 129.690  13.158  1.00  0.00     0.210 C 
ENDBRANCH  11  19
ENDBRANCH   1   4
TORSDOF 2
