REMARK VINA RESULT:      -6.7      0.000      0.000
REMARK  4 active torsions:
REMARK  status: ('A' for Active; 'I' for Inactive)
REMARK    1  A    between atoms: C3_3  and  C4_4 
REMARK    2  A    between atoms: C4_4  and  C5_5 
REMARK    3  A    between atoms: C5_5  and  N1_6 
REMARK    4  A    between atoms: N4_15  and  C12_16 
ROOT
HETATM    1  C12 LIG X 999      44.146 131.348  18.758  1.00  0.00     0.055 A 
HETATM    2  C13 LIG X 999      43.393 132.014  17.777  1.00  0.00     0.032 A 
HETATM    3  C14 LIG X 999      43.820 132.032  16.448  1.00  0.00     0.014 A 
HETATM    4  C15 LIG X 999      45.001 131.374  16.075  1.00  0.00    -0.024 A 
HETATM    5  C16 LIG X 999      45.439 131.387  14.741  1.00  0.00     0.034 A 
HETATM    6  C17 LIG X 999      46.616 130.720  14.381  1.00  0.00     0.045 A 
HETATM    7  C18 LIG X 999      47.062 130.737  13.012  1.00  0.00     0.099 C 
HETATM    8  N5  LIG X 999      47.421 130.750  11.912  1.00  0.00    -0.191 NA
HETATM    9  C19 LIG X 999      47.359 130.036  15.351  1.00  0.00     0.023 A 
HETATM   10  C20 LIG X 999      46.931 130.016  16.681  1.00  0.00     0.014 A 
HETATM   11  C21 LIG X 999      45.754 130.681  17.054  1.00  0.00    -0.024 A 
HETATM   12  C22 LIG X 999      45.316 130.669  18.387  1.00  0.00     0.043 A 
ENDROOT
BRANCH   1  13
HETATM   13  N4  LIG X 999      43.702 131.307  20.124  1.00  0.00    -0.241 N 
HETATM   14  C2  LIG X 999      44.227 130.618  21.161  1.00  0.00     0.055 A 
HETATM   15  C1  LIG X 999      45.408 129.696  21.104  1.00  0.00     0.072 C 
HETATM   16  C3  LIG X 999      43.459 130.937  22.267  1.00  0.00     0.078 A 
HETATM   17  N2  LIG X 999      42.497 131.794  21.874  1.00  0.00    -0.162 NA
HETATM   18  N3  LIG X 999      42.661 131.992  20.573  1.00  0.00     0.010 NA
BRANCH  16  19
HETATM   19  C4  LIG X 999      43.682 130.538  23.699  1.00  0.00     0.093 C 
BRANCH  19  20
HETATM   20  C5  LIG X 999      42.609 129.549  24.162  1.00  0.00     0.279 C 
BRANCH  20  21
HETATM   21  N1  LIG X 999      43.233 128.290  24.625  1.00  0.00     0.093 N 
HETATM   22  C6  LIG X 999      44.705 128.315  24.533  1.00  0.00     0.273 C 
HETATM   23  C7  LIG X 999      45.142 127.174  23.629  1.00  0.00     0.036 C 
HETATM   24  C8  LIG X 999      43.978 126.206  23.666  1.00  0.00     0.016 C 
HETATM   25  C9  LIG X 999      43.893 125.347  22.399  1.00  0.00     0.012 C 
HETATM   26  C10 LIG X 999      42.765 127.121  23.859  1.00  0.00     0.222 C 
HETATM   27  C11 LIG X 999      41.639 126.420  24.625  1.00  0.00     0.043 C 
ENDBRANCH  20  21
ENDBRANCH  19  20
ENDBRANCH  16  19
ENDBRANCH   1  13
TORSDOF 4
