MODEL 1
REMARK VINA RESULT:      -8.7      0.000      0.000
REMARK  3 active torsions:
REMARK  status: ('A' for Active; 'I' for Inactive)
REMARK    1  A    between atoms: C3_3  and  S1_4 
REMARK    2  A    between atoms: S1_4  and  C4_7 
REMARK    3  A    between atoms: C12_15  and  N1_16 
ROOT
HETATM    1  C1  LIG X 999      48.171 129.481  13.645  1.00  0.00     0.013 C 
HETATM    2  C2  LIG X 999      47.233 129.563  14.399  1.00  0.00    -0.102 C 
HETATM    3  C3  LIG X 999      46.094 129.663  15.316  1.00  0.00     0.233 C 
ENDROOT
BRANCH   3   4
HETATM    4  S1  LIG X 999      45.456 131.332  15.357  1.00  0.00     0.159 S 
HETATM    5  O1  LIG X 999      46.527 132.300  14.935  1.00  0.00    -0.227 OA
HETATM    6  O2  LIG X 999      44.313 131.420  14.386  1.00  0.00    -0.227 OA
BRANCH   4   7
HETATM    7  C4  LIG X 999      44.857 131.756  16.997  1.00  0.00     0.116 C 
HETATM    8  C5  LIG X 999      45.486 130.825  18.043  1.00  0.00     0.059 C 
HETATM    9  C6  LIG X 999      44.906 131.033  19.420  1.00  0.00    -0.049 A 
HETATM   10  C7  LIG X 999      45.633 130.581  20.533  1.00  0.00     0.007 A 
HETATM   11  C11 LIG X 999      43.617 131.593  19.608  1.00  0.00    -0.019 A 
HETATM   12  C8  LIG X 999      45.120 130.725  21.823  1.00  0.00     0.001 A 
HETATM   13  C9  LIG X 999      43.873 131.317  22.016  1.00  0.00     0.001 A 
HETATM   14  C10 LIG X 999      43.130 131.757  20.918  1.00  0.00     0.010 A 
HETATM   15  C12 LIG X 999      42.812 132.141  18.441  1.00  0.00     0.252 C 
HETATM   16  C13 LIG X 999      43.330 131.654  17.072  1.00  0.00     0.060 C 
BRANCH  15  17
HETATM   17  N1  LIG X 999      41.393 131.806  18.596  1.00  0.00     0.087 N 
HETATM   18  H12 LIG X 999      41.303 131.025  19.285  1.00  0.00     0.313 HD
HETATM   19  H13 LIG X 999      40.883 132.633  18.988  1.00  0.00     0.313 HD
ENDBRANCH  15  17
ENDBRANCH   4   7
ENDBRANCH   3   4
TORSDOF 3
ENDMDL
MODEL 2
REMARK VINA RESULT:      -8.7      1.843      2.660
REMARK  3 active torsions:
REMARK  status: ('A' for Active; 'I' for Inactive)
REMARK    1  A    between atoms: C3_3  and  S1_4 
REMARK    2  A    between atoms: S1_4  and  C4_7 
REMARK    3  A    between atoms: C12_15  and  N1_16 
ROOT
HETATM    1  C1  LIG X 999      47.633 131.001  12.811  1.00  0.00     0.013 C 
HETATM    2  C2  LIG X 999      47.120 131.294  13.863  1.00  0.00    -0.102 C 
HETATM    3  C3  LIG X 999      46.496 131.650  15.140  1.00  0.00     0.233 C 
ENDROOT
BRANCH   3   4
HETATM    4  S1  LIG X 999      44.980 130.735  15.384  1.00  0.00     0.159 S 
HETATM    5  O1  LIG X 999      43.867 131.365  14.592  1.00  0.00    -0.227 OA
HETATM    6  O2  LIG X 999      45.194 129.333  14.887  1.00  0.00    -0.227 OA
BRANCH   4   7
HETATM    7  C4  LIG X 999      44.534 130.672  17.123  1.00  0.00     0.116 C 
HETATM    8  C5  LIG X 999      43.543 131.797  17.453  1.00  0.00     0.059 C 
HETATM    9  C6  LIG X 999      43.249 131.889  18.930  1.00  0.00    -0.049 A 
HETATM   10  C7  LIG X 999      42.087 132.560  19.345  1.00  0.00     0.007 A 
HETATM   11  C11 LIG X 999      44.155 131.393  19.901  1.00  0.00    -0.019 A 
HETATM   12  C8  LIG X 999      41.793 132.696  20.703  1.00  0.00     0.001 A 
HETATM   13  C9  LIG X 999      42.658 132.169  21.661  1.00  0.00     0.001 A 
HETATM   14  C10 LIG X 999      43.826 131.514  21.264  1.00  0.00     0.010 A 
HETATM   15  C12 LIG X 999      45.400 130.618  19.503  1.00  0.00     0.252 C 
HETATM   16  C13 LIG X 999      45.772 130.801  18.017  1.00  0.00     0.060 C 
BRANCH  15  17
HETATM   17  N1  LIG X 999      46.531 130.991  20.359  1.00  0.00     0.087 N 
HETATM   18  H12 LIG X 999      47.097 131.723  19.872  1.00  0.00     0.313 HD
HETATM   19  H13 LIG X 999      46.169 131.411  21.247  1.00  0.00     0.313 HD
ENDBRANCH  15  17
ENDBRANCH   4   7
ENDBRANCH   3   4
TORSDOF 3
ENDMDL
MODEL 3
REMARK VINA RESULT:      -8.6      1.309      1.540
REMARK  3 active torsions:
REMARK  status: ('A' for Active; 'I' for Inactive)
REMARK    1  A    between atoms: C3_3  and  S1_4 
REMARK    2  A    between atoms: S1_4  and  C4_7 
REMARK    3  A    between atoms: C12_15  and  N1_16 
ROOT
HETATM    1  C1  LIG X 999      47.660 130.905  12.900  1.00  0.00     0.013 C 
HETATM    2  C2  LIG X 999      47.083 131.384  13.845  1.00  0.00    -0.102 C 
HETATM    3  C3  LIG X 999      46.381 131.964  14.992  1.00  0.00     0.233 C 
ENDROOT
BRANCH   3   4
HETATM    4  S1  LIG X 999      45.746 130.683  16.065  1.00  0.00     0.159 S 
HETATM    5  O1  LIG X 999      44.734 129.851  15.326  1.00  0.00    -0.227 OA
HETATM    6  O2  LIG X 999      46.894 129.802  16.471  1.00  0.00    -0.227 OA
BRANCH   4   7
HETATM    7  C4  LIG X 999      45.003 131.383  17.542  1.00  0.00     0.116 C 
HETATM    8  C5  LIG X 999      45.370 130.536  18.768  1.00  0.00     0.059 C 
HETATM    9  C6  LIG X 999      44.651 130.986  20.016  1.00  0.00    -0.049 A 
HETATM   10  C7  LIG X 999      45.169 130.608  21.266  1.00  0.00     0.007 A 
HETATM   11  C11 LIG X 999      43.431 131.704  19.952  1.00  0.00    -0.019 A 
HETATM   12  C8  LIG X 999      44.518 130.977  22.444  1.00  0.00     0.001 A 
HETATM   13  C9  LIG X 999      43.341 131.722  22.388  1.00  0.00     0.001 A 
HETATM   14  C10 LIG X 999      42.805 132.092  21.152  1.00  0.00     0.010 A 
HETATM   15  C12 LIG X 999      42.856 132.177  18.627  1.00  0.00     0.252 C 
HETATM   16  C13 LIG X 999      43.478 131.460  17.411  1.00  0.00     0.060 C 
BRANCH  15  17
HETATM   17  N1  LIG X 999      41.397 132.023  18.617  1.00  0.00     0.087 N 
HETATM   18  H12 LIG X 999      41.158 131.046  18.905  1.00  0.00     0.313 HD
HETATM   19  H13 LIG X 999      40.976 132.672  19.322  1.00  0.00     0.313 HD
ENDBRANCH  15  17
ENDBRANCH   4   7
ENDBRANCH   3   4
TORSDOF 3
ENDMDL
MODEL 4
REMARK VINA RESULT:      -7.1      3.828      5.982
REMARK  3 active torsions:
REMARK  status: ('A' for Active; 'I' for Inactive)
REMARK    1  A    between atoms: C3_3  and  S1_4 
REMARK    2  A    between atoms: S1_4  and  C4_7 
REMARK    3  A    between atoms: C12_15  and  N1_16 
ROOT
HETATM    1  C1  LIG X 999      45.013 127.912  22.713  1.00  0.00     0.013 C 
HETATM    2  C2  LIG X 999      44.202 128.709  23.119  1.00  0.00    -0.102 C 
HETATM    3  C3  LIG X 999      43.219 129.676  23.612  1.00  0.00     0.233 C 
ENDROOT
BRANCH   3   4
HETATM    4  S1  LIG X 999      43.412 131.253  22.792  1.00  0.00     0.159 S 
HETATM    5  O1  LIG X 999      42.353 132.210  23.265  1.00  0.00    -0.227 OA
HETATM    6  O2  LIG X 999      44.762 131.806  23.153  1.00  0.00    -0.227 OA
BRANCH   4   7
HETATM    7  C4  LIG X 999      43.320 131.070  21.007  1.00  0.00     0.116 C 
HETATM    8  C5  LIG X 999      44.723 131.182  20.394  1.00  0.00     0.059 C 
HETATM    9  C6  LIG X 999      44.692 131.189  18.886  1.00  0.00    -0.049 A 
HETATM   10  C7  LIG X 999      45.868 130.872  18.186  1.00  0.00     0.007 A 
HETATM   11  C11 LIG X 999      43.537 131.587  18.167  1.00  0.00    -0.019 A 
HETATM   12  C8  LIG X 999      45.893 130.896  16.791  1.00  0.00     0.001 A 
HETATM   13  C9  LIG X 999      44.746 131.243  16.079  1.00  0.00     0.001 A 
HETATM   14  C10 LIG X 999      43.573 131.577  16.759  1.00  0.00     0.010 A 
HETATM   15  C12 LIG X 999      42.228 131.893  18.875  1.00  0.00     0.252 C 
HETATM   16  C13 LIG X 999      42.404 132.132  20.389  1.00  0.00     0.060 C 
BRANCH  15  17
HETATM   17  N1  LIG X 999      41.566 133.044  18.252  1.00  0.00     0.087 N 
HETATM   18  H12 LIG X 999      40.987 133.533  18.974  1.00  0.00     0.313 HD
HETATM   19  H13 LIG X 999      42.291 133.721  17.918  1.00  0.00     0.313 HD
ENDBRANCH  15  17
ENDBRANCH   4   7
ENDBRANCH   3   4
TORSDOF 3
ENDMDL
MODEL 5
REMARK VINA RESULT:      -6.5      2.182      3.263
REMARK  3 active torsions:
REMARK  status: ('A' for Active; 'I' for Inactive)
REMARK    1  A    between atoms: C3_3  and  S1_4 
REMARK    2  A    between atoms: S1_4  and  C4_7 
REMARK    3  A    between atoms: C12_15  and  N1_16 
ROOT
HETATM    1  C1  LIG X 999      43.115 131.695  13.773  1.00  0.00     0.013 C 
HETATM    2  C2  LIG X 999      44.204 131.647  14.292  1.00  0.00    -0.102 C 
HETATM    3  C3  LIG X 999      45.525 131.589  14.922  1.00  0.00     0.233 C 
ENDROOT
BRANCH   3   4
HETATM    4  S1  LIG X 999      45.689 130.115  15.920  1.00  0.00     0.159 S 
HETATM    5  O1  LIG X 999      45.041 128.950  15.224  1.00  0.00    -0.227 OA
HETATM    6  O2  LIG X 999      47.154 129.825  16.089  1.00  0.00    -0.227 OA
BRANCH   4   7
HETATM    7  C4  LIG X 999      44.953 130.345  17.543  1.00  0.00     0.116 C 
HETATM    8  C5  LIG X 999      43.884 131.444  17.483  1.00  0.00     0.059 C 
HETATM    9  C6  LIG X 999      43.337 131.789  18.847  1.00  0.00    -0.049 A 
HETATM   10  C7  LIG X 999      42.100 132.448  18.930  1.00  0.00     0.007 A 
HETATM   11  C11 LIG X 999      44.078 131.542  20.030  1.00  0.00    -0.019 A 
HETATM   12  C8  LIG X 999      41.572 132.813  20.169  1.00  0.00     0.001 A 
HETATM   13  C9  LIG X 999      42.276 132.530  21.339  1.00  0.00     0.001 A 
HETATM   14  C10 LIG X 999      43.516 131.891  21.272  1.00  0.00     0.010 A 
HETATM   15  C12 LIG X 999      45.399 130.790  19.996  1.00  0.00     0.252 C 
HETATM   16  C13 LIG X 999      46.015 130.718  18.584  1.00  0.00     0.060 C 
BRANCH  15  17
HETATM   17  N1  LIG X 999      46.353 131.387  20.936  1.00  0.00     0.087 N 
HETATM   18  H12 LIG X 999      45.828 131.983  21.618  1.00  0.00     0.313 HD
HETATM   19  H13 LIG X 999      46.825 130.627  21.480  1.00  0.00     0.313 HD
ENDBRANCH  15  17
ENDBRANCH   4   7
ENDBRANCH   3   4
TORSDOF 3
ENDMDL
MODEL 6
REMARK VINA RESULT:      -6.1      4.435      6.727
REMARK  3 active torsions:
REMARK  status: ('A' for Active; 'I' for Inactive)
REMARK    1  A    between atoms: C3_3  and  S1_4 
REMARK    2  A    between atoms: S1_4  and  C4_7 
REMARK    3  A    between atoms: C12_15  and  N1_16 
ROOT
HETATM    1  C1  LIG X 999      45.666 133.369  24.614  1.00  0.00     0.013 C 
HETATM    2  C2  LIG X 999      44.568 132.870  24.619  1.00  0.00    -0.102 C 
HETATM    3  C3  LIG X 999      43.234 132.264  24.623  1.00  0.00     0.233 C 
ENDROOT
BRANCH   3   4
HETATM    4  S1  LIG X 999      43.270 130.643  23.870  1.00  0.00     0.159 S 
HETATM    5  O1  LIG X 999      44.515 129.911  24.289  1.00  0.00    -0.227 OA
HETATM    6  O2  LIG X 999      42.071 129.876  24.352  1.00  0.00    -0.227 OA
BRANCH   4   7
HETATM    7  C4  LIG X 999      43.202 130.760  22.078  1.00  0.00     0.116 C 
HETATM    8  C5  LIG X 999      44.618 130.686  21.492  1.00  0.00     0.059 C 
HETATM    9  C6  LIG X 999      44.639 130.931  20.004  1.00  0.00    -0.049 A 
HETATM   10  C7  LIG X 999      45.753 130.500  19.265  1.00  0.00     0.007 A 
HETATM   11  C11 LIG X 999      43.607 131.656  19.355  1.00  0.00    -0.019 A 
HETATM   12  C8  LIG X 999      45.826 130.734  17.891  1.00  0.00     0.001 A 
HETATM   13  C9  LIG X 999      44.793 131.406  17.241  1.00  0.00     0.001 A 
HETATM   14  C10 LIG X 999      43.686 131.856  17.964  1.00  0.00     0.010 A 
HETATM   15  C12 LIG X 999      42.360 132.101  20.101  1.00  0.00     0.252 C 
HETATM   16  C13 LIG X 999      42.531 132.064  21.634  1.00  0.00     0.060 C 
BRANCH  15  17
HETATM   17  N1  LIG X 999      41.955 133.442  19.667  1.00  0.00     0.087 N 
HETATM   18  H12 LIG X 999      41.906 133.460  18.623  1.00  0.00     0.313 HD
HETATM   19  H13 LIG X 999      40.996 133.649  20.032  1.00  0.00     0.313 HD
ENDBRANCH  15  17
ENDBRANCH   4   7
ENDBRANCH   3   4
TORSDOF 3
ENDMDL
