REMARK VINA RESULT:      -7.9      2.001      2.865
REMARK  3 active torsions:
REMARK  status: ('A' for Active; 'I' for Inactive)
REMARK    1  A    between atoms: O1_2  and  C1_3 
REMARK    2  A    between atoms: C1_3  and  C3_8 
REMARK    3  A    between atoms: C2_4  and  N1_5 
ROOT
HETATM    1  C3  LIG X 999      45.650 131.018  17.529  1.00  0.00    -0.001 A 
HETATM    2  C4  LIG X 999      45.263 132.146  16.780  1.00  0.00     0.015 A 
HETATM    3  C5  LIG X 999      45.667 132.290  15.452  1.00  0.00     0.013 A 
HETATM    4  C6  LIG X 999      46.462 131.308  14.844  1.00  0.00    -0.026 A 
HETATM    5  C7  LIG X 999      46.873 131.445  13.509  1.00  0.00     0.012 A 
HETATM    6  C8  LIG X 999      47.665 130.459  12.915  1.00  0.00     0.001 A 
HETATM    7  C9  LIG X 999      48.053 129.332  13.646  1.00  0.00     0.001 A 
HETATM    8  C10 LIG X 999      47.650 129.185  14.976  1.00  0.00     0.012 A 
HETATM    9  C11 LIG X 999      46.853 130.168  15.585  1.00  0.00    -0.025 A 
HETATM   10  C12 LIG X 999      46.442 130.030  16.920  1.00  0.00     0.026 A 
ENDROOT
BRANCH   1  11
HETATM   11  C1  LIG X 999      45.217 130.852  18.941  1.00  0.00     0.090 C 
HETATM   12  C2  LIG X 999      44.186 131.554  19.433  1.00  0.00     0.118 C 
BRANCH  11  13
HETATM   13  O1  LIG X 999      45.898 129.962  19.772  1.00  0.00    -0.358 OA
HETATM   14  H1  LIG X 999      45.935 128.968  19.579  1.00  0.00     0.217 HD
ENDBRANCH  11  13
BRANCH  12  15
HETATM   15  N1  LIG X 999      43.753 131.403  20.787  1.00  0.00    -0.406 N 
HETATM   16  H3  LIG X 999      44.308 131.841  21.556  1.00  0.00     0.155 HD
HETATM   17  H4  LIG X 999      42.893 130.869  21.038  1.00  0.00     0.155 HD
ENDBRANCH  12  15
ENDBRANCH   1  11
TORSDOF 3
