REMARK VINA RESULT:      -6.6      2.710      5.148
REMARK  1 active torsions:
REMARK  status: ('A' for Active; 'I' for Inactive)
REMARK    1  A    between atoms: C2_5  and  C3_6 
ROOT
HETATM    1  C3  LIG X 999      44.846 131.130  16.951  1.00  0.00     0.030 A 
HETATM    2  C4  LIG X 999      43.604 131.728  16.652  1.00  0.00     0.017 A 
HETATM    3  C5  LIG X 999      43.202 131.955  15.339  1.00  0.00     0.002 A 
HETATM    4  C6  LIG X 999      44.025 131.593  14.283  1.00  0.00     0.012 A 
HETATM    5  C7  LIG X 999      45.267 130.996  14.526  1.00  0.00    -0.025 A 
HETATM    6  C8  LIG X 999      46.079 130.641  13.437  1.00  0.00     0.012 A 
HETATM    7  C9  LIG X 999      47.319 130.046  13.647  1.00  0.00     0.001 A 
HETATM    8  C10 LIG X 999      47.762 129.799  14.942  1.00  0.00     0.001 A 
HETATM    9  C11 LIG X 999      46.970 130.146  16.040  1.00  0.00     0.013 A 
HETATM   10  C12 LIG X 999      45.702 130.752  15.865  1.00  0.00    -0.011 A 
ENDROOT
BRANCH   1  11
HETATM   11  C2  LIG X 999      45.164 130.939  18.400  1.00  0.00     0.203 A 
HETATM   12  O1  LIG X 999      44.650 131.620  19.403  1.00  0.00    -0.255 OA
HETATM   13  C1  LIG X 999      45.208 131.120  20.477  1.00  0.00     0.262 A 
HETATM   14  N1  LIG X 999      44.966 131.522  21.681  1.00  0.00    -0.260 NA
HETATM   15  N3  LIG X 999      46.064 130.138  20.171  1.00  0.00    -0.238 N 
HETATM   16  H1  LIG X 999      44.287 132.294  21.861  1.00  0.00     0.190 HD
HETATM   17  N2  LIG X 999      46.044 130.014  18.855  1.00  0.00    -0.145 NA
HETATM   18  H9  LIG X 999      46.646 129.566  20.823  1.00  0.00     0.193 HD
ENDBRANCH   1  11
TORSDOF 1
