REMARK VINA RESULT:      -8.5      0.000      0.000
REMARK  3 active torsions:
REMARK  status: ('A' for Active; 'I' for Inactive)
REMARK    1  A    between atoms: C3_3  and  S1_4 
REMARK    2  A    between atoms: S1_4  and  C4_7 
REMARK    3  A    between atoms: C13_16  and  N1_17 
ROOT
HETATM    1  C1  LIG X 999      47.479 130.767  13.374  1.00  0.00     0.013 C 
HETATM    2  C2  LIG X 999      46.883 131.368  14.233  1.00  0.00    -0.102 C 
HETATM    3  C3  LIG X 999      46.155 132.096  15.275  1.00  0.00     0.238 C 
ENDROOT
BRANCH   3   4
HETATM    4  S1  LIG X 999      44.770 131.129  15.844  1.00  0.00     0.185 S 
HETATM    5  O1  LIG X 999      44.891 129.728  15.316  1.00  0.00    -0.222 OA
HETATM    6  O2  LIG X 999      43.490 131.727  15.331  1.00  0.00    -0.222 OA
BRANCH   4   7
HETATM    7  C4  LIG X 999      44.750 131.095  17.606  1.00  0.00     0.060 A 
HETATM    8  C5  LIG X 999      45.823 130.537  18.309  1.00  0.00     0.024 A 
HETATM    9  C6  LIG X 999      45.822 130.533  19.704  1.00  0.00     0.011 A 
HETATM   10  C7  LIG X 999      44.754 131.097  20.422  1.00  0.00    -0.019 A 
HETATM   11  C8  LIG X 999      43.663 131.658  19.713  1.00  0.00    -0.048 A 
HETATM   12  C13 LIG X 999      44.761 131.011  21.937  1.00  0.00     0.251 C 
HETATM   13  C9  LIG X 999      43.681 131.664  18.310  1.00  0.00     0.031 A 
HETATM   14  C10 LIG X 999      42.536 132.370  20.424  1.00  0.00     0.039 C 
HETATM   15  C11 LIG X 999      42.439 132.004  21.908  1.00  0.00     0.007 C 
HETATM   16  C12 LIG X 999      43.821 132.057  22.563  1.00  0.00     0.040 C 
BRANCH  12  17
HETATM   17  N1  LIG X 999      44.366 129.663  22.355  1.00  0.00     0.087 N 
HETATM   18  H14 LIG X 999      43.716 129.744  23.171  1.00  0.00     0.313 HD
HETATM   19  H15 LIG X 999      43.804 129.229  21.589  1.00  0.00     0.313 HD
ENDBRANCH  12  17
ENDBRANCH   4   7
ENDBRANCH   3   4
TORSDOF 3
