REMARK VINA RESULT:      -4.0      5.879      9.320
REMARK  3 active torsions:
REMARK  status: ('A' for Active; 'I' for Inactive)
REMARK    1  A    between atoms: C2_2  and  N1_3 
REMARK    2  A    between atoms: C3_6  and  O1_7 
REMARK    3  A    between atoms: O1_7  and  C4_8 
REMARK       I    between atoms: C4_8  and  N4_10 
ROOT
HETATM    1  N1  LIG X 999      44.931 123.501  22.981  1.00  0.00    -0.070 NA
HETATM    2  N2  LIG X 999      45.700 122.983  23.792  1.00  0.00    -0.162 NA
HETATM    3  N3  LIG X 999      46.465 122.458  24.599  1.00  0.00     0.068 N 
ENDROOT
BRANCH   1   4
HETATM    4  C2  LIG X 999      44.549 124.885  23.018  1.00  0.00     0.128 A 
HETATM    5  C1  LIG X 999      45.288 125.778  22.231  1.00  0.00     0.049 A 
HETATM    6  C13 LIG X 999      44.975 127.142  22.201  1.00  0.00    -0.023 A 
HETATM    7  C8  LIG X 999      43.898 127.631  22.988  1.00  0.00    -0.022 A 
HETATM    8  C12 LIG X 999      45.721 128.032  21.405  1.00  0.00     0.021 A 
HETATM    9  C7  LIG X 999      43.163 126.742  23.782  1.00  0.00     0.052 A 
HETATM   10  C9  LIG X 999      43.585 129.005  22.971  1.00  0.00     0.021 A 
HETATM   11  C3  LIG X 999      43.470 125.368  23.799  1.00  0.00     0.113 A 
HETATM   12  C10 LIG X 999      44.344 129.853  22.164  1.00  0.00    -0.024 A 
HETATM   13  C11 LIG X 999      45.374 129.384  21.408  1.00  0.00    -0.024 A 
HETATM   14  C17 LIG X 999      44.210 131.317  22.008  1.00  0.00     0.276 C 
HETATM   15  C14 LIG X 999      46.027 130.490  20.676  1.00  0.00     0.276 C 
HETATM   16  N5  LIG X 999      45.180 131.698  20.933  1.00  0.00    -0.067 N 
HETATM   17  C15 LIG X 999      46.017 132.841  21.365  1.00  0.00     0.272 C 
HETATM   18  C16 LIG X 999      44.449 132.077  19.700  1.00  0.00     0.272 C 
BRANCH  11  19
HETATM   19  O1  LIG X 999      42.751 124.489  24.625  1.00  0.00    -0.259 OA
BRANCH  19  20
HETATM   20  C4  LIG X 999      41.773 123.588  24.178  1.00  0.00     0.367 C 
HETATM   21  O2  LIG X 999      42.104 122.434  23.787  1.00  0.00    -0.238 OA
HETATM   22  N4  LIG X 999      40.386 123.965  24.211  1.00  0.00    -0.336 N 
HETATM   23  C5  LIG X 999      39.359 123.001  23.805  1.00  0.00     0.154 C 
HETATM   24  C6  LIG X 999      40.019 125.320  24.625  1.00  0.00     0.154 C 
ENDBRANCH  19  20
ENDBRANCH  11  19
ENDBRANCH   1   4
TORSDOF 3
