REMARK VINA RESULT:      -6.6      2.451      3.172
REMARK  7 active torsions:
REMARK  status: ('A' for Active; 'I' for Inactive)
REMARK    1  A    between atoms: O1_2  and  C1_3 
REMARK    2  A    between atoms: C1_3  and  C2_4 
REMARK    3  A    between atoms: C1_3  and  C3_8 
REMARK    4  A    between atoms: C2_4  and  N1_5 
REMARK    5  A    between atoms: C3_8  and  O2_9 
REMARK    6  A    between atoms: O2_9  and  C4_10 
REMARK    7  A    between atoms: C9_15  and  N4_16 
ROOT
HETATM    1  N1  LIG X 999      44.191 132.544  24.622  1.00  0.00    -0.113 NA
HETATM    2  N2  LIG X 999      45.233 133.199  24.622  1.00  0.00    -0.168 NA
HETATM    3  N3  LIG X 999      46.275 133.853  24.622  1.00  0.00     0.068 N 
ENDROOT
BRANCH   1   4
HETATM    4  C2  LIG X 999      44.226 131.093  24.494  1.00  0.00     0.223 C 
BRANCH   4   5
HETATM    5  C1  LIG X 999      43.849 130.654  23.068  1.00  0.00     0.165 C 
BRANCH   5   6
HETATM    6  O1  LIG X 999      43.777 129.252  22.981  1.00  0.00    -0.392 OA
HETATM    7  H1  LIG X 999      42.888 129.016  22.607  1.00  0.00     0.210 HD
ENDBRANCH   5   6
BRANCH   5   8
HETATM    8  C3  LIG X 999      42.547 131.301  22.571  1.00  0.00     0.209 C 
BRANCH   8   9
HETATM    9  O2  LIG X 999      42.839 132.305  21.602  1.00  0.00    -0.349 OA
BRANCH   9  10
HETATM   10  C4  LIG X 999      43.123 132.051  20.252  1.00  0.00     0.069 A 
HETATM   11  C5  LIG X 999      42.140 132.348  19.302  1.00  0.00     0.037 A 
HETATM   12  C6  LIG X 999      42.366 132.114  17.944  1.00  0.00     0.015 A 
HETATM   13  C7  LIG X 999      43.587 131.576  17.515  1.00  0.00    -0.024 A 
HETATM   14  C8  LIG X 999      43.823 131.338  16.151  1.00  0.00     0.046 A 
HETATM   15  C12 LIG X 999      44.589 131.271  18.466  1.00  0.00    -0.023 A 
HETATM   16  C9  LIG X 999      45.052 130.797  15.728  1.00  0.00     0.094 A 
HETATM   17  C10 LIG X 999      46.038 130.499  16.677  1.00  0.00     0.035 A 
HETATM   18  C11 LIG X 999      45.811 130.733  18.035  1.00  0.00     0.014 A 
HETATM   19  C13 LIG X 999      44.352 131.510  19.828  1.00  0.00     0.049 A 
BRANCH  16  20
HETATM   20  N4  LIG X 999      45.327 130.541  14.344  1.00  0.00    -0.073 NA
HETATM   21  N5  LIG X 999      46.381 130.885  13.806  1.00  0.00    -0.162 NA
HETATM   22  N6  LIG X 999      47.433 131.227  13.267  1.00  0.00     0.068 N 
ENDBRANCH  16  20
ENDBRANCH   9  10
ENDBRANCH   8   9
ENDBRANCH   5   8
ENDBRANCH   4   5
ENDBRANCH   1   4
TORSDOF 7
