REMARK VINA RESULT:      -5.8      2.219      7.731
REMARK  6 active torsions:
REMARK  status: ('A' for Active; 'I' for Inactive)
REMARK    1  A    between atoms: C2_2  and  C3_3 
REMARK    2  A    between atoms: C3_3  and  O1_4 
REMARK    3  A    between atoms: O1_4  and  C4_5 
REMARK    4  A    between atoms: C4_5  and  C6_7 
REMARK    5  A    between atoms: C6_7  and  C7_8 
REMARK       I    between atoms: N1_10  and  C9_11 
REMARK    6  A    between atoms: C9_11  and  C10_13 
ROOT
HETATM    1  C7  LIG X 999      45.253 130.847  20.221  1.00  0.00     0.076 A 
HETATM    2  C8  LIG X 999      45.439 129.658  20.895  1.00  0.00     0.150 A 
HETATM    3  N1  LIG X 999      44.738 129.761  22.040  1.00  0.00    -0.213 N 
HETATM    4  C9  LIG X 999      44.634 128.789  23.093  1.00  0.00     0.277 C 
HETATM    5  O2  LIG X 999      44.369 129.178  24.263  1.00  0.00    -0.265 OA
HETATM    6  N2  LIG X 999      44.173 130.958  22.060  1.00  0.00    -0.210 N 
HETATM    7  N3  LIG X 999      44.455 131.643  20.963  1.00  0.00    -0.162 NA
HETATM    8  H20 LIG X 999      43.570 131.319  22.833  1.00  0.00     0.211 HD
ENDROOT
BRANCH   4   9
HETATM    9  C10 LIG X 999      44.828 127.343  22.840  1.00  0.00     0.035 A 
HETATM   10  C11 LIG X 999      46.126 126.810  22.776  1.00  0.00     0.018 A 
HETATM   11  C12 LIG X 999      46.323 125.445  22.547  1.00  0.00     0.013 A 
HETATM   12  C13 LIG X 999      45.225 124.590  22.387  1.00  0.00    -0.026 A 
HETATM   13  C14 LIG X 999      45.412 123.219  22.154  1.00  0.00     0.012 A 
HETATM   14  C18 LIG X 999      43.912 125.114  22.468  1.00  0.00    -0.025 A 
HETATM   15  C15 LIG X 999      44.307 122.375  22.002  1.00  0.00     0.001 A 
HETATM   16  C16 LIG X 999      43.012 122.892  22.083  1.00  0.00     0.001 A 
HETATM   17  C17 LIG X 999      42.811 124.256  22.315  1.00  0.00     0.012 A 
HETATM   18  C19 LIG X 999      43.723 126.484  22.702  1.00  0.00     0.029 A 
ENDBRANCH   4   9
BRANCH   1  19
HETATM   19  C6  LIG X 999      45.771 131.193  18.857  1.00  0.00     0.094 C 
BRANCH  19  20
HETATM   20  C4  LIG X 999      44.777 130.834  17.739  1.00  0.00     0.123 C 
HETATM   21  C5  LIG X 999      43.530 131.727  17.783  1.00  0.00     0.040 C 
BRANCH  20  22
HETATM   22  O1  LIG X 999      45.421 130.974  16.481  1.00  0.00    -0.382 OA
BRANCH  22  23
HETATM   23  C3  LIG X 999      46.287 129.886  16.233  1.00  0.00     0.194 C 
BRANCH  23  24
HETATM   24  C2  LIG X 999      46.815 129.986  14.834  1.00  0.00    -0.011 C 
HETATM   25  C1  LIG X 999      46.877 131.157  14.195  1.00  0.00     0.009 C 
ENDBRANCH  23  24
ENDBRANCH  22  23
ENDBRANCH  20  22
ENDBRANCH  19  20
ENDBRANCH   1  19
TORSDOF 6
