REMARK VINA RESULT:      -4.9      2.438      7.421
REMARK  4 active torsions:
REMARK  status: ('A' for Active; 'I' for Inactive)
REMARK    1  A    between atoms: C2_2  and  N1_3 
REMARK    2  A    between atoms: C3_6  and  O1_7 
REMARK    3  A    between atoms: O1_7  and  C4_8 
REMARK    4  A    between atoms: C4_8  and  C5_9 
ROOT
HETATM    1  N1  LIG X 999      42.467 132.118  22.128  1.00  0.00    -0.070 NA
HETATM    2  N2  LIG X 999      41.532 132.872  21.849  1.00  0.00    -0.162 NA
HETATM    3  N3  LIG X 999      40.600 133.624  21.573  1.00  0.00     0.068 N 
ENDROOT
BRANCH   1   4
HETATM    4  C2  LIG X 999      43.384 131.628  21.136  1.00  0.00     0.127 A 
HETATM    5  C1  LIG X 999      43.274 132.014  19.787  1.00  0.00     0.049 A 
HETATM    6  C14 LIG X 999      44.178 131.528  18.834  1.00  0.00    -0.023 A 
HETATM    7  C9  LIG X 999      45.211 130.637  19.235  1.00  0.00    -0.022 A 
HETATM    8  C13 LIG X 999      44.071 131.912  17.483  1.00  0.00     0.021 A 
HETATM    9  C8  LIG X 999      45.313 130.255  20.579  1.00  0.00     0.051 A 
HETATM   10  C10 LIG X 999      46.120 130.143  18.279  1.00  0.00     0.021 A 
HETATM   11  C3  LIG X 999      44.404 130.750  21.536  1.00  0.00     0.102 A 
HETATM   12  C11 LIG X 999      45.985 130.554  16.952  1.00  0.00    -0.024 A 
HETATM   13  C12 LIG X 999      44.996 131.408  16.568  1.00  0.00    -0.024 A 
HETATM   14  C18 LIG X 999      46.804 130.152  15.789  1.00  0.00     0.276 C 
HETATM   15  C15 LIG X 999      45.060 131.656  15.112  1.00  0.00     0.276 C 
HETATM   16  N4  LIG X 999      46.313 130.982  14.644  1.00  0.00    -0.067 N 
HETATM   17  C16 LIG X 999      46.040 130.133  13.461  1.00  0.00     0.272 C 
HETATM   18  C17 LIG X 999      47.331 131.998  14.281  1.00  0.00     0.272 C 
BRANCH  11  19
HETATM   19  O1  LIG X 999      44.479 130.391  22.894  1.00  0.00    -0.337 OA
BRANCH  19  20
HETATM   20  C4  LIG X 999      43.959 129.192  23.466  1.00  0.00     0.269 C 
BRANCH  20  21
HETATM   21  C5  LIG X 999      44.845 128.060  23.175  1.00  0.00    -0.080 C 
HETATM   22  C6  LIG X 999      45.574 127.129  22.941  1.00  0.00    -0.109 C 
HETATM   23  C7  LIG X 999      46.460 125.999  22.661  1.00  0.00     0.112 C 
ENDBRANCH  20  21
ENDBRANCH  19  20
ENDBRANCH  11  19
ENDBRANCH   1   4
TORSDOF 4
