REMARK VINA RESULT:      -7.4      2.913      5.322
REMARK  3 active torsions:
REMARK  status: ('A' for Active; 'I' for Inactive)
REMARK    1  A    between atoms: O1_2  and  C1_3 
REMARK    2  A    between atoms: C1_3  and  C3_8 
REMARK    3  A    between atoms: C2_4  and  N1_5 
ROOT
HETATM    1  C3  LIG X 999      44.903 131.196  16.775  1.00  0.00    -0.001 A 
HETATM    2  C4  LIG X 999      45.852 130.670  17.672  1.00  0.00     0.015 A 
HETATM    3  C5  LIG X 999      45.629 130.712  19.050  1.00  0.00     0.013 A 
HETATM    4  C6  LIG X 999      44.451 131.277  19.558  1.00  0.00    -0.026 A 
HETATM    5  C7  LIG X 999      44.218 131.324  20.941  1.00  0.00     0.012 A 
HETATM    6  C8  LIG X 999      43.040 131.891  21.435  1.00  0.00     0.001 A 
HETATM    7  C9  LIG X 999      42.087 132.413  20.554  1.00  0.00     0.001 A 
HETATM    8  C10 LIG X 999      42.308 132.372  19.175  1.00  0.00     0.012 A 
HETATM    9  C11 LIG X 999      43.488 131.805  18.666  1.00  0.00    -0.025 A 
HETATM   10  C12 LIG X 999      43.719 131.758  17.283  1.00  0.00     0.026 A 
ENDROOT
BRANCH   1  11
HETATM   11  C1  LIG X 999      45.128 131.146  15.308  1.00  0.00     0.090 C 
HETATM   12  C2  LIG X 999      46.357 130.958  14.805  1.00  0.00     0.118 C 
BRANCH  11  13
HETATM   13  O1  LIG X 999      44.050 131.310  14.437  1.00  0.00    -0.358 OA
HETATM   14  H1  LIG X 999      43.344 132.021  14.586  1.00  0.00     0.217 HD
ENDBRANCH  11  13
BRANCH  12  15
HETATM   15  N1  LIG X 999      46.591 130.903  13.395  1.00  0.00    -0.406 N 
HETATM   16  H3  LIG X 999      46.039 130.239  12.809  1.00  0.00     0.155 HD
HETATM   17  H4  LIG X 999      47.298 131.511  12.926  1.00  0.00     0.155 HD
ENDBRANCH  12  15
ENDBRANCH   1  11
TORSDOF 3
