REMARK VINA RESULT:      -5.8      2.887      7.098
REMARK  5 active torsions:
REMARK  status: ('A' for Active; 'I' for Inactive)
REMARK    1  A    between atoms: N1_1  and  C1_2 
REMARK    2  A    between atoms: C1_2  and  C2_3 
REMARK    3  A    between atoms: C2_3  and  C3_4 
REMARK    4  A    between atoms: C3_4  and  O1_5 
REMARK    5  A    between atoms: O1_5  and  C4_6 
ROOT
HETATM    1  C4  LIG X 999      44.934 131.365  19.629  1.00  0.00     0.069 A 
HETATM    2  C5  LIG X 999      45.707 130.300  20.105  1.00  0.00     0.037 A 
HETATM    3  C6  LIG X 999      45.480 129.763  21.375  1.00  0.00     0.015 A 
HETATM    4  C7  LIG X 999      44.471 130.290  22.192  1.00  0.00    -0.026 A 
HETATM    5  C8  LIG X 999      44.233 129.760  23.470  1.00  0.00     0.012 A 
HETATM    6  C9  LIG X 999      43.223 130.294  24.275  1.00  0.00     0.001 A 
HETATM    7  C10 LIG X 999      42.444 131.358  23.812  1.00  0.00     0.001 A 
HETATM    8  C11 LIG X 999      42.670 131.895  22.542  1.00  0.00     0.012 A 
HETATM    9  C12 LIG X 999      43.682 131.368  21.723  1.00  0.00    -0.023 A 
HETATM   10  C13 LIG X 999      43.918 131.899  20.445  1.00  0.00     0.049 A 
ENDROOT
BRANCH   1  11
HETATM   11  O1  LIG X 999      45.207 131.860  18.346  1.00  0.00    -0.351 OA
BRANCH  11  12
HETATM   12  C3  LIG X 999      45.039 131.117  17.140  1.00  0.00     0.177 C 
BRANCH  12  13
HETATM   13  C2  LIG X 999      45.542 131.931  15.945  1.00  0.00     0.054 C 
BRANCH  13  14
HETATM   14  C1  LIG X 999      46.641 131.217  15.139  1.00  0.00     0.231 C 
BRANCH  14  15
HETATM   15  N1  LIG X 999      46.974 129.905  15.698  1.00  0.00    -0.079 N 
HETATM   16  H1  LIG X 999      47.430 129.303  14.973  1.00  0.00     0.274 HD
HETATM   17  H2  LIG X 999      47.639 130.034  16.493  1.00  0.00     0.274 HD
HETATM   18  H3  LIG X 999      46.114 129.436  16.062  1.00  0.00     0.274 HD
ENDBRANCH  14  15
ENDBRANCH  13  14
ENDBRANCH  12  13
ENDBRANCH  11  12
ENDBRANCH   1  11
TORSDOF 5
