REMARK VINA RESULT:      -5.4      4.132      6.036
REMARK  4 active torsions:
REMARK  status: ('A' for Active; 'I' for Inactive)
REMARK    1  A    between atoms: C1_2  and  C2_4 
REMARK    2  A    between atoms: C8_10  and  C9_11 
REMARK       I    between atoms: C9_11  and  N1_13 
REMARK    3  A    between atoms: N1_13  and  S1_14 
REMARK    4  A    between atoms: S1_14  and  C10_17 
ROOT
HETATM    1  C9  LIG X 999      47.807 125.590  23.158  1.00  0.00     0.259 C 
HETATM    2  O3  LIG X 999      47.606 125.635  21.914  1.00  0.00    -0.270 OA
HETATM    3  N1  LIG X 999      46.721 125.792  24.065  1.00  0.00    -0.122 NA
ENDROOT
BRANCH   3   4
HETATM    4  S1  LIG X 999      45.076 125.839  23.533  1.00  0.00     0.286 S 
HETATM    5  O4  LIG X 999      44.915 124.950  22.333  1.00  0.00    -0.198 OA
HETATM    6  O5  LIG X 999      44.172 125.338  24.625  1.00  0.00    -0.198 OA
BRANCH   4   7
HETATM    7  C10 LIG X 999      44.667 127.495  23.096  1.00  0.00     0.082 A 
HETATM    8  C11 LIG X 999      43.604 128.144  23.740  1.00  0.00     0.026 A 
HETATM    9  C12 LIG X 999      43.234 129.437  23.362  1.00  0.00     0.014 A 
HETATM   10  C13 LIG X 999      43.919 130.094  22.330  1.00  0.00    -0.026 A 
HETATM   11  C14 LIG X 999      43.550 131.390  21.938  1.00  0.00     0.012 A 
HETATM   12  C18 LIG X 999      44.990 129.441  21.675  1.00  0.00    -0.025 A 
HETATM   13  C15 LIG X 999      44.237 132.032  20.904  1.00  0.00     0.001 A 
HETATM   14  C16 LIG X 999      45.294 131.387  20.255  1.00  0.00     0.001 A 
HETATM   15  C17 LIG X 999      45.672 130.097  20.636  1.00  0.00     0.012 A 
HETATM   16  C19 LIG X 999      45.357 128.143  22.063  1.00  0.00     0.037 A 
ENDBRANCH   4   7
ENDBRANCH   3   4
BRANCH   1  17
HETATM   17  C8  LIG X 999      49.173 125.255  23.713  1.00  0.00     0.099 C 
HETATM   18  C2  LIG X 999      49.491 123.730  23.786  1.00  0.00     0.104 C 
HETATM   19  C3  LIG X 999      50.780 123.616  22.932  1.00  0.00     0.001 C 
HETATM   20  C4  LIG X 999      51.946 124.237  23.727  1.00  0.00     0.006 C 
HETATM   21  C7  LIG X 999      50.567 124.664  21.862  1.00  0.00     0.011 C 
HETATM   22  C5  LIG X 999      51.635 125.744  23.668  1.00  0.00     0.006 C 
HETATM   23  C6  LIG X 999      50.336 125.794  22.840  1.00  0.00    -0.000 C 
BRANCH  18  24
HETATM   24  C1  LIG X 999      48.387 122.810  23.306  1.00  0.00     0.178 C 
HETATM   25  O1  LIG X 999      48.347 122.405  22.113  1.00  0.00    -0.648 OA
HETATM   26  O2  LIG X 999      47.374 122.444  24.183  1.00  0.00    -0.648 OA
ENDBRANCH  18  24
ENDBRANCH   1  17
TORSDOF 4
