REMARK VINA RESULT:      -5.7      3.009      6.376
REMARK  4 active torsions:
REMARK  status: ('A' for Active; 'I' for Inactive)
REMARK    1  A    between atoms: C2_2  and  C3_3 
REMARK    2  A    between atoms: C3_3  and  C5_5 
REMARK       I    between atoms: C5_5  and  N1_7 
REMARK    3  A    between atoms: N1_7  and  C6_8 
REMARK    4  A    between atoms: C7_9  and  O2_10 
ROOT
HETATM    1  C6  LIG X 999      43.683 131.659  20.089  1.00  0.00     0.104 A 
HETATM    2  C7  LIG X 999      42.434 132.317  20.066  1.00  0.00     0.098 A 
HETATM    3  C9  LIG X 999      41.793 132.548  18.834  1.00  0.00     0.040 A 
HETATM    4  C10 LIG X 999      42.397 132.165  17.637  1.00  0.00     0.015 A 
HETATM    5  C11 LIG X 999      43.654 131.552  17.643  1.00  0.00    -0.024 A 
HETATM    6  C12 LIG X 999      44.267 131.184  16.434  1.00  0.00     0.012 A 
HETATM    7  C13 LIG X 999      45.522 130.573  16.440  1.00  0.00     0.001 A 
HETATM    8  C14 LIG X 999      46.174 130.321  17.648  1.00  0.00     0.001 A 
HETATM    9  C15 LIG X 999      45.576 130.678  18.859  1.00  0.00     0.014 A 
HETATM   10  C16 LIG X 999      44.310 131.301  18.874  1.00  0.00     0.006 A 
ENDROOT
BRANCH   1  11
HETATM   11  N1  LIG X 999      44.356 131.408  21.333  1.00  0.00    -0.210 NA
HETATM   12  C5  LIG X 999      43.805 130.685  22.442  1.00  0.00     0.247 C 
HETATM   13  O1  LIG X 999      42.746 130.014  22.304  1.00  0.00    -0.271 OA
BRANCH  12  14
HETATM   14  C3  LIG X 999      44.529 130.668  23.762  1.00  0.00     0.076 C 
HETATM   15  C4  LIG X 999      44.179 131.928  24.561  1.00  0.00     0.020 C 
BRANCH  14  16
HETATM   16  C2  LIG X 999      44.197 129.400  24.573  1.00  0.00     0.009 C 
HETATM   17  C1  LIG X 999      44.897 128.158  24.022  1.00  0.00     0.006 C 
ENDBRANCH  14  16
ENDBRANCH  12  14
ENDBRANCH   1  11
BRANCH   2  18
HETATM   18  O2  LIG X 999      41.872 132.754  21.276  1.00  0.00    -0.354 OA
HETATM   19  C8  LIG X 999      40.711 133.573  21.385  1.00  0.00     0.210 C 
ENDBRANCH   2  18
TORSDOF 4
