REMARK VINA RESULT:      -5.3      3.829      7.077
REMARK  5 active torsions:
REMARK  status: ('A' for Active; 'I' for Inactive)
REMARK    1  A    between atoms: C3_3  and  C4_4 
REMARK    2  A    between atoms: C4_4  and  S1_5 
REMARK    3  A    between atoms: S1_5  and  C5_6 
REMARK    4  A    between atoms: C6_7  and  N1_8 
REMARK    5  A    between atoms: C10_12  and  N2_13 
ROOT
HETATM    1  C1  LIG X 999      41.967 132.774  20.475  1.00  0.00     0.112 C 
HETATM    2  C2  LIG X 999      42.879 131.771  21.023  1.00  0.00    -0.110 C 
HETATM    3  C3  LIG X 999      43.643 130.959  21.482  1.00  0.00    -0.097 C 
ENDROOT
BRANCH   3   4
HETATM    4  C4  LIG X 999      44.585 129.991  22.050  1.00  0.00     0.173 C 
BRANCH   4   5
HETATM    5  S1  LIG X 999      44.261 129.752  23.831  1.00  0.00    -0.115 SA
BRANCH   5   6
HETATM    6  C5  LIG X 999      43.310 128.222  23.619  1.00  0.00     0.038 A 
HETATM    7  C6  LIG X 999      41.918 128.229  23.855  1.00  0.00     0.043 A 
HETATM    8  C7  LIG X 999      41.190 127.044  23.733  1.00  0.00     0.031 A 
HETATM    9  C8  LIG X 999      41.814 125.847  23.394  1.00  0.00     0.017 A 
HETATM   10  C9  LIG X 999      43.200 125.798  23.157  1.00  0.00     0.002 A 
HETATM   11  C10 LIG X 999      43.860 124.577  22.823  1.00  0.00     0.045 A 
HETATM   12  C14 LIG X 999      43.952 127.015  23.232  1.00  0.00    -0.004 A 
HETATM   13  C11 LIG X 999      45.233 124.622  22.542  1.00  0.00     0.003 A 
HETATM   14  C12 LIG X 999      45.933 125.786  22.581  1.00  0.00    -0.021 A 
HETATM   15  C18 LIG X 999      46.136 123.503  22.175  1.00  0.00     0.278 C 
HETATM   16  C13 LIG X 999      45.329 126.991  22.913  1.00  0.00     0.023 A 
HETATM   17  C15 LIG X 999      47.353 125.563  22.235  1.00  0.00     0.276 C 
HETATM   18  N3  LIG X 999      47.517 124.080  22.160  1.00  0.00    -0.067 N 
HETATM   19  C16 LIG X 999      48.233 123.694  20.922  1.00  0.00     0.272 C 
HETATM   20  C17 LIG X 999      48.285 123.594  23.332  1.00  0.00     0.272 C 
BRANCH   7  21
HETATM   21  N1  LIG X 999      41.220 129.430  24.219  1.00  0.00    -0.398 N 
HETATM   22  H6  LIG X 999      40.610 129.451  25.065  1.00  0.00     0.156 HD
HETATM   23  H7  LIG X 999      41.284 130.308  23.660  1.00  0.00     0.156 HD
ENDBRANCH   7  21
BRANCH  11  24
HETATM   24  N2  LIG X 999      43.177 123.313  22.788  1.00  0.00    -0.398 N 
HETATM   25  H10 LIG X 999      42.305 123.128  23.327  1.00  0.00     0.156 HD
HETATM   26  H11 LIG X 999      43.600 122.492  22.302  1.00  0.00     0.156 HD
ENDBRANCH  11  24
ENDBRANCH   5   6
ENDBRANCH   4   5
ENDBRANCH   3   4
TORSDOF 5
