REMARK VINA RESULT:      -5.8      1.767      5.852
REMARK  4 active torsions:
REMARK  status: ('A' for Active; 'I' for Inactive)
REMARK    1  A    between atoms: C3_3  and  O1_4 
REMARK    2  A    between atoms: O1_4  and  C4_5 
REMARK    3  A    between atoms: C4_5  and  O2_6 
REMARK    4  A    between atoms: C5_8  and  C6_9 
ROOT
HETATM    1  C1  LIG X 999      47.594 131.005  13.153  1.00  0.00     0.014 C 
HETATM    2  C2  LIG X 999      46.883 131.515  13.982  1.00  0.00    -0.091 C 
HETATM    3  C3  LIG X 999      46.024 132.134  14.992  1.00  0.00     0.270 C 
ENDROOT
BRANCH   3   4
HETATM    4  O1  LIG X 999      46.230 131.482  16.238  1.00  0.00    -0.319 OA
BRANCH   4   5
HETATM    5  C4  LIG X 999      46.080 130.101  16.429  1.00  0.00     0.179 C 
HETATM    6  C5  LIG X 999      45.665 129.634  17.610  1.00  0.00     0.075 C 
BRANCH   5   7
HETATM    7  O2  LIG X 999      46.366 129.191  15.410  1.00  0.00    -0.341 OA
HETATM    8  H4  LIG X 999      47.107 128.507  15.485  1.00  0.00     0.220 HD
ENDBRANCH   5   7
BRANCH   6   9
HETATM    9  C6  LIG X 999      45.379 130.517  18.762  1.00  0.00    -0.021 A 
HETATM   10  C7  LIG X 999      46.351 130.602  19.769  1.00  0.00     0.012 A 
HETATM   11  C8  LIG X 999      46.175 131.452  20.862  1.00  0.00     0.002 A 
HETATM   12  C9  LIG X 999      45.020 132.224  20.972  1.00  0.00     0.012 A 
HETATM   13  C10 LIG X 999      44.015 132.135  20.000  1.00  0.00    -0.025 A 
HETATM   14  C11 LIG X 999      42.842 132.897  20.131  1.00  0.00     0.012 A 
HETATM   15  C15 LIG X 999      44.177 131.266  18.887  1.00  0.00    -0.015 A 
HETATM   16  C12 LIG X 999      41.824 132.789  19.184  1.00  0.00     0.001 A 
HETATM   17  C13 LIG X 999      41.959 131.916  18.106  1.00  0.00     0.001 A 
HETATM   18  C14 LIG X 999      43.120 131.153  17.958  1.00  0.00     0.013 A 
ENDBRANCH   6   9
ENDBRANCH   4   5
ENDBRANCH   3   4
TORSDOF 4
