REMARK VINA RESULT:      -6.4      2.867      6.717
REMARK  1 active torsions:
REMARK  status: ('A' for Active; 'I' for Inactive)
REMARK    1  A    between atoms: C10_11  and  N2_12 
ROOT
HETATM    1  N2  LIG X 999      42.360 132.113  18.701  1.00  0.00    -0.214 NA
HETATM    2  C11 LIG X 999      42.625 131.924  19.932  1.00  0.00     0.165 C 
HETATM    3  S1  LIG X 999      42.959 131.685  21.490  1.00  0.00    -0.055 SA
ENDROOT
BRANCH   1   4
HETATM    4  C10 LIG X 999      43.229 131.728  17.625  1.00  0.00     0.152 C 
HETATM    5  N1  LIG X 999      44.341 131.012  17.916  1.00  0.00    -0.229 NA
HETATM    6  C9  LIG X 999      45.234 130.627  16.968  1.00  0.00     0.070 C 
HETATM    7  C8  LIG X 999      46.315 129.837  17.359  1.00  0.00     0.033 C 
HETATM    8  C15 LIG X 999      45.058 131.004  15.606  1.00  0.00     0.010 C 
HETATM    9  C7  LIG X 999      47.251 129.411  16.428  1.00  0.00     0.014 C 
HETATM   10  C5  LIG X 999      47.186 129.862  15.105  1.00  0.00    -0.025 C 
HETATM   11  C4  LIG X 999      46.126 130.720  14.690  1.00  0.00    -0.013 C 
HETATM   12  C6  LIG X 999      48.206 129.505  14.209  1.00  0.00     0.012 C 
HETATM   13  C3  LIG X 999      46.248 131.331  13.419  1.00  0.00     0.013 C 
HETATM   14  C2  LIG X 999      47.277 130.977  12.544  1.00  0.00     0.001 C 
HETATM   15  C1  LIG X 999      48.237 130.045  12.927  1.00  0.00     0.001 C 
HETATM   16  C13 LIG X 999      43.803 131.602  15.262  1.00  0.00    -0.045 C 
HETATM   17  C12 LIG X 999      42.936 132.018  16.286  1.00  0.00     0.060 C 
HETATM   18  C14 LIG X 999      43.259 131.688  13.858  1.00  0.00     0.049 C 
ENDBRANCH   1   4
TORSDOF 1
