REMARK VINA RESULT:      -6.7      1.416      1.694
REMARK  3 active torsions:
REMARK  status: ('A' for Active; 'I' for Inactive)
REMARK    1  A    between atoms: C3_3  and  S1_4 
REMARK    2  A    between atoms: S1_4  and  C4_7 
REMARK    3  A    between atoms: C12_15  and  N1_16 
ROOT
HETATM    1  C1  LIG X 999      47.098 130.071  13.923  1.00  0.00     0.013 C 
HETATM    2  C2  LIG X 999      46.536 130.085  14.990  1.00  0.00    -0.102 C 
HETATM    3  C3  LIG X 999      45.852 130.102  16.285  1.00  0.00     0.233 C 
ENDROOT
BRANCH   3   4
HETATM    4  S1  LIG X 999      44.997 131.653  16.529  1.00  0.00     0.159 S 
HETATM    5  O1  LIG X 999      43.753 131.688  15.686  1.00  0.00    -0.227 OA
HETATM    6  O2  LIG X 999      45.910 132.765  16.096  1.00  0.00    -0.227 OA
BRANCH   4   7
HETATM    7  C4  LIG X 999      44.571 131.894  18.259  1.00  0.00     0.116 C 
HETATM    8  C5  LIG X 999      44.934 130.656  19.092  1.00  0.00     0.059 C 
HETATM    9  C6  LIG X 999      44.416 130.738  20.508  1.00  0.00    -0.049 A 
HETATM   10  C7  LIG X 999      44.982 129.896  21.479  1.00  0.00     0.007 A 
HETATM   11  C11 LIG X 999      43.333 131.581  20.859  1.00  0.00    -0.019 A 
HETATM   12  C8  LIG X 999      44.519 129.921  22.795  1.00  0.00     0.001 A 
HETATM   13  C9  LIG X 999      43.485 130.783  23.156  1.00  0.00     0.001 A 
HETATM   14  C10 LIG X 999      42.901 131.614  22.199  1.00  0.00     0.010 A 
HETATM   15  C12 LIG X 999      42.718 132.543  19.855  1.00  0.00     0.252 C 
HETATM   16  C13 LIG X 999      43.073 132.185  18.397  1.00  0.00     0.060 C 
BRANCH  15  17
HETATM   17  N1  LIG X 999      41.262 132.601  20.023  1.00  0.00     0.087 N 
HETATM   18  H12 LIG X 999      41.042 132.659  21.044  1.00  0.00     0.313 HD
HETATM   19  H13 LIG X 999      40.896 133.469  19.569  1.00  0.00     0.313 HD
ENDBRANCH  15  17
ENDBRANCH   4   7
ENDBRANCH   3   4
TORSDOF 3
