REMARK VINA RESULT:      -7.2      2.517      3.438
REMARK  1 active torsions:
REMARK  status: ('A' for Active; 'I' for Inactive)
REMARK    1  A    between atoms: C11_13  and  N2_14 
ROOT
HETATM    1  N2  LIG X 999      46.110 130.670  16.776  1.00  0.00    -0.053 NA
HETATM    2  N3  LIG X 999      45.694 129.805  16.005  1.00  0.00    -0.160 NA
HETATM    3  N4  LIG X 999      45.279 128.940  15.236  1.00  0.00     0.068 N 
ENDROOT
BRANCH   1   4
HETATM    4  C11 LIG X 999      45.512 130.869  18.058  1.00  0.00     0.175 A 
HETATM    5  C10 LIG X 999      44.247 131.398  18.273  1.00  0.00     0.026 A 
HETATM    6  C5  LIG X 999      44.095 131.405  19.619  1.00  0.00     0.017 A 
HETATM    7  C9  LIG X 999      43.228 131.867  17.443  1.00  0.00     0.016 A 
HETATM    8  C4  LIG X 999      45.210 130.906  20.200  1.00  0.00     0.046 A 
HETATM    9  C6  LIG X 999      42.974 131.854  20.278  1.00  0.00     0.005 A 
HETATM   10  C3  LIG X 999      45.309 130.801  21.666  1.00  0.00     0.033 A 
HETATM   11  N5  LIG X 999      46.108 130.565  19.247  1.00  0.00    -0.337 N 
HETATM   12  C2  LIG X 999      44.258 131.216  22.411  1.00  0.00     0.034 A 
HETATM   13  C1  LIG X 999      43.018 131.772  21.762  1.00  0.00     0.059 A 
HETATM   14  N1  LIG X 999      42.013 132.169  22.475  1.00  0.00    -0.300 NA
HETATM   15  H1  LIG X 999      42.024 132.119  23.518  1.00  0.00     0.187 HD
HETATM   16  H7  LIG X 999      47.057 130.155  19.398  1.00  0.00     0.167 HD
HETATM   17  C7  LIG X 999      41.915 132.339  19.482  1.00  0.00     0.015 A 
HETATM   18  C8  LIG X 999      42.046 132.343  18.065  1.00  0.00     0.002 A 
ENDBRANCH   1   4
TORSDOF 1
