REMARK VINA RESULT:      -8.5      0.000      0.000
REMARK  1 active torsions:
REMARK  status: ('A' for Active; 'I' for Inactive)
REMARK    1  A    between atoms: C2_5  and  C3_6 
ROOT
HETATM    1  C3  LIG X 999      45.338 130.819  18.443  1.00  0.00     0.028 A 
HETATM    2  C4  LIG X 999      46.199 130.443  19.486  1.00  0.00     0.017 A 
HETATM    3  C5  LIG X 999      45.880 130.723  20.814  1.00  0.00     0.002 A 
HETATM    4  C6  LIG X 999      44.690 131.377  21.127  1.00  0.00     0.012 A 
HETATM    5  C7  LIG X 999      43.792 131.734  20.111  1.00  0.00    -0.025 A 
HETATM    6  C8  LIG X 999      42.580 132.364  20.439  1.00  0.00     0.012 A 
HETATM    7  C9  LIG X 999      41.660 132.684  19.440  1.00  0.00     0.001 A 
HETATM    8  C10 LIG X 999      41.934 132.367  18.110  1.00  0.00     0.001 A 
HETATM    9  C11 LIG X 999      43.137 131.745  17.766  1.00  0.00     0.013 A 
HETATM   10  C12 LIG X 999      44.099 131.442  18.754  1.00  0.00    -0.011 A 
ENDROOT
BRANCH   1  11
HETATM   11  C2  LIG X 999      45.788 130.559  17.060  1.00  0.00     0.177 A 
HETATM   12  O1  LIG X 999      46.086 131.503  16.190  1.00  0.00    -0.258 OA
HETATM   13  C1  LIG X 999      46.388 130.857  15.087  1.00  0.00     0.260 A 
HETATM   14  N1  LIG X 999      46.744 131.427  13.982  1.00  0.00    -0.261 NA
HETATM   15  N3  LIG X 999      46.277 129.529  15.243  1.00  0.00    -0.262 N 
HETATM   16  H1  LIG X 999      46.812 132.467  13.914  1.00  0.00     0.190 HD
HETATM   17  N2  LIG X 999      45.891 129.338  16.492  1.00  0.00    -0.276 N 
HETATM   18  H10 LIG X 999      46.439 128.778  14.535  1.00  0.00     0.190 HD
HETATM   19  H9  LIG X 999      45.675 128.410  16.919  1.00  0.00     0.189 HD
ENDBRANCH   1  11
TORSDOF 1
