REMARK VINA RESULT:      -7.9      1.603      2.477
REMARK  6 active torsions:
REMARK  status: ('A' for Active; 'I' for Inactive)
REMARK    1  A    between atoms: C2_2  and  C3_3 
REMARK    2  A    between atoms: C3_3  and  O1_4 
REMARK    3  A    between atoms: O1_4  and  C4_5 
REMARK    4  A    between atoms: C4_5  and  C6_7 
REMARK    5  A    between atoms: C6_7  and  C7_8 
REMARK       I    between atoms: N1_10  and  C9_11 
REMARK    6  A    between atoms: C9_11  and  C10_13 
ROOT
HETATM    1  C7  LIG X 999      43.538 131.641  20.860  1.00  0.00     0.076 A 
HETATM    2  C8  LIG X 999      43.954 131.153  19.639  1.00  0.00     0.150 A 
HETATM    3  N1  LIG X 999      43.288 131.857  18.704  1.00  0.00    -0.213 N 
HETATM    4  C9  LIG X 999      43.359 131.705  17.278  1.00  0.00     0.277 C 
HETATM    5  O2  LIG X 999      42.377 132.063  16.572  1.00  0.00    -0.265 OA
HETATM    6  N2  LIG X 999      42.499 132.714  19.333  1.00  0.00    -0.210 N 
HETATM    7  N3  LIG X 999      42.633 132.620  20.647  1.00  0.00    -0.162 NA
HETATM    8  H20 LIG X 999      41.858 133.391  18.861  1.00  0.00     0.211 HD
ENDROOT
BRANCH   4   9
HETATM    9  C10 LIG X 999      44.557 131.141  16.614  1.00  0.00     0.035 A 
HETATM   10  C11 LIG X 999      45.341 130.182  17.277  1.00  0.00     0.018 A 
HETATM   11  C12 LIG X 999      46.468 129.635  16.660  1.00  0.00     0.013 A 
HETATM   12  C13 LIG X 999      46.825 130.030  15.364  1.00  0.00    -0.026 A 
HETATM   13  C14 LIG X 999      47.956 129.488  14.735  1.00  0.00     0.012 A 
HETATM   14  C18 LIG X 999      46.031 130.981  14.678  1.00  0.00    -0.025 A 
HETATM   15  C15 LIG X 999      48.298 129.886  13.439  1.00  0.00     0.001 A 
HETATM   16  C16 LIG X 999      47.514 130.824  12.762  1.00  0.00     0.001 A 
HETATM   17  C17 LIG X 999      46.384 131.372  13.377  1.00  0.00     0.012 A 
HETATM   18  C19 LIG X 999      44.900 131.523  15.305  1.00  0.00     0.029 A 
ENDBRANCH   4   9
BRANCH   1  19
HETATM   19  C6  LIG X 999      44.046 131.230  22.209  1.00  0.00     0.094 C 
BRANCH  19  20
HETATM   20  C4  LIG X 999      43.455 129.890  22.680  1.00  0.00     0.123 C 
HETATM   21  C5  LIG X 999      44.553 128.852  22.949  1.00  0.00     0.040 C 
BRANCH  20  22
HETATM   22  O1  LIG X 999      42.700 130.103  23.863  1.00  0.00    -0.382 OA
BRANCH  22  23
HETATM   23  C3  LIG X 999      42.393 128.879  24.495  1.00  0.00     0.194 C 
BRANCH  23  24
HETATM   24  C2  LIG X 999      41.140 128.315  23.898  1.00  0.00    -0.011 C 
HETATM   25  C1  LIG X 999      40.940 126.996  23.816  1.00  0.00     0.009 C 
ENDBRANCH  23  24
ENDBRANCH  22  23
ENDBRANCH  20  22
ENDBRANCH  19  20
ENDBRANCH   1  19
TORSDOF 6
