MODEL 1
REMARK VINA RESULT:      -7.2      0.000      0.000
REMARK  4 active torsions:
REMARK  status: ('A' for Active; 'I' for Inactive)
REMARK    1  A    between atoms: C2_2  and  C3_3 
REMARK    2  A    between atoms: C3_3  and  C5_5 
REMARK       I    between atoms: C5_5  and  N1_7 
REMARK    3  A    between atoms: N1_7  and  C6_8 
REMARK    4  A    between atoms: C7_9  and  O2_10 
ROOT
HETATM    1  C6  LIG X 999      44.399 131.645  17.332  1.00  0.00     0.104 A 
HETATM    2  C7  LIG X 999      43.089 131.941  16.898  1.00  0.00     0.098 A 
HETATM    3  C9  LIG X 999      42.055 132.060  17.845  1.00  0.00     0.040 A 
HETATM    4  C10 LIG X 999      42.306 131.854  19.201  1.00  0.00     0.015 A 
HETATM    5  C11 LIG X 999      43.591 131.517  19.639  1.00  0.00    -0.024 A 
HETATM    6  C12 LIG X 999      43.836 131.293  21.003  1.00  0.00     0.012 A 
HETATM    7  C13 LIG X 999      45.118 130.956  21.441  1.00  0.00     0.001 A 
HETATM    8  C14 LIG X 999      46.164 130.843  20.525  1.00  0.00     0.001 A 
HETATM    9  C15 LIG X 999      45.937 131.066  19.165  1.00  0.00     0.014 A 
HETATM   10  C16 LIG X 999      44.648 131.403  18.702  1.00  0.00     0.006 A 
ENDROOT
BRANCH   1  11
HETATM   11  N1  LIG X 999      45.474 131.521  16.386  1.00  0.00    -0.210 NA
HETATM   12  C5  LIG X 999      46.013 130.285  15.901  1.00  0.00     0.247 C 
HETATM   13  O1  LIG X 999      45.409 129.198  16.114  1.00  0.00    -0.271 OA
BRANCH  12  14
HETATM   14  C3  LIG X 999      47.271 130.287  15.073  1.00  0.00     0.076 C 
HETATM   15  C4  LIG X 999      47.416 128.945  14.349  1.00  0.00     0.020 C 
BRANCH  14  16
HETATM   16  C2  LIG X 999      47.281 131.453  14.064  1.00  0.00     0.009 C 
HETATM   17  C1  LIG X 999      47.715 131.008  12.667  1.00  0.00     0.006 C 
ENDBRANCH  14  16
ENDBRANCH  12  14
ENDBRANCH   1  11
BRANCH   2  18
HETATM   18  O2  LIG X 999      42.841 132.080  15.523  1.00  0.00    -0.354 OA
HETATM   19  C8  LIG X 999      43.559 131.403  14.495  1.00  0.00     0.210 C 
ENDBRANCH   2  18
TORSDOF 4
ENDMDL
MODEL 2
REMARK VINA RESULT:      -6.1      1.558      5.483
REMARK  4 active torsions:
REMARK  status: ('A' for Active; 'I' for Inactive)
REMARK    1  A    between atoms: C2_2  and  C3_3 
REMARK    2  A    between atoms: C3_3  and  C5_5 
REMARK       I    between atoms: C5_5  and  N1_7 
REMARK    3  A    between atoms: N1_7  and  C6_8 
REMARK    4  A    between atoms: C7_9  and  O2_10 
ROOT
HETATM    1  C6  LIG X 999      44.787 130.964  16.948  1.00  0.00     0.104 A 
HETATM    2  C7  LIG X 999      43.582 131.660  16.708  1.00  0.00     0.098 A 
HETATM    3  C9  LIG X 999      43.217 131.980  15.387  1.00  0.00     0.040 A 
HETATM    4  C10 LIG X 999      44.050 131.647  14.320  1.00  0.00     0.015 A 
HETATM    5  C11 LIG X 999      45.267 130.997  14.548  1.00  0.00    -0.024 A 
HETATM    6  C12 LIG X 999      46.111 130.680  13.471  1.00  0.00     0.012 A 
HETATM    7  C13 LIG X 999      47.326 130.031  13.699  1.00  0.00     0.001 A 
HETATM    8  C14 LIG X 999      47.707 129.691  14.997  1.00  0.00     0.001 A 
HETATM    9  C15 LIG X 999      46.877 129.997  16.078  1.00  0.00     0.014 A 
HETATM   10  C16 LIG X 999      45.647 130.656  15.870  1.00  0.00     0.006 A 
ENDROOT
BRANCH   1  11
HETATM   11  N1  LIG X 999      45.181 130.622  18.287  1.00  0.00    -0.210 NA
HETATM   12  C5  LIG X 999      45.385 131.557  19.355  1.00  0.00     0.247 C 
HETATM   13  O1  LIG X 999      45.002 132.753  19.238  1.00  0.00    -0.271 OA
BRANCH  12  14
HETATM   14  C3  LIG X 999      45.996 131.094  20.651  1.00  0.00     0.076 C 
HETATM   15  C4  LIG X 999      46.482 132.304  21.455  1.00  0.00     0.020 C 
BRANCH  14  16
HETATM   16  C2  LIG X 999      45.000 130.256  21.478  1.00  0.00     0.009 C 
HETATM   17  C1  LIG X 999      43.783 131.069  21.919  1.00  0.00     0.006 C 
ENDBRANCH  14  16
ENDBRANCH  12  14
ENDBRANCH   1  11
BRANCH   2  18
HETATM   18  O2  LIG X 999      42.788 132.045  17.800  1.00  0.00    -0.354 OA
HETATM   19  C8  LIG X 999      41.802 131.224  18.418  1.00  0.00     0.210 C 
ENDBRANCH   2  18
TORSDOF 4
ENDMDL
MODEL 3
REMARK VINA RESULT:      -6.1      4.259      6.337
REMARK  4 active torsions:
REMARK  status: ('A' for Active; 'I' for Inactive)
REMARK    1  A    between atoms: C2_2  and  C3_3 
REMARK    2  A    between atoms: C3_3  and  C5_5 
REMARK       I    between atoms: C5_5  and  N1_7 
REMARK    3  A    between atoms: N1_7  and  C6_8 
REMARK    4  A    between atoms: C7_9  and  O2_10 
ROOT
HETATM    1  C6  LIG X 999      43.807 129.581  22.979  1.00  0.00     0.104 A 
HETATM    2  C7  LIG X 999      42.747 130.031  23.795  1.00  0.00     0.098 A 
HETATM    3  C9  LIG X 999      42.073 129.116  24.625  1.00  0.00     0.040 A 
HETATM    4  C10 LIG X 999      42.420 127.766  24.622  1.00  0.00     0.015 A 
HETATM    5  C11 LIG X 999      43.439 127.299  23.786  1.00  0.00    -0.024 A 
HETATM    6  C12 LIG X 999      43.773 125.935  23.773  1.00  0.00     0.012 A 
HETATM    7  C13 LIG X 999      44.790 125.469  22.939  1.00  0.00     0.001 A 
HETATM    8  C14 LIG X 999      45.483 126.356  22.115  1.00  0.00     0.001 A 
HETATM    9  C15 LIG X 999      45.164 127.716  22.118  1.00  0.00     0.014 A 
HETATM   10  C16 LIG X 999      44.137 128.207  22.951  1.00  0.00     0.006 A 
ENDROOT
BRANCH   1  11
HETATM   11  N1  LIG X 999      44.514 130.495  22.125  1.00  0.00    -0.210 NA
HETATM   12  C5  LIG X 999      43.984 131.098  20.938  1.00  0.00     0.247 C 
HETATM   13  O1  LIG X 999      42.750 131.033  20.686  1.00  0.00    -0.271 OA
BRANCH  12  14
HETATM   14  C3  LIG X 999      44.891 131.874  20.020  1.00  0.00     0.076 C 
HETATM   15  C4  LIG X 999      46.329 131.365  20.162  1.00  0.00     0.020 C 
BRANCH  14  16
HETATM   16  C2  LIG X 999      44.425 131.782  18.553  1.00  0.00     0.009 C 
HETATM   17  C1  LIG X 999      45.452 131.088  17.659  1.00  0.00     0.006 C 
ENDBRANCH  14  16
ENDBRANCH  12  14
ENDBRANCH   1  11
BRANCH   2  18
HETATM   18  O2  LIG X 999      42.368 131.382  23.735  1.00  0.00    -0.354 OA
HETATM   19  C8  LIG X 999      42.949 132.425  24.512  1.00  0.00     0.210 C 
ENDBRANCH   2  18
TORSDOF 4
ENDMDL
MODEL 4
REMARK VINA RESULT:      -5.9      7.528     10.158
REMARK  4 active torsions:
REMARK  status: ('A' for Active; 'I' for Inactive)
REMARK    1  A    between atoms: C2_2  and  C3_3 
REMARK    2  A    between atoms: C3_3  and  C5_5 
REMARK       I    between atoms: C5_5  and  N1_7 
REMARK    3  A    between atoms: N1_7  and  C6_8 
REMARK    4  A    between atoms: C7_9  and  O2_10 
ROOT
HETATM    1  C6  LIG X 999      43.616 125.637  23.442  1.00  0.00     0.104 A 
HETATM    2  C7  LIG X 999      43.717 127.042  23.351  1.00  0.00     0.098 A 
HETATM    3  C9  LIG X 999      44.857 127.620  22.763  1.00  0.00     0.040 A 
HETATM    4  C10 LIG X 999      45.901 126.820  22.301  1.00  0.00     0.015 A 
HETATM    5  C11 LIG X 999      45.833 125.429  22.424  1.00  0.00    -0.024 A 
HETATM    6  C12 LIG X 999      46.895 124.627  21.974  1.00  0.00     0.012 A 
HETATM    7  C13 LIG X 999      46.828 123.238  22.097  1.00  0.00     0.001 A 
HETATM    8  C14 LIG X 999      45.704 122.638  22.666  1.00  0.00     0.001 A 
HETATM    9  C15 LIG X 999      44.639 123.422  23.116  1.00  0.00     0.014 A 
HETATM   10  C16 LIG X 999      44.689 124.827  23.004  1.00  0.00     0.006 A 
ENDROOT
BRANCH   1  11
HETATM   11  N1  LIG X 999      42.462 125.021  24.035  1.00  0.00    -0.210 NA
HETATM   12  C5  LIG X 999      41.281 124.621  23.328  1.00  0.00     0.247 C 
HETATM   13  O1  LIG X 999      41.275 124.581  22.067  1.00  0.00    -0.271 OA
BRANCH  12  14
HETATM   14  C3  LIG X 999      40.062 124.178  24.092  1.00  0.00     0.076 C 
HETATM   15  C4  LIG X 999      38.961 125.237  23.970  1.00  0.00     0.020 C 
BRANCH  14  16
HETATM   16  C2  LIG X 999      39.554 122.807  23.602  1.00  0.00     0.009 C 
HETATM   17  C1  LIG X 999      38.271 122.375  24.312  1.00  0.00     0.006 C 
ENDBRANCH  14  16
ENDBRANCH  12  14
ENDBRANCH   1  11
BRANCH   2  18
HETATM   18  O2  LIG X 999      42.686 127.834  23.882  1.00  0.00    -0.354 OA
HETATM   19  C8  LIG X 999      42.525 129.229  23.639  1.00  0.00     0.210 C 
ENDBRANCH   2  18
TORSDOF 4
ENDMDL
MODEL 5
REMARK VINA RESULT:      -5.9      2.847      4.417
REMARK  4 active torsions:
REMARK  status: ('A' for Active; 'I' for Inactive)
REMARK    1  A    between atoms: C2_2  and  C3_3 
REMARK    2  A    between atoms: C3_3  and  C5_5 
REMARK       I    between atoms: C5_5  and  N1_7 
REMARK    3  A    between atoms: N1_7  and  C6_8 
REMARK    4  A    between atoms: C7_9  and  O2_10 
ROOT
HETATM    1  C6  LIG X 999      43.632 130.938  21.347  1.00  0.00     0.104 A 
HETATM    2  C7  LIG X 999      42.754 131.987  21.700  1.00  0.00     0.098 A 
HETATM    3  C9  LIG X 999      42.320 132.110  23.032  1.00  0.00     0.040 A 
HETATM    4  C10 LIG X 999      42.720 131.187  23.998  1.00  0.00     0.015 A 
HETATM    5  C11 LIG X 999      43.554 130.119  23.653  1.00  0.00    -0.024 A 
HETATM    6  C12 LIG X 999      43.940 129.181  24.625  1.00  0.00     0.012 A 
HETATM    7  C13 LIG X 999      44.772 128.115  24.280  1.00  0.00     0.001 A 
HETATM    8  C14 LIG X 999      45.227 127.975  22.969  1.00  0.00     0.001 A 
HETATM    9  C15 LIG X 999      44.854 128.901  21.992  1.00  0.00     0.014 A 
HETATM   10  C16 LIG X 999      44.011 129.984  22.318  1.00  0.00     0.006 A 
ENDROOT
BRANCH   1  11
HETATM   11  N1  LIG X 999      44.093 130.792  19.994  1.00  0.00    -0.210 NA
HETATM   12  C5  LIG X 999      45.022 131.663  19.337  1.00  0.00     0.247 C 
HETATM   13  O1  LIG X 999      45.682 132.509  20.000  1.00  0.00    -0.271 OA
BRANCH  12  14
HETATM   14  C3  LIG X 999      45.266 131.522  17.858  1.00  0.00     0.076 C 
HETATM   15  C4  LIG X 999      45.901 130.160  17.565  1.00  0.00     0.020 C 
BRANCH  14  16
HETATM   16  C2  LIG X 999      43.963 131.699  17.051  1.00  0.00     0.009 C 
HETATM   17  C1  LIG X 999      44.141 131.342  15.575  1.00  0.00     0.006 C 
ENDBRANCH  14  16
ENDBRANCH  12  14
ENDBRANCH   1  11
BRANCH   2  18
HETATM   18  O2  LIG X 999      42.309 132.867  20.700  1.00  0.00    -0.354 OA
HETATM   19  C8  LIG X 999      41.570 132.480  19.546  1.00  0.00     0.210 C 
ENDBRANCH   2  18
TORSDOF 4
ENDMDL
MODEL 6
REMARK VINA RESULT:      -5.7      2.482      3.917
REMARK  4 active torsions:
REMARK  status: ('A' for Active; 'I' for Inactive)
REMARK    1  A    between atoms: C2_2  and  C3_3 
REMARK    2  A    between atoms: C3_3  and  C5_5 
REMARK       I    between atoms: C5_5  and  N1_7 
REMARK    3  A    between atoms: N1_7  and  C6_8 
REMARK    4  A    between atoms: C7_9  and  O2_10 
ROOT
HETATM    1  C6  LIG X 999      44.299 131.017  20.898  1.00  0.00     0.104 A 
HETATM    2  C7  LIG X 999      43.275 131.878  21.350  1.00  0.00     0.098 A 
HETATM    3  C9  LIG X 999      42.604 131.588  22.552  1.00  0.00     0.040 A 
HETATM    4  C10 LIG X 999      42.917 130.442  23.282  1.00  0.00     0.015 A 
HETATM    5  C11 LIG X 999      43.899 129.558  22.823  1.00  0.00    -0.024 A 
HETATM    6  C12 LIG X 999      44.199 128.395  23.551  1.00  0.00     0.012 A 
HETATM    7  C13 LIG X 999      45.179 127.512  23.093  1.00  0.00     0.001 A 
HETATM    8  C14 LIG X 999      45.867 127.781  21.910  1.00  0.00     0.001 A 
HETATM    9  C15 LIG X 999      45.582 128.935  21.176  1.00  0.00     0.014 A 
HETATM   10  C16 LIG X 999      44.594 129.838  21.619  1.00  0.00     0.006 A 
ENDROOT
BRANCH   1  11
HETATM   11  N1  LIG X 999      45.001 131.292  19.675  1.00  0.00    -0.210 NA
HETATM   12  C5  LIG X 999      44.414 131.306  18.367  1.00  0.00     0.247 C 
HETATM   13  O1  LIG X 999      43.161 131.297  18.231  1.00  0.00    -0.271 OA
BRANCH  12  14
HETATM   14  C3  LIG X 999      45.295 131.404  17.150  1.00  0.00     0.076 C 
HETATM   15  C4  LIG X 999      46.137 130.131  17.018  1.00  0.00     0.020 C 
BRANCH  14  16
HETATM   16  C2  LIG X 999      44.468 131.644  15.871  1.00  0.00     0.009 C 
HETATM   17  C1  LIG X 999      45.248 131.301  14.602  1.00  0.00     0.006 C 
ENDBRANCH  14  16
ENDBRANCH  12  14
ENDBRANCH   1  11
BRANCH   2  18
HETATM   18  O2  LIG X 999      42.928 132.992  20.568  1.00  0.00    -0.354 OA
HETATM   19  C8  LIG X 999      41.596 133.354  20.214  1.00  0.00     0.210 C 
ENDBRANCH   2  18
TORSDOF 4
ENDMDL
MODEL 7
REMARK VINA RESULT:      -5.7      3.009      6.376
REMARK  4 active torsions:
REMARK  status: ('A' for Active; 'I' for Inactive)
REMARK    1  A    between atoms: C2_2  and  C3_3 
REMARK    2  A    between atoms: C3_3  and  C5_5 
REMARK       I    between atoms: C5_5  and  N1_7 
REMARK    3  A    between atoms: N1_7  and  C6_8 
REMARK    4  A    between atoms: C7_9  and  O2_10 
ROOT
HETATM    1  C6  LIG X 999      43.683 131.659  20.089  1.00  0.00     0.104 A 
HETATM    2  C7  LIG X 999      42.434 132.317  20.066  1.00  0.00     0.098 A 
HETATM    3  C9  LIG X 999      41.793 132.548  18.834  1.00  0.00     0.040 A 
HETATM    4  C10 LIG X 999      42.397 132.165  17.637  1.00  0.00     0.015 A 
HETATM    5  C11 LIG X 999      43.654 131.552  17.643  1.00  0.00    -0.024 A 
HETATM    6  C12 LIG X 999      44.267 131.184  16.434  1.00  0.00     0.012 A 
HETATM    7  C13 LIG X 999      45.522 130.573  16.440  1.00  0.00     0.001 A 
HETATM    8  C14 LIG X 999      46.174 130.321  17.648  1.00  0.00     0.001 A 
HETATM    9  C15 LIG X 999      45.576 130.678  18.859  1.00  0.00     0.014 A 
HETATM   10  C16 LIG X 999      44.310 131.301  18.874  1.00  0.00     0.006 A 
ENDROOT
BRANCH   1  11
HETATM   11  N1  LIG X 999      44.356 131.408  21.333  1.00  0.00    -0.210 NA
HETATM   12  C5  LIG X 999      43.805 130.685  22.442  1.00  0.00     0.247 C 
HETATM   13  O1  LIG X 999      42.746 130.014  22.304  1.00  0.00    -0.271 OA
BRANCH  12  14
HETATM   14  C3  LIG X 999      44.529 130.668  23.762  1.00  0.00     0.076 C 
HETATM   15  C4  LIG X 999      44.179 131.928  24.561  1.00  0.00     0.020 C 
BRANCH  14  16
HETATM   16  C2  LIG X 999      44.197 129.400  24.573  1.00  0.00     0.009 C 
HETATM   17  C1  LIG X 999      44.897 128.158  24.022  1.00  0.00     0.006 C 
ENDBRANCH  14  16
ENDBRANCH  12  14
ENDBRANCH   1  11
BRANCH   2  18
HETATM   18  O2  LIG X 999      41.872 132.754  21.276  1.00  0.00    -0.354 OA
HETATM   19  C8  LIG X 999      40.711 133.573  21.385  1.00  0.00     0.210 C 
ENDBRANCH   2  18
TORSDOF 4
ENDMDL
MODEL 8
REMARK VINA RESULT:      -5.4      5.451      7.431
REMARK  4 active torsions:
REMARK  status: ('A' for Active; 'I' for Inactive)
REMARK    1  A    between atoms: C2_2  and  C3_3 
REMARK    2  A    between atoms: C3_3  and  C5_5 
REMARK       I    between atoms: C5_5  and  N1_7 
REMARK    3  A    between atoms: N1_7  and  C6_8 
REMARK    4  A    between atoms: C7_9  and  O2_10 
ROOT
HETATM    1  C6  LIG X 999      44.014 128.264  22.884  1.00  0.00     0.104 A 
HETATM    2  C7  LIG X 999      42.990 128.431  23.841  1.00  0.00     0.098 A 
HETATM    3  C9  LIG X 999      42.400 129.697  24.013  1.00  0.00     0.040 A 
HETATM    4  C10 LIG X 999      42.841 130.792  23.272  1.00  0.00     0.015 A 
HETATM    5  C11 LIG X 999      43.883 130.650  22.352  1.00  0.00    -0.024 A 
HETATM    6  C12 LIG X 999      44.337 131.761  21.621  1.00  0.00     0.012 A 
HETATM    7  C13 LIG X 999      45.378 131.619  20.702  1.00  0.00     0.001 A 
HETATM    8  C14 LIG X 999      45.974 130.373  20.503  1.00  0.00     0.001 A 
HETATM    9  C15 LIG X 999      45.532 129.259  21.221  1.00  0.00     0.014 A 
HETATM   10  C16 LIG X 999      44.484 129.381  22.156  1.00  0.00     0.006 A 
ENDROOT
BRANCH   1  11
HETATM   11  N1  LIG X 999      44.631 126.981  22.686  1.00  0.00    -0.210 NA
HETATM   12  C5  LIG X 999      45.661 126.422  23.511  1.00  0.00     0.247 C 
HETATM   13  O1  LIG X 999      45.940 126.943  24.625  1.00  0.00    -0.271 OA
BRANCH  12  14
HETATM   14  C3  LIG X 999      46.367 125.164  23.079  1.00  0.00     0.076 C 
HETATM   15  C4  LIG X 999      45.353 124.172  22.502  1.00  0.00     0.020 C 
BRANCH  14  16
HETATM   16  C2  LIG X 999      47.479 125.464  22.053  1.00  0.00     0.009 C 
HETATM   17  C1  LIG X 999      48.111 124.190  21.493  1.00  0.00     0.006 C 
ENDBRANCH  14  16
ENDBRANCH  12  14
ENDBRANCH   1  11
BRANCH   2  18
HETATM   18  O2  LIG X 999      42.604 127.331  24.625  1.00  0.00    -0.354 OA
HETATM   19  C8  LIG X 999      41.616 126.375  24.254  1.00  0.00     0.210 C 
ENDBRANCH   2  18
TORSDOF 4
ENDMDL
MODEL 9
REMARK VINA RESULT:      -5.2      7.674     10.116
REMARK  4 active torsions:
REMARK  status: ('A' for Active; 'I' for Inactive)
REMARK    1  A    between atoms: C2_2  and  C3_3 
REMARK    2  A    between atoms: C3_3  and  C5_5 
REMARK       I    between atoms: C5_5  and  N1_7 
REMARK    3  A    between atoms: N1_7  and  C6_8 
REMARK    4  A    between atoms: C7_9  and  O2_10 
ROOT
HETATM    1  C6  LIG X 999      42.544 124.762  23.482  1.00  0.00     0.104 A 
HETATM    2  C7  LIG X 999      43.513 124.144  22.663  1.00  0.00     0.098 A 
HETATM    3  C9  LIG X 999      43.184 122.970  21.961  1.00  0.00     0.040 A 
HETATM    4  C10 LIG X 999      41.922 122.393  22.096  1.00  0.00     0.015 A 
HETATM    5  C11 LIG X 999      40.966 122.970  22.939  1.00  0.00    -0.024 A 
HETATM    6  C12 LIG X 999      39.702 122.375  23.086  1.00  0.00     0.012 A 
HETATM    7  C13 LIG X 999      38.749 122.951  23.927  1.00  0.00     0.001 A 
HETATM    8  C14 LIG X 999      39.045 124.122  24.625  1.00  0.00     0.001 A 
HETATM    9  C15 LIG X 999      40.297 124.727  24.487  1.00  0.00     0.014 A 
HETATM   10  C16 LIG X 999      41.275 124.159  23.645  1.00  0.00     0.006 A 
ENDROOT
BRANCH   1  11
HETATM   11  N1  LIG X 999      42.853 125.964  24.206  1.00  0.00    -0.210 NA
HETATM   12  C5  LIG X 999      42.357 127.271  23.892  1.00  0.00     0.247 C 
HETATM   13  O1  LIG X 999      41.412 127.414  23.069  1.00  0.00    -0.271 OA
BRANCH  12  14
HETATM   14  C3  LIG X 999      42.918 128.477  24.599  1.00  0.00     0.076 C 
HETATM   15  C4  LIG X 999      44.448 128.407  24.606  1.00  0.00     0.020 C 
BRANCH  14  16
HETATM   16  C2  LIG X 999      42.437 129.789  23.947  1.00  0.00     0.009 C 
HETATM   17  C1  LIG X 999      43.394 130.284  22.863  1.00  0.00     0.006 C 
ENDBRANCH  14  16
ENDBRANCH  12  14
ENDBRANCH   1  11
BRANCH   2  18
HETATM   18  O2  LIG X 999      44.800 124.703  22.591  1.00  0.00    -0.354 OA
HETATM   19  C8  LIG X 999      45.996 123.963  22.367  1.00  0.00     0.210 C 
ENDBRANCH   2  18
TORSDOF 4
ENDMDL
