REMARK VINA RESULT:      -7.5      1.445      3.092
REMARK  4 active torsions:
REMARK  status: ('A' for Active; 'I' for Inactive)
REMARK    1  A    between atoms: C3_3  and  O1_4 
REMARK    2  A    between atoms: O1_4  and  C4_5 
REMARK    3  A    between atoms: C4_5  and  O2_6 
REMARK    4  A    between atoms: C5_8  and  C6_9 
ROOT
HETATM    1  C1  LIG X 999      41.445 133.317  20.393  1.00  0.00     0.014 C 
HETATM    2  C2  LIG X 999      42.067 132.541  21.075  1.00  0.00    -0.091 C 
HETATM    3  C3  LIG X 999      42.819 131.596  21.900  1.00  0.00     0.266 C 
ENDROOT
BRANCH   3   4
HETATM    4  O1  LIG X 999      43.404 130.626  21.063  1.00  0.00    -0.319 OA
BRANCH   4   5
HETATM    5  C4  LIG X 999      44.740 130.421  21.462  1.00  0.00     0.314 A 
HETATM    6  O3  LIG X 999      45.468 131.620  21.349  1.00  0.00    -0.312 OA
HETATM    7  C5  LIG X 999      45.860 130.566  20.495  1.00  0.00     0.254 A 
BRANCH   5   8
HETATM    8  O2  LIG X 999      44.968 129.836  22.713  1.00  0.00    -0.341 OA
HETATM    9  H4  LIG X 999      45.088 130.596  23.340  1.00  0.00     0.215 HD
ENDBRANCH   5   8
BRANCH   7  10
HETATM   10  C6  LIG X 999      45.473 130.812  19.063  1.00  0.00    -0.021 A 
HETATM   11  C7  LIG X 999      44.361 131.606  18.740  1.00  0.00     0.011 A 
HETATM   12  C8  LIG X 999      44.017 131.831  17.404  1.00  0.00     0.013 A 
HETATM   13  C9  LIG X 999      44.788 131.276  16.373  1.00  0.00    -0.026 A 
HETATM   14  C10 LIG X 999      44.449 131.491  15.028  1.00  0.00     0.012 A 
HETATM   15  C14 LIG X 999      45.925 130.494  16.692  1.00  0.00    -0.025 A 
HETATM   16  C11 LIG X 999      45.229 130.937  14.010  1.00  0.00     0.001 A 
HETATM   17  C12 LIG X 999      46.351 130.166  14.325  1.00  0.00     0.001 A 
HETATM   18  C13 LIG X 999      46.701 129.944  15.661  1.00  0.00     0.012 A 
HETATM   19  C15 LIG X 999      46.265 130.277  18.036  1.00  0.00     0.022 A 
ENDBRANCH   7  10
ENDBRANCH   4   5
ENDBRANCH   3   4
TORSDOF 4
