REMARK VINA RESULT:      -7.9      3.136      5.307
REMARK  3 active torsions:
REMARK  status: ('A' for Active; 'I' for Inactive)
REMARK    1  A    between atoms: N1_1  and  C1_2 
REMARK    2  A    between atoms: C1_2  and  C2_3 
REMARK    3  A    between atoms: C2_3  and  C3_5 
ROOT
HETATM    1  C3  LIG X 999      45.517 131.126  17.420  1.00  0.00     0.012 A 
HETATM    2  C4  LIG X 999      45.318 132.295  16.661  1.00  0.00     0.016 A 
HETATM    3  C5  LIG X 999      45.839 132.409  15.370  1.00  0.00     0.013 A 
HETATM    4  C6  LIG X 999      46.574 131.356  14.810  1.00  0.00    -0.026 A 
HETATM    5  C7  LIG X 999      47.102 131.461  13.513  1.00  0.00     0.012 A 
HETATM    6  C8  LIG X 999      47.835 130.405  12.967  1.00  0.00     0.001 A 
HETATM    7  C9  LIG X 999      48.048 129.240  13.707  1.00  0.00     0.001 A 
HETATM    8  C10 LIG X 999      47.527 129.122  14.999  1.00  0.00     0.012 A 
HETATM    9  C11 LIG X 999      46.787 130.176  15.560  1.00  0.00    -0.025 A 
HETATM   10  C12 LIG X 999      46.260 130.069  16.856  1.00  0.00     0.027 A 
ENDROOT
BRANCH   1  11
HETATM   11  C2  LIG X 999      44.952 131.030  18.793  1.00  0.00     0.187 C 
HETATM   12  O1  LIG X 999      43.799 131.489  19.020  1.00  0.00    -0.290 OA
BRANCH  11  13
HETATM   13  C1  LIG X 999      45.739 130.429  19.930  1.00  0.00     0.350 C 
BRANCH  13  14
HETATM   14  N1  LIG X 999      46.132 131.450  20.898  1.00  0.00     0.085 N 
HETATM   15  H1  LIG X 999      46.970 131.095  21.414  1.00  0.00     0.313 HD
HETATM   16  H2  LIG X 999      45.366 131.541  21.606  1.00  0.00     0.313 HD
ENDBRANCH  13  14
ENDBRANCH  11  13
ENDBRANCH   1  11
TORSDOF 3
