REMARK VINA RESULT:      -5.7      3.107      4.721
REMARK  1 active torsions:
REMARK  status: ('A' for Active; 'I' for Inactive)
REMARK    1  A    between atoms: C2_5  and  C3_6 
ROOT
HETATM    1  C3  LIG X 999      43.588 131.033  21.838  1.00  0.00     0.030 A 
HETATM    2  C4  LIG X 999      42.887 131.965  22.632  1.00  0.00     0.017 A 
HETATM    3  C5  LIG X 999      42.725 131.777  24.002  1.00  0.00     0.002 A 
HETATM    4  C6  LIG X 999      43.255 130.656  24.623  1.00  0.00     0.012 A 
HETATM    5  C7  LIG X 999      43.958 129.702  23.879  1.00  0.00    -0.025 A 
HETATM    6  C8  LIG X 999      44.484 128.577  24.535  1.00  0.00     0.012 A 
HETATM    7  C9  LIG X 999      45.188 127.611  23.822  1.00  0.00     0.001 A 
HETATM    8  C10 LIG X 999      45.376 127.756  22.452  1.00  0.00     0.001 A 
HETATM    9  C11 LIG X 999      44.861 128.869  21.780  1.00  0.00     0.013 A 
HETATM   10  C12 LIG X 999      44.139 129.872  22.472  1.00  0.00    -0.011 A 
ENDROOT
BRANCH   1  11
HETATM   11  C2  LIG X 999      43.695 131.347  20.379  1.00  0.00     0.203 A 
HETATM   12  O1  LIG X 999      44.790 131.282  19.651  1.00  0.00    -0.255 OA
HETATM   13  C1  LIG X 999      44.420 131.637  18.445  1.00  0.00     0.262 A 
HETATM   14  N1  LIG X 999      45.213 131.704  17.427  1.00  0.00    -0.260 NA
HETATM   15  N3  LIG X 999      43.114 131.925  18.400  1.00  0.00    -0.238 N 
HETATM   16  H1  LIG X 999      46.225 131.467  17.521  1.00  0.00     0.190 HD
HETATM   17  N2  LIG X 999      42.643 131.744  19.622  1.00  0.00    -0.145 NA
HETATM   18  H9  LIG X 999      42.552 132.235  17.576  1.00  0.00     0.193 HD
ENDBRANCH   1  11
TORSDOF 1
