REMARK VINA RESULT:      -5.3      2.776      3.346
REMARK  4 active torsions:
REMARK  status: ('A' for Active; 'I' for Inactive)
REMARK    1  A    between atoms: C1_1  and  C2_6 
REMARK    2  A    between atoms: N1_2  and  N2_3 
REMARK    3  A    between atoms: C2_6  and  C3_8 
REMARK    4  A    between atoms: C11_16  and  N4_17 
ROOT
HETATM    1  N4  LIG X 999      41.914 132.741  18.883  1.00  0.00    -0.105 NA
HETATM    2  N5  LIG X 999      41.425 133.232  19.902  1.00  0.00    -0.167 NA
HETATM    3  N6  LIG X 999      40.935 133.721  20.918  1.00  0.00     0.068 N 
ENDROOT
BRANCH   1   4
HETATM    4  C11 LIG X 999      42.472 131.391  18.880  1.00  0.00     0.179 C 
HETATM    5  C10 LIG X 999      43.562 131.273  19.930  1.00  0.00    -0.024 A 
HETATM    6  C5  LIG X 999      44.935 131.382  19.593  1.00  0.00    -0.049 A 
HETATM    7  C9  LIG X 999      43.196 131.123  21.279  1.00  0.00     0.010 A 
HETATM    8  C4  LIG X 999      45.401 131.426  18.155  1.00  0.00     0.051 C 
HETATM    9  C6  LIG X 999      45.902 131.322  20.610  1.00  0.00     0.007 A 
HETATM   10  C3  LIG X 999      44.291 131.852  17.181  1.00  0.00     0.068 C 
HETATM   11  C12 LIG X 999      43.001 131.066  17.475  1.00  0.00     0.048 C 
HETATM   12  C7  LIG X 999      45.520 131.179  21.944  1.00  0.00     0.001 A 
HETATM   13  C8  LIG X 999      44.170 131.077  22.279  1.00  0.00     0.001 A 
BRANCH  10  14
HETATM   14  C2  LIG X 999      44.750 131.648  15.753  1.00  0.00     0.172 C 
HETATM   15  O1  LIG X 999      43.934 131.804  14.804  1.00  0.00    -0.291 OA
BRANCH  14  16
HETATM   16  C1  LIG X 999      46.118 131.202  15.437  1.00  0.00     0.190 C 
HETATM   17  N1  LIG X 999      46.375 129.955  15.197  1.00  0.00    -0.165 NA
BRANCH  17  18
HETATM   18  N2  LIG X 999      47.670 129.514  14.888  1.00  0.00    -0.177 N 
HETATM   19  H2  LIG X 999      48.311 129.163  15.635  1.00  0.00     0.214 HD
HETATM   20  N3  LIG X 999      48.073 129.540  13.685  1.00  0.00    -0.031 N 
ENDBRANCH  17  18
ENDBRANCH  14  16
ENDBRANCH  10  14
ENDBRANCH   1   4
TORSDOF 4
