REMARK VINA RESULT:      -4.7      6.699      8.698
REMARK  1 active torsions:
REMARK  status: ('A' for Active; 'I' for Inactive)
REMARK    1  A    between atoms: N1_2  and  C1_3 
ROOT
HETATM    1  C1  LIG X 999      47.216 124.211  22.075  1.00  0.00     0.120 C 
HETATM    2  C2  LIG X 999      46.789 125.499  22.383  1.00  0.00     0.057 C 
HETATM    3  C3  LIG X 999      45.422 125.786  22.497  1.00  0.00    -0.045 C 
HETATM    4  C4  LIG X 999      45.052 127.249  22.521  1.00  0.00     0.049 C 
HETATM    5  C5  LIG X 999      44.474 124.714  22.436  1.00  0.00     0.008 C 
HETATM    6  C6  LIG X 999      43.077 124.826  22.748  1.00  0.00    -0.013 C 
HETATM    7  C7  LIG X 999      42.534 125.878  23.523  1.00  0.00     0.013 C 
HETATM    8  C8  LIG X 999      41.158 125.972  23.750  1.00  0.00     0.001 C 
HETATM    9  C9  LIG X 999      40.297 124.998  23.256  1.00  0.00     0.001 C 
HETATM   10  C10 LIG X 999      40.811 123.895  22.580  1.00  0.00     0.012 C 
HETATM   11  C11 LIG X 999      42.194 123.779  22.358  1.00  0.00    -0.025 C 
HETATM   12  C12 LIG X 999      42.698 122.603  21.802  1.00  0.00     0.014 C 
HETATM   13  C13 LIG X 999      44.068 122.420  21.674  1.00  0.00     0.031 C 
HETATM   14  C14 LIG X 999      44.961 123.450  21.992  1.00  0.00     0.045 C 
HETATM   15  N2  LIG X 999      46.301 123.230  21.850  1.00  0.00    -0.341 N 
HETATM   16  H12 LIG X 999      46.638 122.283  21.561  1.00  0.00     0.167 HD
ENDROOT
BRANCH   1  17
HETATM   17  N1  LIG X 999      48.485 123.968  21.964  1.00  0.00    -0.284 NA
HETATM   18  H1  LIG X 999      49.189 124.377  22.619  1.00  0.00     0.188 HD
ENDBRANCH   1  17
TORSDOF 1
