MODEL 1
REMARK VINA RESULT:      -8.7      0.000      0.000
REMARK  3 active torsions:
REMARK  status: ('A' for Active; 'I' for Inactive)
REMARK    1  A    between atoms: C6_6  and  C7_7 
REMARK    2  A    between atoms: C7_7  and  N1_8 
REMARK    3  A    between atoms: C8_12  and  N4_13 
ROOT
HETATM    1  N1  LIG X 999      45.021 131.820  15.169  1.00  0.00    -0.065 NA
HETATM    2  N2  LIG X 999      44.012 131.715  14.472  1.00  0.00    -0.164 NA
HETATM    3  N3  LIG X 999      43.004 131.611  13.775  1.00  0.00     0.068 N 
ENDROOT
BRANCH   1   4
HETATM    4  C7  LIG X 999      45.227 130.940  16.311  1.00  0.00     0.267 A 
HETATM    5  O1  LIG X 999      46.598 130.676  16.505  1.00  0.00    -0.314 OA
HETATM    6  C8  LIG X 999      45.802 129.596  16.068  1.00  0.00     0.349 A 
BRANCH   4   7
HETATM    7  C6  LIG X 999      44.522 131.253  17.599  1.00  0.00     0.007 A 
HETATM    8  C5  LIG X 999      45.171 131.036  18.821  1.00  0.00     0.024 A 
HETATM    9  C4  LIG X 999      44.509 131.299  20.031  1.00  0.00    -0.025 A 
HETATM   10  C3  LIG X 999      45.153 131.091  21.260  1.00  0.00     0.012 A 
HETATM   11  C11 LIG X 999      43.175 131.776  20.011  1.00  0.00    -0.026 A 
HETATM   12  C2  LIG X 999      44.483 131.356  22.458  1.00  0.00     0.001 A 
HETATM   13  C1  LIG X 999      43.168 131.829  22.437  1.00  0.00     0.001 A 
HETATM   14  C12 LIG X 999      42.513 132.039  21.220  1.00  0.00     0.012 A 
HETATM   15  C10 LIG X 999      42.529 131.979  18.783  1.00  0.00     0.013 A 
HETATM   16  C9  LIG X 999      43.197 131.714  17.585  1.00  0.00     0.013 A 
ENDBRANCH   4   7
BRANCH   6  17
HETATM   17  N4  LIG X 999      46.080 129.278  14.676  1.00  0.00    -0.077 NA
HETATM   18  N5  LIG X 999      47.227 129.354  14.235  1.00  0.00    -0.165 NA
HETATM   19  N6  LIG X 999      48.373 129.430  13.794  1.00  0.00     0.068 N 
ENDBRANCH   6  17
ENDBRANCH   1   4
TORSDOF 3
ENDMDL
MODEL 2
REMARK VINA RESULT:      -8.3      1.105      1.964
REMARK  3 active torsions:
REMARK  status: ('A' for Active; 'I' for Inactive)
REMARK    1  A    between atoms: C6_6  and  C7_7 
REMARK    2  A    between atoms: C7_7  and  N1_8 
REMARK    3  A    between atoms: C8_12  and  N4_13 
ROOT
HETATM    1  N1  LIG X 999      44.355 130.483  14.802  1.00  0.00    -0.065 NA
HETATM    2  N2  LIG X 999      43.559 131.201  14.196  1.00  0.00    -0.164 NA
HETATM    3  N3  LIG X 999      42.764 131.917  13.590  1.00  0.00     0.068 N 
ENDROOT
BRANCH   1   4
HETATM    4  C7  LIG X 999      45.340 131.066  15.703  1.00  0.00     0.267 A 
HETATM    5  O1  LIG X 999      45.770 132.325  15.236  1.00  0.00    -0.314 OA
HETATM    6  C8  LIG X 999      46.717 131.280  15.197  1.00  0.00     0.349 A 
BRANCH   4   7
HETATM    7  C6  LIG X 999      45.053 131.074  17.176  1.00  0.00     0.007 A 
HETATM    8  C5  LIG X 999      43.901 131.707  17.660  1.00  0.00     0.024 A 
HETATM    9  C4  LIG X 999      43.639 131.743  19.039  1.00  0.00    -0.025 A 
HETATM   10  C3  LIG X 999      42.484 132.369  19.532  1.00  0.00     0.012 A 
HETATM   11  C11 LIG X 999      44.552 131.145  19.942  1.00  0.00    -0.026 A 
HETATM   12  C2  LIG X 999      42.234 132.399  20.907  1.00  0.00     0.001 A 
HETATM   13  C1  LIG X 999      43.134 131.807  21.798  1.00  0.00     0.001 A 
HETATM   14  C12 LIG X 999      44.290 131.182  21.320  1.00  0.00     0.012 A 
HETATM   15  C10 LIG X 999      45.710 130.525  19.450  1.00  0.00     0.013 A 
HETATM   16  C9  LIG X 999      45.960 130.494  18.075  1.00  0.00     0.013 A 
ENDBRANCH   4   7
BRANCH   6  17
HETATM   17  N4  LIG X 999      46.954 130.848  13.828  1.00  0.00    -0.077 NA
HETATM   18  N5  LIG X 999      47.835 130.027  13.576  1.00  0.00    -0.165 NA
HETATM   19  N6  LIG X 999      48.717 129.207  13.323  1.00  0.00     0.068 N 
ENDBRANCH   6  17
ENDBRANCH   1   4
TORSDOF 3
ENDMDL
MODEL 3
REMARK VINA RESULT:      -7.8      4.409      6.627
REMARK  3 active torsions:
REMARK  status: ('A' for Active; 'I' for Inactive)
REMARK    1  A    between atoms: C6_6  and  C7_7 
REMARK    2  A    between atoms: C7_7  and  N1_8 
REMARK    3  A    between atoms: C8_12  and  N4_13 
ROOT
HETATM    1  N1  LIG X 999      45.896 131.218  20.782  1.00  0.00    -0.065 NA
HETATM    2  N2  LIG X 999      46.446 132.257  21.149  1.00  0.00    -0.164 NA
HETATM    3  N3  LIG X 999      46.995 133.294  21.516  1.00  0.00     0.068 N 
ENDROOT
BRANCH   1   4
HETATM    4  C7  LIG X 999      44.646 131.265  20.037  1.00  0.00     0.267 A 
HETATM    5  O1  LIG X 999      43.813 132.298  20.511  1.00  0.00    -0.314 OA
HETATM    6  C8  LIG X 999      43.384 130.976  20.759  1.00  0.00     0.349 A 
BRANCH   4   7
HETATM    7  C6  LIG X 999      44.699 131.222  18.537  1.00  0.00     0.007 A 
HETATM    8  C5  LIG X 999      45.809 130.659  17.893  1.00  0.00     0.024 A 
HETATM    9  C4  LIG X 999      45.880 130.640  16.491  1.00  0.00    -0.025 A 
HETATM   10  C3  LIG X 999      46.985 130.073  15.838  1.00  0.00     0.012 A 
HETATM   11  C11 LIG X 999      44.827 131.201  15.728  1.00  0.00    -0.026 A 
HETATM   12  C2  LIG X 999      47.044 130.060  14.441  1.00  0.00     0.001 A 
HETATM   13  C1  LIG X 999      46.004 130.612  13.689  1.00  0.00     0.001 A 
HETATM   14  C12 LIG X 999      44.898 131.182  14.326  1.00  0.00     0.012 A 
HETATM   15  C10 LIG X 999      43.725 131.773  16.381  1.00  0.00     0.013 A 
HETATM   16  C9  LIG X 999      43.665 131.786  17.777  1.00  0.00     0.013 A 
ENDBRANCH   4   7
BRANCH   6  17
HETATM   17  N4  LIG X 999      43.534 130.640  22.167  1.00  0.00    -0.077 NA
HETATM   18  N5  LIG X 999      42.882 131.237  23.024  1.00  0.00    -0.165 NA
HETATM   19  N6  LIG X 999      42.233 131.834  23.880  1.00  0.00     0.068 N 
ENDBRANCH   6  17
ENDBRANCH   1   4
TORSDOF 3
ENDMDL
MODEL 4
REMARK VINA RESULT:      -7.8      3.816      6.330
REMARK  3 active torsions:
REMARK  status: ('A' for Active; 'I' for Inactive)
REMARK    1  A    between atoms: C6_6  and  C7_7 
REMARK    2  A    between atoms: C7_7  and  N1_8 
REMARK    3  A    between atoms: C8_12  and  N4_13 
ROOT
HETATM    1  N1  LIG X 999      43.354 130.987  18.810  1.00  0.00    -0.065 NA
HETATM    2  N2  LIG X 999      42.699 131.979  19.134  1.00  0.00    -0.164 NA
HETATM    3  N3  LIG X 999      42.045 132.968  19.457  1.00  0.00     0.068 N 
ENDROOT
BRANCH   1   4
HETATM    4  C7  LIG X 999      44.803 131.062  18.695  1.00  0.00     0.267 A 
HETATM    5  O1  LIG X 999      45.425 130.070  19.481  1.00  0.00    -0.314 OA
HETATM    6  C8  LIG X 999      45.589 131.406  19.904  1.00  0.00     0.349 A 
BRANCH   4   7
HETATM    7  C6  LIG X 999      45.413 131.169  17.328  1.00  0.00     0.007 A 
HETATM    8  C5  LIG X 999      46.127 130.087  16.795  1.00  0.00     0.024 A 
HETATM    9  C4  LIG X 999      46.724 130.187  15.529  1.00  0.00    -0.025 A 
HETATM   10  C3  LIG X 999      47.436 129.107  14.985  1.00  0.00     0.012 A 
HETATM   11  C11 LIG X 999      46.611 131.393  14.794  1.00  0.00    -0.026 A 
HETATM   12  C2  LIG X 999      48.027 129.219  13.723  1.00  0.00     0.001 A 
HETATM   13  C1  LIG X 999      47.913 130.408  12.997  1.00  0.00     0.001 A 
HETATM   14  C12 LIG X 999      47.208 131.493  13.527  1.00  0.00     0.012 A 
HETATM   15  C10 LIG X 999      45.905 132.475  15.339  1.00  0.00     0.013 A 
HETATM   16  C9  LIG X 999      45.314 132.364  16.601  1.00  0.00     0.013 A 
ENDBRANCH   4   7
BRANCH   6  17
HETATM   17  N4  LIG X 999      44.806 131.668  21.103  1.00  0.00    -0.077 NA
HETATM   18  N5  LIG X 999      44.599 130.772  21.922  1.00  0.00    -0.165 NA
HETATM   19  N6  LIG X 999      44.392 129.877  22.739  1.00  0.00     0.068 N 
ENDBRANCH   6  17
ENDBRANCH   1   4
TORSDOF 3
ENDMDL
MODEL 5
REMARK VINA RESULT:      -7.1      4.519      6.647
REMARK  3 active torsions:
REMARK  status: ('A' for Active; 'I' for Inactive)
REMARK    1  A    between atoms: C6_6  and  C7_7 
REMARK    2  A    between atoms: C7_7  and  N1_8 
REMARK    3  A    between atoms: C8_12  and  N4_13 
ROOT
HETATM    1  N1  LIG X 999      45.722 130.274  20.917  1.00  0.00    -0.065 NA
HETATM    2  N2  LIG X 999      45.537 129.129  21.329  1.00  0.00    -0.164 NA
HETATM    3  N3  LIG X 999      45.352 127.984  21.740  1.00  0.00     0.068 N 
ENDROOT
BRANCH   1   4
HETATM    4  C7  LIG X 999      44.660 130.996  20.232  1.00  0.00     0.267 A 
HETATM    5  O1  LIG X 999      44.450 132.262  20.816  1.00  0.00    -0.314 OA
HETATM    6  C8  LIG X 999      43.422 131.310  20.985  1.00  0.00     0.349 A 
BRANCH   4   7
HETATM    7  C6  LIG X 999      44.683 131.060  18.732  1.00  0.00     0.007 A 
HETATM    8  C5  LIG X 999      45.761 130.510  18.026  1.00  0.00     0.024 A 
HETATM    9  C4  LIG X 999      45.805 130.589  16.625  1.00  0.00    -0.025 A 
HETATM   10  C3  LIG X 999      46.877 130.036  15.910  1.00  0.00     0.012 A 
HETATM   11  C11 LIG X 999      44.757 131.238  15.927  1.00  0.00    -0.026 A 
HETATM   12  C2  LIG X 999      46.909 130.122  14.514  1.00  0.00     0.001 A 
HETATM   13  C1  LIG X 999      45.874 130.761  13.826  1.00  0.00     0.001 A 
HETATM   14  C12 LIG X 999      44.800 131.318  14.526  1.00  0.00     0.012 A 
HETATM   15  C10 LIG X 999      43.687 131.796  16.642  1.00  0.00     0.013 A 
HETATM   16  C9  LIG X 999      43.654 131.711  18.036  1.00  0.00     0.013 A 
ENDBRANCH   4   7
BRANCH   6  17
HETATM   17  N4  LIG X 999      43.386 130.826  22.357  1.00  0.00    -0.077 NA
HETATM   18  N5  LIG X 999      43.421 131.617  23.299  1.00  0.00    -0.165 NA
HETATM   19  N6  LIG X 999      43.456 132.407  24.241  1.00  0.00     0.068 N 
ENDBRANCH   6  17
ENDBRANCH   1   4
TORSDOF 3
ENDMDL
MODEL 6
REMARK VINA RESULT:      -6.9      3.783      6.669
REMARK  3 active torsions:
REMARK  status: ('A' for Active; 'I' for Inactive)
REMARK    1  A    between atoms: C6_6  and  C7_7 
REMARK    2  A    between atoms: C7_7  and  N1_8 
REMARK    3  A    between atoms: C8_12  and  N4_13 
ROOT
HETATM    1  N1  LIG X 999      45.280 130.576  19.446  1.00  0.00    -0.065 NA
HETATM    2  N2  LIG X 999      46.005 131.171  20.243  1.00  0.00    -0.164 NA
HETATM    3  N3  LIG X 999      46.730 131.764  21.041  1.00  0.00     0.068 N 
ENDROOT
BRANCH   1   4
HETATM    4  C7  LIG X 999      44.674 131.284  18.327  1.00  0.00     0.267 A 
HETATM    5  O1  LIG X 999      44.243 132.569  18.715  1.00  0.00    -0.314 OA
HETATM    6  C8  LIG X 999      43.235 131.629  18.409  1.00  0.00     0.349 A 
BRANCH   4   7
HETATM    7  C6  LIG X 999      45.393 131.300  17.009  1.00  0.00     0.007 A 
HETATM    8  C5  LIG X 999      46.067 130.154  16.567  1.00  0.00     0.024 A 
HETATM    9  C4  LIG X 999      46.765 130.169  15.349  1.00  0.00    -0.025 A 
HETATM   10  C3  LIG X 999      47.437 129.024  14.895  1.00  0.00     0.012 A 
HETATM   11  C11 LIG X 999      46.795 131.354  14.572  1.00  0.00    -0.026 A 
HETATM   12  C2  LIG X 999      48.130 129.052  13.681  1.00  0.00     0.001 A 
HETATM   13  C1  LIG X 999      48.157 130.220  12.914  1.00  0.00     0.001 A 
HETATM   14  C12 LIG X 999      47.493 131.369  13.355  1.00  0.00     0.012 A 
HETATM   15  C10 LIG X 999      46.128 132.500  15.029  1.00  0.00     0.013 A 
HETATM   16  C9  LIG X 999      45.435 132.473  16.242  1.00  0.00     0.013 A 
ENDBRANCH   4   7
BRANCH   6  17
HETATM   17  N4  LIG X 999      42.555 131.188  19.618  1.00  0.00    -0.077 NA
HETATM   18  N5  LIG X 999      42.247 131.999  20.492  1.00  0.00    -0.165 NA
HETATM   19  N6  LIG X 999      41.940 132.808  21.366  1.00  0.00     0.068 N 
ENDBRANCH   6  17
ENDBRANCH   1   4
TORSDOF 3
ENDMDL
MODEL 7
REMARK VINA RESULT:      -6.1      1.267      2.157
REMARK  3 active torsions:
REMARK  status: ('A' for Active; 'I' for Inactive)
REMARK    1  A    between atoms: C6_6  and  C7_7 
REMARK    2  A    between atoms: C7_7  and  N1_8 
REMARK    3  A    between atoms: C8_12  and  N4_13 
ROOT
HETATM    1  N1  LIG X 999      45.215 131.953  16.385  1.00  0.00    -0.065 NA
HETATM    2  N2  LIG X 999      46.035 132.229  15.509  1.00  0.00    -0.164 NA
HETATM    3  N3  LIG X 999      46.853 132.504  14.633  1.00  0.00     0.068 N 
ENDROOT
BRANCH   1   4
HETATM    4  C7  LIG X 999      45.412 130.796  17.246  1.00  0.00     0.267 A 
HETATM    5  O1  LIG X 999      46.698 130.245  17.067  1.00  0.00    -0.314 OA
HETATM    6  C8  LIG X 999      45.609 129.471  16.611  1.00  0.00     0.349 A 
BRANCH   4   7
HETATM    7  C6  LIG X 999      45.038 130.904  18.696  1.00  0.00     0.007 A 
HETATM    8  C5  LIG X 999      43.852 131.552  19.066  1.00  0.00     0.024 A 
HETATM    9  C4  LIG X 999      43.508 131.682  20.420  1.00  0.00    -0.025 A 
HETATM   10  C3  LIG X 999      42.319 132.323  20.799  1.00  0.00     0.012 A 
HETATM   11  C11 LIG X 999      44.373 131.164  21.416  1.00  0.00    -0.026 A 
HETATM   12  C2  LIG X 999      41.988 132.447  22.151  1.00  0.00     0.001 A 
HETATM   13  C1  LIG X 999      42.840 131.934  23.133  1.00  0.00     0.001 A 
HETATM   14  C12 LIG X 999      44.029 131.294  22.771  1.00  0.00     0.012 A 
HETATM   15  C10 LIG X 999      45.564 130.527  21.038  1.00  0.00     0.013 A 
HETATM   16  C9  LIG X 999      45.896 130.403  19.687  1.00  0.00     0.013 A 
ENDBRANCH   4   7
BRANCH   6  17
HETATM   17  N4  LIG X 999      45.555 129.461  15.157  1.00  0.00    -0.077 NA
HETATM   18  N5  LIG X 999      46.586 129.350  14.495  1.00  0.00    -0.165 NA
HETATM   19  N6  LIG X 999      47.616 129.238  13.832  1.00  0.00     0.068 N 
ENDBRANCH   6  17
ENDBRANCH   1   4
TORSDOF 3
ENDMDL
MODEL 8
REMARK VINA RESULT:      -6.1      4.345      6.511
REMARK  3 active torsions:
REMARK  status: ('A' for Active; 'I' for Inactive)
REMARK    1  A    between atoms: C6_6  and  C7_7 
REMARK    2  A    between atoms: C7_7  and  N1_8 
REMARK    3  A    between atoms: C8_12  and  N4_13 
ROOT
HETATM    1  N1  LIG X 999      43.142 132.634  20.323  1.00  0.00    -0.065 NA
HETATM    2  N2  LIG X 999      42.221 132.590  19.508  1.00  0.00    -0.164 NA
HETATM    3  N3  LIG X 999      41.300 132.545  18.694  1.00  0.00     0.068 N 
ENDROOT
BRANCH   1   4
HETATM    4  C7  LIG X 999      44.165 131.598  20.342  1.00  0.00     0.267 A 
HETATM    5  O1  LIG X 999      43.746 130.487  21.102  1.00  0.00    -0.314 OA
HETATM    6  C8  LIG X 999      44.800 131.259  21.637  1.00  0.00     0.349 A 
BRANCH   4   7
HETATM    7  C6  LIG X 999      44.802 131.191  19.045  1.00  0.00     0.007 A 
HETATM    8  C5  LIG X 999      44.271 131.647  17.831  1.00  0.00     0.024 A 
HETATM    9  C4  LIG X 999      44.843 131.249  16.613  1.00  0.00    -0.025 A 
HETATM   10  C3  LIG X 999      44.321 131.706  15.394  1.00  0.00     0.012 A 
HETATM   11  C11 LIG X 999      45.957 130.373  16.615  1.00  0.00    -0.026 A 
HETATM   12  C2  LIG X 999      44.900 131.301  14.187  1.00  0.00     0.001 A 
HETATM   13  C1  LIG X 999      46.000 130.439  14.189  1.00  0.00     0.001 A 
HETATM   14  C12 LIG X 999      46.529 129.975  15.397  1.00  0.00     0.012 A 
HETATM   15  C10 LIG X 999      46.475 129.911  17.834  1.00  0.00     0.013 A 
HETATM   16  C9  LIG X 999      45.898 130.315  19.040  1.00  0.00     0.013 A 
ENDBRANCH   4   7
BRANCH   6  17
HETATM   17  N4  LIG X 999      44.342 132.036  22.779  1.00  0.00    -0.077 NA
HETATM   18  N5  LIG X 999      43.698 131.501  23.681  1.00  0.00    -0.165 NA
HETATM   19  N6  LIG X 999      43.053 130.968  24.582  1.00  0.00     0.068 N 
ENDBRANCH   6  17
ENDBRANCH   1   4
TORSDOF 3
ENDMDL
MODEL 9
REMARK VINA RESULT:      -5.9      4.444      6.317
REMARK  3 active torsions:
REMARK  status: ('A' for Active; 'I' for Inactive)
REMARK    1  A    between atoms: C6_6  and  C7_7 
REMARK    2  A    between atoms: C7_7  and  N1_8 
REMARK    3  A    between atoms: C8_12  and  N4_13 
ROOT
HETATM    1  N1  LIG X 999      43.779 131.879  20.985  1.00  0.00    -0.065 NA
HETATM    2  N2  LIG X 999      43.398 130.982  21.737  1.00  0.00    -0.164 NA
HETATM    3  N3  LIG X 999      43.018 130.087  22.490  1.00  0.00     0.068 N 
ENDROOT
BRANCH   1   4
HETATM    4  C7  LIG X 999      44.952 131.691  20.142  1.00  0.00     0.267 A 
HETATM    5  O1  LIG X 999      45.814 130.717  20.686  1.00  0.00    -0.314 OA
HETATM    6  C8  LIG X 999      46.280 132.049  20.694  1.00  0.00     0.349 A 
BRANCH   4   7
HETATM    7  C6  LIG X 999      44.756 131.514  18.664  1.00  0.00     0.007 A 
HETATM    8  C5  LIG X 999      45.818 131.066  17.868  1.00  0.00     0.024 A 
HETATM    9  C4  LIG X 999      45.652 130.924  16.481  1.00  0.00    -0.025 A 
HETATM   10  C3  LIG X 999      46.709 130.470  15.677  1.00  0.00     0.012 A 
HETATM   11  C11 LIG X 999      44.408 131.247  15.887  1.00  0.00    -0.026 A 
HETATM   12  C2  LIG X 999      46.531 130.334  14.296  1.00  0.00     0.001 A 
HETATM   13  C1  LIG X 999      45.302 130.651  13.711  1.00  0.00     0.001 A 
HETATM   14  C12 LIG X 999      44.242 131.106  14.500  1.00  0.00     0.012 A 
HETATM   15  C10 LIG X 999      43.354 131.707  16.690  1.00  0.00     0.013 A 
HETATM   16  C9  LIG X 999      43.530 131.843  18.070  1.00  0.00     0.013 A 
ENDBRANCH   4   7
BRANCH   6  17
HETATM   17  N4  LIG X 999      46.270 132.592  22.044  1.00  0.00    -0.077 NA
HETATM   18  N5  LIG X 999      47.084 133.453  22.377  1.00  0.00    -0.165 NA
HETATM   19  N6  LIG X 999      47.898 134.312  22.710  1.00  0.00     0.068 N 
ENDBRANCH   6  17
ENDBRANCH   1   4
TORSDOF 3
ENDMDL
