MODEL 1
REMARK VINA RESULT:      -7.5      0.000      0.000
REMARK  1 active torsions:
REMARK  status: ('A' for Active; 'I' for Inactive)
REMARK    1  A    between atoms: C4_4  and  N1_5 
ROOT
HETATM    1  C1  LIG X 999      45.747 129.713  20.904  1.00  0.00     0.049 C 
HETATM    2  C2  LIG X 999      44.684 130.763  21.123  1.00  0.00    -0.045 C 
HETATM    3  C3  LIG X 999      44.346 131.028  22.459  1.00  0.00     0.055 C 
HETATM    4  C4  LIG X 999      43.205 131.763  22.765  1.00  0.00     0.099 C 
HETATM    5  N2  LIG X 999      42.393 132.196  21.766  1.00  0.00    -0.342 N 
HETATM    6  C5  LIG X 999      42.702 132.004  20.451  1.00  0.00     0.045 C 
HETATM    7  C6  LIG X 999      41.787 132.412  19.473  1.00  0.00     0.031 C 
HETATM    8  C7  LIG X 999      42.061 132.232  18.125  1.00  0.00     0.014 C 
HETATM    9  C8  LIG X 999      43.304 131.742  17.718  1.00  0.00    -0.025 C 
HETATM   10  C9  LIG X 999      43.598 131.675  16.346  1.00  0.00     0.012 C 
HETATM   11  C10 LIG X 999      44.874 131.320  15.917  1.00  0.00     0.001 C 
HETATM   12  C11 LIG X 999      45.875 131.071  16.850  1.00  0.00     0.001 C 
HETATM   13  C12 LIG X 999      45.593 131.120  18.217  1.00  0.00     0.013 C 
HETATM   14  C13 LIG X 999      44.281 131.372  18.686  1.00  0.00    -0.013 C 
HETATM   15  C14 LIG X 999      43.926 131.376  20.077  1.00  0.00     0.008 C 
HETATM   16  H7  LIG X 999      41.508 132.691  22.023  1.00  0.00     0.167 HD
ENDROOT
BRANCH   4  17
HETATM   17  N1  LIG X 999      42.856 132.010  24.131  1.00  0.00    -0.385 N 
HETATM   18  H5  LIG X 999      42.229 132.805  24.389  1.00  0.00     0.157 HD
HETATM   19  H6  LIG X 999      43.218 131.394  24.892  1.00  0.00     0.157 HD
ENDBRANCH   4  17
TORSDOF 1
ENDMDL
MODEL 2
REMARK VINA RESULT:      -7.2      2.156      4.828
REMARK  1 active torsions:
REMARK  status: ('A' for Active; 'I' for Inactive)
REMARK    1  A    between atoms: C4_4  and  N1_5 
ROOT
HETATM    1  C1  LIG X 999      46.409 130.733  20.003  1.00  0.00     0.049 C 
HETATM    2  C2  LIG X 999      45.119 131.019  19.272  1.00  0.00    -0.045 C 
HETATM    3  C3  LIG X 999      45.183 130.982  17.872  1.00  0.00     0.055 C 
HETATM    4  C4  LIG X 999      44.140 131.492  17.104  1.00  0.00     0.099 C 
HETATM    5  N2  LIG X 999      43.070 132.063  17.715  1.00  0.00    -0.342 N 
HETATM    6  C5  LIG X 999      42.940 132.083  19.072  1.00  0.00     0.045 C 
HETATM    7  C6  LIG X 999      41.847 132.750  19.639  1.00  0.00     0.031 C 
HETATM    8  C7  LIG X 999      41.679 132.797  21.016  1.00  0.00     0.014 C 
HETATM    9  C8  LIG X 999      42.538 132.082  21.854  1.00  0.00    -0.025 C 
HETATM   10  C9  LIG X 999      42.280 132.054  23.235  1.00  0.00     0.012 C 
HETATM   11  C10 LIG X 999      43.037 131.242  24.076  1.00  0.00     0.001 C 
HETATM   12  C11 LIG X 999      44.026 130.423  23.542  1.00  0.00     0.001 C 
HETATM   13  C12 LIG X 999      44.303 130.451  22.173  1.00  0.00     0.013 C 
HETATM   14  C13 LIG X 999      43.626 131.344  21.307  1.00  0.00    -0.013 C 
HETATM   15  C14 LIG X 999      43.912 131.455  19.905  1.00  0.00     0.008 C 
HETATM   16  H7  LIG X 999      42.329 132.497  17.117  1.00  0.00     0.167 HD
ENDROOT
BRANCH   4  17
HETATM   17  N1  LIG X 999      44.224 131.470  15.675  1.00  0.00    -0.385 N 
HETATM   18  H5  LIG X 999      45.129 131.269  15.194  1.00  0.00     0.157 HD
HETATM   19  H6  LIG X 999      43.378 131.651  15.091  1.00  0.00     0.157 HD
ENDBRANCH   4  17
TORSDOF 1
ENDMDL
MODEL 3
REMARK VINA RESULT:      -7.1      0.942      2.757
REMARK  1 active torsions:
REMARK  status: ('A' for Active; 'I' for Inactive)
REMARK    1  A    between atoms: C4_4  and  N1_5 
ROOT
HETATM    1  C1  LIG X 999      41.776 133.218  20.267  1.00  0.00     0.049 C 
HETATM    2  C2  LIG X 999      42.649 132.183  20.935  1.00  0.00    -0.045 C 
HETATM    3  C3  LIG X 999      42.413 131.968  22.301  1.00  0.00     0.055 C 
HETATM    4  C4  LIG X 999      43.325 131.251  23.070  1.00  0.00     0.099 C 
HETATM    5  N2  LIG X 999      44.469 130.789  22.502  1.00  0.00    -0.342 N 
HETATM    6  C5  LIG X 999      44.723 130.933  21.170  1.00  0.00     0.045 C 
HETATM    7  C6  LIG X 999      45.953 130.497  20.663  1.00  0.00     0.031 C 
HETATM    8  C7  LIG X 999      46.252 130.628  19.315  1.00  0.00     0.014 C 
HETATM    9  C8  LIG X 999      45.285 131.095  18.421  1.00  0.00    -0.025 C 
HETATM   10  C9  LIG X 999      45.575 131.113  17.047  1.00  0.00     0.012 C 
HETATM   11  C10 LIG X 999      44.587 131.444  16.124  1.00  0.00     0.001 C 
HETATM   12  C11 LIG X 999      43.295 131.719  16.560  1.00  0.00     0.001 C 
HETATM   13  C12 LIG X 999      42.997 131.719  17.924  1.00  0.00     0.013 C 
HETATM   14  C13 LIG X 999      44.002 131.493  18.894  1.00  0.00    -0.013 C 
HETATM   15  C14 LIG X 999      43.762 131.540  20.309  1.00  0.00     0.008 C 
HETATM   16  H7  LIG X 999      45.169 130.309  23.114  1.00  0.00     0.167 HD
ENDROOT
BRANCH   4  17
HETATM   17  N1  LIG X 999      43.087 131.054  24.468  1.00  0.00    -0.385 N 
HETATM   18  H5  LIG X 999      43.102 131.860  25.132  1.00  0.00     0.157 HD
HETATM   19  H6  LIG X 999      42.890 130.102  24.844  1.00  0.00     0.157 HD
ENDBRANCH   4  17
TORSDOF 1
ENDMDL
MODEL 4
REMARK VINA RESULT:      -6.5      8.403      9.518
REMARK  1 active torsions:
REMARK  status: ('A' for Active; 'I' for Inactive)
REMARK    1  A    between atoms: C4_4  and  N1_5 
ROOT
HETATM    1  C1  LIG X 999      51.246 139.433  22.106  1.00  0.00     0.049 C 
HETATM    2  C2  LIG X 999      50.304 138.614  21.257  1.00  0.00    -0.045 C 
HETATM    3  C3  LIG X 999      49.634 139.307  20.238  1.00  0.00     0.055 C 
HETATM    4  C4  LIG X 999      48.553 138.726  19.581  1.00  0.00     0.099 C 
HETATM    5  N2  LIG X 999      48.121 137.493  19.955  1.00  0.00    -0.342 N 
HETATM    6  C5  LIG X 999      48.767 136.761  20.908  1.00  0.00     0.045 C 
HETATM    7  C6  LIG X 999      48.228 135.529  21.296  1.00  0.00     0.031 C 
HETATM    8  C7  LIG X 999      48.851 134.754  22.264  1.00  0.00     0.014 C 
HETATM    9  C8  LIG X 999      50.088 135.139  22.786  1.00  0.00    -0.025 C 
HETATM   10  C9  LIG X 999      50.750 134.283  23.680  1.00  0.00     0.012 C 
HETATM   11  C10 LIG X 999      52.042 134.578  24.110  1.00  0.00     0.001 C 
HETATM   12  C11 LIG X 999      52.696 135.703  23.620  1.00  0.00     0.001 C 
HETATM   13  C12 LIG X 999      52.043 136.571  22.741  1.00  0.00     0.013 C 
HETATM   14  C13 LIG X 999      50.694 136.359  22.370  1.00  0.00    -0.013 C 
HETATM   15  C14 LIG X 999      49.959 137.251  21.517  1.00  0.00     0.008 C 
HETATM   16  H7  LIG X 999      47.268 137.104  19.491  1.00  0.00     0.167 HD
ENDROOT
BRANCH   4  17
HETATM   17  N1  LIG X 999      47.861 139.449  18.559  1.00  0.00    -0.385 N 
HETATM   18  H5  LIG X 999      47.626 138.996  17.647  1.00  0.00     0.157 HD
HETATM   19  H6  LIG X 999      47.575 140.441  18.710  1.00  0.00     0.157 HD
ENDBRANCH   4  17
TORSDOF 1
ENDMDL
MODEL 5
REMARK VINA RESULT:      -6.3      2.366      5.483
REMARK  1 active torsions:
REMARK  status: ('A' for Active; 'I' for Inactive)
REMARK    1  A    between atoms: C4_4  and  N1_5 
ROOT
HETATM    1  C1  LIG X 999      41.633 131.908  18.265  1.00  0.00     0.049 C 
HETATM    2  C2  LIG X 999      43.132 131.768  18.156  1.00  0.00    -0.045 C 
HETATM    3  C3  LIG X 999      43.667 131.868  16.863  1.00  0.00     0.055 C 
HETATM    4  C4  LIG X 999      44.982 131.487  16.612  1.00  0.00     0.099 C 
HETATM    5  N2  LIG X 999      45.740 130.979  17.618  1.00  0.00    -0.342 N 
HETATM    6  C5  LIG X 999      45.281 130.905  18.900  1.00  0.00     0.045 C 
HETATM    7  C6  LIG X 999      46.088 130.306  19.875  1.00  0.00     0.031 C 
HETATM    8  C7  LIG X 999      45.657 130.206  21.191  1.00  0.00     0.014 C 
HETATM    9  C8  LIG X 999      44.458 130.804  21.586  1.00  0.00    -0.025 C 
HETATM   10  C9  LIG X 999      44.100 130.786  22.944  1.00  0.00     0.012 C 
HETATM   11  C10 LIG X 999      42.982 131.489  23.386  1.00  0.00     0.001 C 
HETATM   12  C11 LIG X 999      42.239 132.247  22.486  1.00  0.00     0.001 C 
HETATM   13  C12 LIG X 999      42.576 132.261  21.131  1.00  0.00     0.013 C 
HETATM   14  C13 LIG X 999      43.640 131.473  20.631  1.00  0.00    -0.013 C 
HETATM   15  C14 LIG X 999      43.991 131.406  19.241  1.00  0.00     0.008 C 
HETATM   16  H7  LIG X 999      46.704 130.640  17.392  1.00  0.00     0.167 HD
ENDROOT
BRANCH   4  17
HETATM   17  N1  LIG X 999      45.513 131.571  15.286  1.00  0.00    -0.385 N 
HETATM   18  H5  LIG X 999      45.391 130.785  14.609  1.00  0.00     0.157 HD
HETATM   19  H6  LIG X 999      46.027 132.423  14.972  1.00  0.00     0.157 HD
ENDBRANCH   4  17
TORSDOF 1
ENDMDL
MODEL 6
REMARK VINA RESULT:      -5.9      2.159      5.151
REMARK  1 active torsions:
REMARK  status: ('A' for Active; 'I' for Inactive)
REMARK    1  A    between atoms: C4_4  and  N1_5 
ROOT
HETATM    1  C1  LIG X 999      45.924 130.419  20.003  1.00  0.00     0.049 C 
HETATM    2  C2  LIG X 999      44.576 130.769  20.584  1.00  0.00    -0.045 C 
HETATM    3  C3  LIG X 999      43.848 131.754  19.901  1.00  0.00     0.055 C 
HETATM    4  C4  LIG X 999      42.734 132.345  20.491  1.00  0.00     0.099 C 
HETATM    5  N2  LIG X 999      42.372 131.991  21.751  1.00  0.00    -0.342 N 
HETATM    6  C5  LIG X 999      43.019 131.007  22.439  1.00  0.00     0.045 C 
HETATM    7  C6  LIG X 999      42.639 130.741  23.760  1.00  0.00     0.031 C 
HETATM    8  C7  LIG X 999      43.275 129.750  24.495  1.00  0.00     0.014 C 
HETATM    9  C8  LIG X 999      44.227 128.926  23.892  1.00  0.00    -0.025 C 
HETATM   10  C9  LIG X 999      44.772 127.860  24.625  1.00  0.00     0.012 C 
HETATM   11  C10 LIG X 999      45.620 126.943  24.008  1.00  0.00     0.001 C 
HETATM   12  C11 LIG X 999      45.895 127.058  22.650  1.00  0.00     0.001 C 
HETATM   13  C12 LIG X 999      45.371 128.122  21.912  1.00  0.00     0.013 C 
HETATM   14  C13 LIG X 999      44.595 129.131  22.531  1.00  0.00    -0.013 C 
HETATM   15  C14 LIG X 999      44.081 130.274  21.832  1.00  0.00     0.008 C 
HETATM   16  H7  LIG X 999      41.570 132.494  22.198  1.00  0.00     0.167 HD
ENDROOT
BRANCH   4  17
HETATM   17  N1  LIG X 999      42.011 133.365  19.796  1.00  0.00    -0.385 N 
HETATM   18  H5  LIG X 999      41.664 133.209  18.823  1.00  0.00     0.157 HD
HETATM   19  H6  LIG X 999      41.813 134.282  20.253  1.00  0.00     0.157 HD
ENDBRANCH   4  17
TORSDOF 1
ENDMDL
MODEL 7
REMARK VINA RESULT:      -5.5      3.413      6.166
REMARK  1 active torsions:
REMARK  status: ('A' for Active; 'I' for Inactive)
REMARK    1  A    between atoms: C4_4  and  N1_5 
ROOT
HETATM    1  C1  LIG X 999      43.080 131.317  14.378  1.00  0.00     0.049 C 
HETATM    2  C2  LIG X 999      44.489 131.220  14.914  1.00  0.00    -0.045 C 
HETATM    3  C3  LIG X 999      45.500 131.049  13.957  1.00  0.00     0.055 C 
HETATM    4  C4  LIG X 999      46.784 130.677  14.347  1.00  0.00     0.099 C 
HETATM    5  N2  LIG X 999      47.049 130.442  15.658  1.00  0.00    -0.342 N 
HETATM    6  C5  LIG X 999      46.112 130.639  16.630  1.00  0.00     0.045 C 
HETATM    7  C6  LIG X 999      46.429 130.309  17.953  1.00  0.00     0.031 C 
HETATM    8  C7  LIG X 999      45.504 130.490  18.971  1.00  0.00     0.014 C 
HETATM    9  C8  LIG X 999      44.280 131.111  18.709  1.00  0.00    -0.025 C 
HETATM   10  C9  LIG X 999      43.408 131.384  19.775  1.00  0.00     0.012 C 
HETATM   11  C10 LIG X 999      42.245 132.120  19.563  1.00  0.00     0.001 C 
HETATM   12  C11 LIG X 999      41.965 132.623  18.297  1.00  0.00     0.001 C 
HETATM   13  C12 LIG X 999      42.816 132.347  17.224  1.00  0.00     0.013 C 
HETATM   14  C13 LIG X 999      43.948 131.512  17.383  1.00  0.00    -0.013 C 
HETATM   15  C14 LIG X 999      44.822 131.149  16.303  1.00  0.00     0.008 C 
HETATM   16  H7  LIG X 999      48.003 130.101  15.919  1.00  0.00     0.167 HD
ENDROOT
BRANCH   4  17
HETATM   17  N1  LIG X 999      47.804 130.483  13.362  1.00  0.00    -0.385 N 
HETATM   18  H5  LIG X 999      48.788 130.274  13.644  1.00  0.00     0.157 HD
HETATM   19  H6  LIG X 999      47.579 130.541  12.345  1.00  0.00     0.157 HD
ENDBRANCH   4  17
TORSDOF 1
ENDMDL
MODEL 8
REMARK VINA RESULT:      -5.1      1.948      3.421
REMARK  1 active torsions:
REMARK  status: ('A' for Active; 'I' for Inactive)
REMARK    1  A    between atoms: C4_4  and  N1_5 
ROOT
HETATM    1  C1  LIG X 999      46.064 129.823  18.833  1.00  0.00     0.049 C 
HETATM    2  C2  LIG X 999      45.040 130.850  18.411  1.00  0.00    -0.045 C 
HETATM    3  C3  LIG X 999      44.263 131.403  19.439  1.00  0.00     0.055 C 
HETATM    4  C4  LIG X 999      43.121 132.141  19.141  1.00  0.00     0.099 C 
HETATM    5  N2  LIG X 999      42.736 132.295  17.848  1.00  0.00    -0.342 N 
HETATM    6  C5  LIG X 999      43.482 131.815  16.811  1.00  0.00     0.045 C 
HETATM    7  C6  LIG X 999      42.992 131.946  15.506  1.00  0.00     0.031 C 
HETATM    8  C7  LIG X 999      43.718 131.468  14.424  1.00  0.00     0.014 C 
HETATM    9  C8  LIG X 999      45.002 130.951  14.610  1.00  0.00    -0.025 C 
HETATM   10  C9  LIG X 999      45.759 130.578  13.488  1.00  0.00     0.012 C 
HETATM   11  C10 LIG X 999      47.087 130.187  13.634  1.00  0.00     0.001 C 
HETATM   12  C11 LIG X 999      47.681 130.204  14.891  1.00  0.00     0.001 C 
HETATM   13  C12 LIG X 999      46.935 130.558  16.018  1.00  0.00     0.013 C 
HETATM   14  C13 LIG X 999      45.555 130.857  15.919  1.00  0.00    -0.013 C 
HETATM   15  C14 LIG X 999      44.730 131.169  17.052  1.00  0.00     0.008 C 
HETATM   16  H7  LIG X 999      41.841 132.799  17.652  1.00  0.00     0.167 HD
ENDROOT
BRANCH   4  17
HETATM   17  N1  LIG X 999      42.322 132.684  20.197  1.00  0.00    -0.385 N 
HETATM   18  H5  LIG X 999      42.611 132.581  21.195  1.00  0.00     0.157 HD
HETATM   19  H6  LIG X 999      41.438 133.196  19.985  1.00  0.00     0.157 HD
ENDBRANCH   4  17
TORSDOF 1
ENDMDL
MODEL 9
REMARK VINA RESULT:      -5.1      6.287      7.752
REMARK  1 active torsions:
REMARK  status: ('A' for Active; 'I' for Inactive)
REMARK    1  A    between atoms: C4_4  and  N1_5 
ROOT
HETATM    1  C1  LIG X 999      44.153 125.966  23.681  1.00  0.00     0.049 C 
HETATM    2  C2  LIG X 999      42.946 126.861  23.537  1.00  0.00    -0.045 C 
HETATM    3  C3  LIG X 999      43.192 128.241  23.593  1.00  0.00     0.055 C 
HETATM    4  C4  LIG X 999      42.140 129.140  23.745  1.00  0.00     0.099 C 
HETATM    5  N2  LIG X 999      40.871 128.675  23.879  1.00  0.00    -0.342 N 
HETATM    6  C5  LIG X 999      40.575 127.347  23.785  1.00  0.00     0.045 C 
HETATM    7  C6  LIG X 999      39.256 126.930  24.003  1.00  0.00     0.031 C 
HETATM    8  C7  LIG X 999      38.913 125.588  23.921  1.00  0.00     0.014 C 
HETATM    9  C8  LIG X 999      39.856 124.644  23.508  1.00  0.00    -0.025 C 
HETATM   10  C9  LIG X 999      39.456 123.310  23.325  1.00  0.00     0.012 C 
HETATM   11  C10 LIG X 999      40.339 122.378  22.786  1.00  0.00     0.001 C 
HETATM   12  C11 LIG X 999      41.611 122.777  22.389  1.00  0.00     0.001 C 
HETATM   13  C12 LIG X 999      42.027 124.096  22.579  1.00  0.00     0.013 C 
HETATM   14  C13 LIG X 999      41.194 125.043  23.222  1.00  0.00    -0.013 C 
HETATM   15  C14 LIG X 999      41.594 126.394  23.494  1.00  0.00     0.008 C 
HETATM   16  H7  LIG X 999      40.105 129.366  24.057  1.00  0.00     0.167 HD
ENDROOT
BRANCH   4  17
HETATM   17  N1  LIG X 999      42.403 130.544  23.824  1.00  0.00    -0.385 N 
HETATM   18  H5  LIG X 999      42.629 131.096  22.967  1.00  0.00     0.157 HD
HETATM   19  H6  LIG X 999      42.367 131.041  24.742  1.00  0.00     0.157 HD
ENDBRANCH   4  17
TORSDOF 1
ENDMDL
