REMARK VINA RESULT:      -7.3      1.370      2.454
REMARK  2 active torsions:
REMARK  status: ('A' for Active; 'I' for Inactive)
REMARK    1  A    between atoms: O1_2  and  C2_3 
REMARK    2  A    between atoms: C11_12  and  N1_13 
ROOT
HETATM    1  C2  LIG X 999      44.877 131.463  16.315  1.00  0.00     0.095 A 
HETATM    2  C3  LIG X 999      43.978 131.886  17.315  1.00  0.00     0.051 A 
HETATM    3  C4  LIG X 999      44.169 131.508  18.651  1.00  0.00    -0.023 A 
HETATM    4  C5  LIG X 999      43.269 131.929  19.650  1.00  0.00     0.021 A 
HETATM    5  C6  LIG X 999      43.501 131.535  20.968  1.00  0.00    -0.024 A 
HETATM    6  C7  LIG X 999      44.565 130.753  21.302  1.00  0.00    -0.024 A 
HETATM    7  C8  LIG X 999      45.474 130.309  20.341  1.00  0.00     0.021 A 
HETATM    8  C9  LIG X 999      45.280 130.693  18.999  1.00  0.00    -0.023 A 
HETATM    9  C10 LIG X 999      46.169 130.274  18.003  1.00  0.00     0.044 A 
HETATM   10  C11 LIG X 999      45.976 130.653  16.667  1.00  0.00     0.060 A 
HETATM   11  C12 LIG X 999      44.559 130.458  22.750  1.00  0.00     0.276 C 
HETATM   12  N2  LIG X 999      43.449 131.284  23.326  1.00  0.00    -0.067 N 
HETATM   13  C13 LIG X 999      42.571 130.456  24.184  1.00  0.00     0.272 C 
HETATM   14  C14 LIG X 999      44.010 132.392  24.136  1.00  0.00     0.272 C 
HETATM   15  C15 LIG X 999      42.684 131.837  22.163  1.00  0.00     0.276 C 
ENDROOT
BRANCH  10  16
HETATM   16  N1  LIG X 999      46.903 130.211  15.669  1.00  0.00    -0.397 N 
HETATM   17  H8  LIG X 999      46.777 130.454  14.662  1.00  0.00     0.156 HD
HETATM   18  H9  LIG X 999      47.731 129.632  15.931  1.00  0.00     0.156 HD
ENDBRANCH  10  16
BRANCH   1  19
HETATM   19  O1  LIG X 999      44.708 131.826  14.969  1.00  0.00    -0.354 OA
HETATM   20  C1  LIG X 999      43.574 131.493  14.176  1.00  0.00     0.210 C 
ENDBRANCH   1  19
TORSDOF 2
