REMARK VINA RESULT:      -4.5      2.837      6.425
REMARK  4 active torsions:
REMARK  status: ('A' for Active; 'I' for Inactive)
REMARK    1  A    between atoms: O1_2  and  C1_3 
REMARK    2  A    between atoms: C1_3  and  O2_4 
REMARK    3  A    between atoms: O2_4  and  C2_5 
REMARK    4  A    between atoms: C5_8  and  N1_9 
ROOT
HETATM    1  N1  LIG X 999      44.739 131.913  20.017  1.00  0.00    -0.205 NA
HETATM    2  C6  LIG X 999      44.571 131.827  18.758  1.00  0.00     0.337 C 
HETATM    3  O3  LIG X 999      44.408 131.744  17.533  1.00  0.00    -0.260 OA
ENDROOT
BRANCH   1   4
HETATM    4  C5  LIG X 999      44.790 130.783  20.908  1.00  0.00     0.072 A 
HETATM    5  C4  LIG X 999      45.637 129.689  20.647  1.00  0.00     0.035 A 
HETATM    6  C3  LIG X 999      45.681 128.599  21.514  1.00  0.00     0.040 A 
HETATM    7  C2  LIG X 999      44.893 128.573  22.674  1.00  0.00     0.091 A 
HETATM    8  C12 LIG X 999      44.023 129.648  22.943  1.00  0.00     0.010 A 
HETATM    9  C7  LIG X 999      43.974 130.762  22.061  1.00  0.00     0.006 A 
HETATM   10  C11 LIG X 999      43.203 129.636  24.088  1.00  0.00     0.015 A 
HETATM   11  C8  LIG X 999      43.102 131.831  22.354  1.00  0.00     0.014 A 
HETATM   12  C9  LIG X 999      42.298 131.798  23.494  1.00  0.00     0.001 A 
HETATM   13  C10 LIG X 999      42.348 130.705  24.357  1.00  0.00     0.001 A 
BRANCH   7  14
HETATM   14  O2  LIG X 999      44.923 127.469  23.541  1.00  0.00    -0.273 OA
BRANCH  14  15
HETATM   15  C1  LIG X 999      44.360 126.212  23.268  1.00  0.00     0.265 C 
HETATM   16  N2  LIG X 999      45.138 125.186  23.036  1.00  0.00    -0.350 N 
HETATM   17  C13 LIG X 999      46.598 125.346  23.087  1.00  0.00     0.153 C 
HETATM   18  C14 LIG X 999      44.554 123.874  22.729  1.00  0.00     0.153 C 
BRANCH  15  19
HETATM   19  O1  LIG X 999      42.971 126.064  23.199  1.00  0.00    -0.327 OA
HETATM   20  H1  LIG X 999      42.376 126.785  22.810  1.00  0.00     0.221 HD
ENDBRANCH  15  19
ENDBRANCH  14  15
ENDBRANCH   7  14
ENDBRANCH   1   4
TORSDOF 4
