REMARK VINA RESULT:      -7.1      1.435      2.151
REMARK  4 active torsions:
REMARK  status: ('A' for Active; 'I' for Inactive)
REMARK    1  A    between atoms: C3_4  and  O1_5 
REMARK    2  A    between atoms: C3_4  and  O2_6 
REMARK    3  A    between atoms: O2_6  and  C4_7 
REMARK    4  A    between atoms: C13_16  and  N2_17 
ROOT
HETATM    1  C4  LIG X 999      44.862 131.239  18.459  1.00  0.00     0.106 A 
HETATM    2  C5  LIG X 999      43.614 131.794  18.137  1.00  0.00     0.040 A 
HETATM    3  C6  LIG X 999      42.697 132.108  19.135  1.00  0.00     0.015 A 
HETATM    4  C7  LIG X 999      43.019 131.903  20.480  1.00  0.00    -0.024 A 
HETATM    5  C8  LIG X 999      42.088 132.240  21.476  1.00  0.00     0.012 A 
HETATM    6  C9  LIG X 999      42.407 132.070  22.822  1.00  0.00     0.001 A 
HETATM    7  C10 LIG X 999      43.658 131.574  23.187  1.00  0.00     0.001 A 
HETATM    8  C11 LIG X 999      44.595 131.234  22.209  1.00  0.00     0.014 A 
HETATM    9  C12 LIG X 999      44.289 131.374  20.836  1.00  0.00     0.003 A 
HETATM   10  C13 LIG X 999      45.212 131.030  19.809  1.00  0.00     0.071 A 
ENDROOT
BRANCH   1  11
HETATM   11  O2  LIG X 999      45.789 130.917  17.456  1.00  0.00    -0.272 OA
BRANCH  11  12
HETATM   12  C3  LIG X 999      45.741 131.381  16.132  1.00  0.00     0.265 C 
HETATM   13  N1  LIG X 999      45.512 130.531  15.157  1.00  0.00    -0.350 N 
HETATM   14  C1  LIG X 999      45.435 130.972  13.758  1.00  0.00     0.153 C 
HETATM   15  C2  LIG X 999      45.331 129.105  15.471  1.00  0.00     0.153 C 
BRANCH  12  16
HETATM   16  O1  LIG X 999      45.900 132.752  15.889  1.00  0.00    -0.327 OA
HETATM   17  H7  LIG X 999      45.338 133.284  15.237  1.00  0.00     0.221 HD
ENDBRANCH  12  16
ENDBRANCH  11  12
ENDBRANCH   1  11
BRANCH  10  18
HETATM   18  N2  LIG X 999      46.492 130.444  20.106  1.00  0.00    -0.396 N 
HETATM   19  H14 LIG X 999      47.383 130.795  19.695  1.00  0.00     0.156 HD
HETATM   20  H15 LIG X 999      46.589 129.712  20.843  1.00  0.00     0.156 HD
ENDBRANCH  10  18
TORSDOF 4
