REMARK VINA RESULT:      -4.5      7.932      8.968
REMARK  2 active torsions:
REMARK  status: ('A' for Active; 'I' for Inactive)
REMARK    1  A    between atoms: C9_10  and  N2_11 
REMARK       I    between atoms: N2_11  and  C10_12 
REMARK    2  A    between atoms: C10_12  and  C11_14 
ROOT
HETATM    1  C11 LIG X 999      51.489 124.942  21.067  1.00  0.00     0.280 C 
HETATM    2 CL1  LIG X 999      52.650 123.815  21.815  1.00  0.00    -0.099 Cl
HETATM    3  C12 LIG X 999      51.336 124.616  19.647  1.00  0.00     0.089 C 
HETATM    4  N3  LIG X 999      51.215 124.360  18.525  1.00  0.00    -0.195 NA
ENDROOT
BRANCH   1   5
HETATM    5  C10 LIG X 999      50.164 124.858  21.763  1.00  0.00     0.254 C 
HETATM    6  N2  LIG X 999      49.116 124.027  21.234  1.00  0.00    -0.325 N 
HETATM    7  H12 LIG X 999      49.210 123.691  20.249  1.00  0.00     0.169 HD
HETATM    8  O1  LIG X 999      49.961 125.568  22.786  1.00  0.00    -0.270 OA
BRANCH   6   9
HETATM    9  C9  LIG X 999      47.898 123.724  21.936  1.00  0.00     0.035 A 
HETATM   10  C8  LIG X 999      47.907 122.729  22.925  1.00  0.00     0.030 A 
HETATM   11  C7  LIG X 999      46.747 122.422  23.641  1.00  0.00     0.014 A 
HETATM   12  C6  LIG X 999      45.559 123.118  23.388  1.00  0.00    -0.025 A 
HETATM   13  C5  LIG X 999      44.385 122.818  24.107  1.00  0.00     0.021 A 
HETATM   14  C14 LIG X 999      45.543 124.146  22.403  1.00  0.00    -0.023 A 
HETATM   15  C4  LIG X 999      43.225 123.542  23.825  1.00  0.00    -0.024 A 
HETATM   16  C3  LIG X 999      41.899 123.416  24.466  1.00  0.00     0.276 C 
HETATM   17  C16 LIG X 999      43.210 124.528  22.885  1.00  0.00    -0.024 A 
HETATM   18  N1  LIG X 999      40.993 124.331  23.702  1.00  0.00    -0.067 N 
HETATM   19  C1  LIG X 999      40.229 125.201  24.625  1.00  0.00     0.272 C 
HETATM   20  C2  LIG X 999      40.040 123.539  22.888  1.00  0.00     0.272 C 
HETATM   21  C17 LIG X 999      41.872 125.151  22.809  1.00  0.00     0.276 C 
HETATM   22  C15 LIG X 999      44.354 124.860  22.157  1.00  0.00     0.021 A 
HETATM   23  C13 LIG X 999      46.714 124.444  21.692  1.00  0.00     0.042 A 
ENDBRANCH   6   9
ENDBRANCH   1   5
TORSDOF 2
