REMARK VINA RESULT:      -6.1      4.234      8.269
REMARK  6 active torsions:
REMARK  status: ('A' for Active; 'I' for Inactive)
REMARK    1  A    between atoms: O1_2  and  C2_3 
REMARK    2  A    between atoms: C2_3  and  C3_5 
REMARK    3  A    between atoms: C6_9  and  N1_10 
REMARK    4  A    between atoms: N1_10  and  C7_11 
REMARK    5  A    between atoms: C7_11  and  N2_13 
REMARK    6  A    between atoms: N2_13  and  C8_14 
ROOT
HETATM    1  C7  LIG X 999      42.743 130.621  23.789  1.00  0.00     0.278 C 
HETATM    2  S2  LIG X 999      43.328 132.050  24.351  1.00  0.00    -0.033 SA
ENDROOT
BRANCH   1   3
HETATM    3  N1  LIG X 999      42.388 130.513  22.398  1.00  0.00     0.012 N 
HETATM    4  H6  LIG X 999      41.558 131.126  22.223  1.00  0.00     0.293 HD
HETATM    5  H7  LIG X 999      42.117 129.533  22.156  1.00  0.00     0.293 HD
BRANCH   3   6
HETATM    6  C6  LIG X 999      43.491 130.917  21.561  1.00  0.00     0.164 A 
HETATM    7  C3  LIG X 999      43.395 131.824  20.494  1.00  0.00     0.114 A 
HETATM    8  S1  LIG X 999      44.915 131.934  19.777  1.00  0.00    -0.094 SA
HETATM    9  C4  LIG X 999      45.702 130.854  20.794  1.00  0.00     0.053 A 
HETATM   10  C5  LIG X 999      44.782 130.380  21.717  1.00  0.00     0.046 A 
BRANCH   7  11
HETATM   11  C2  LIG X 999      42.210 132.558  20.016  1.00  0.00     0.302 C 
HETATM   12  O2  LIG X 999      41.517 133.216  20.840  1.00  0.00    -0.259 OA
BRANCH  11  13
HETATM   13  O1  LIG X 999      41.849 132.531  18.667  1.00  0.00    -0.322 OA
HETATM   14  C1  LIG X 999      42.599 131.828  17.684  1.00  0.00     0.213 C 
ENDBRANCH  11  13
ENDBRANCH   7  11
ENDBRANCH   3   6
ENDBRANCH   1   3
BRANCH   1  15
HETATM   15  N2  LIG X 999      42.940 129.430  24.569  1.00  0.00    -0.327 N 
HETATM   16  H8  LIG X 999      43.326 129.537  25.534  1.00  0.00     0.168 HD
BRANCH  15  17
HETATM   17  C8  LIG X 999      42.688 128.103  24.076  1.00  0.00     0.035 A 
HETATM   18  C9  LIG X 999      43.727 127.302  23.568  1.00  0.00     0.030 A 
HETATM   19  C10 LIG X 999      43.469 126.005  23.119  1.00  0.00     0.014 A 
HETATM   20  C11 LIG X 999      42.170 125.482  23.182  1.00  0.00    -0.026 A 
HETATM   21  C12 LIG X 999      41.900 124.179  22.734  1.00  0.00     0.012 A 
HETATM   22  C16 LIG X 999      41.121 126.272  23.710  1.00  0.00    -0.024 A 
HETATM   23  C13 LIG X 999      40.601 123.667  22.808  1.00  0.00     0.001 A 
HETATM   24  C14 LIG X 999      39.567 124.448  23.330  1.00  0.00     0.001 A 
HETATM   25  C15 LIG X 999      39.823 125.745  23.780  1.00  0.00     0.012 A 
HETATM   26  C17 LIG X 999      41.391 127.574  24.159  1.00  0.00     0.041 A 
ENDBRANCH  15  17
ENDBRANCH   1  15
TORSDOF 6
