REMARK VINA RESULT:      -3.6      2.677      5.529
REMARK  5 active torsions:
REMARK  status: ('A' for Active; 'I' for Inactive)
REMARK    1  A    between atoms: C3_3  and  N1_4 
REMARK    2  A    between atoms: N1_4  and  C6_7 
REMARK    3  A    between atoms: C6_7  and  C7_8 
REMARK    4  A    between atoms: C9_10  and  C10_11 
REMARK    5  A    between atoms: C11_14  and  N4_15 
ROOT
HETATM    1  C1  LIG X 999      45.203 130.978  14.568  1.00  0.00     0.013 C 
HETATM    2  C2  LIG X 999      45.360 131.481  15.652  1.00  0.00    -0.089 C 
HETATM    3  C3  LIG X 999      45.552 132.097  16.981  1.00  0.00     0.329 C 
ENDROOT
BRANCH   3   4
HETATM    4  N1  LIG X 999      44.806 131.404  18.077  1.00  0.00    -0.061 N 
HETATM    5  C4  LIG X 999      43.344 131.485  17.819  1.00  0.00     0.273 C 
HETATM    6  C5  LIG X 999      45.212 129.976  18.053  1.00  0.00     0.273 C 
BRANCH   4   7
HETATM    7  C6  LIG X 999      45.160 132.023  19.395  1.00  0.00     0.275 C 
BRANCH   7   8
HETATM    8  C7  LIG X 999      44.390 131.466  20.578  1.00  0.00    -0.035 C 
HETATM    9  C8  LIG X 999      44.983 131.329  21.780  1.00  0.00     0.001 C 
HETATM   10  C9  LIG X 999      44.254 130.663  22.938  1.00  0.00     0.054 C 
HETATM   11  C12 LIG X 999      44.858 131.101  24.296  1.00  0.00     0.023 C 
HETATM   12  C16 LIG X 999      42.731 131.023  22.868  1.00  0.00     0.028 C 
HETATM   13  C13 LIG X 999      44.568 132.569  24.625  1.00  0.00     0.002 C 
HETATM   14  C14 LIG X 999      43.062 132.833  24.623  1.00  0.00     0.001 C 
HETATM   15  C15 LIG X 999      42.458 132.492  23.260  1.00  0.00     0.010 C 
HETATM   16  C17 LIG X 999      42.206 130.791  21.470  1.00  0.00    -0.020 C 
HETATM   17  C18 LIG X 999      42.978 131.045  20.407  1.00  0.00     0.005 C 
BRANCH  10  18
HETATM   18  C10 LIG X 999      44.454 129.166  22.809  1.00  0.00     0.184 A 
HETATM   19  N2  LIG X 999      43.633 128.242  23.355  1.00  0.00    -0.124 NA
HETATM   20  N3  LIG X 999      44.113 127.058  23.009  1.00  0.00    -0.099 NA
HETATM   21  C11 LIG X 999      45.202 127.307  22.262  1.00  0.00     0.326 A 
HETATM   22  O1  LIG X 999      45.420 128.593  22.129  1.00  0.00    -0.255 OA
BRANCH  21  23
HETATM   23  N4  LIG X 999      46.015 126.287  21.687  1.00  0.00    -0.023 NA
HETATM   24  N5  LIG X 999      47.016 125.875  22.273  1.00  0.00    -0.158 NA
HETATM   25  N6  LIG X 999      48.017 125.464  22.858  1.00  0.00     0.068 N 
ENDBRANCH  21  23
ENDBRANCH  10  18
ENDBRANCH   7   8
ENDBRANCH   4   7
ENDBRANCH   3   4
TORSDOF 5
