REMARK VINA RESULT:      -6.9      2.184      4.825
REMARK  1 active torsions:
REMARK  status: ('A' for Active; 'I' for Inactive)
REMARK    1  A    between atoms: C4_4  and  N1_5 
ROOT
HETATM    1  C1  LIG X 999      46.475 130.794  20.125  1.00  0.00     0.049 C 
HETATM    2  C2  LIG X 999      45.207 131.018  19.338  1.00  0.00    -0.045 C 
HETATM    3  C3  LIG X 999      45.323 130.918  17.942  1.00  0.00     0.057 C 
HETATM    4  C4  LIG X 999      44.294 131.366  17.117  1.00  0.00     0.122 C 
HETATM    5  N2  LIG X 999      43.194 131.931  17.667  1.00  0.00    -0.231 NA
HETATM    6  C5  LIG X 999      43.011 132.011  19.010  1.00  0.00     0.070 C 
HETATM    7  C6  LIG X 999      41.879 132.669  19.487  1.00  0.00     0.033 C 
HETATM    8  C7  LIG X 999      41.652 132.785  20.851  1.00  0.00     0.014 C 
HETATM    9  C8  LIG X 999      42.497 132.148  21.764  1.00  0.00    -0.025 C 
HETATM   10  C9  LIG X 999      42.185 132.191  23.132  1.00  0.00     0.012 C 
HETATM   11  C10 LIG X 999      42.934 131.456  24.048  1.00  0.00     0.001 C 
HETATM   12  C11 LIG X 999      43.970 130.642  23.602  1.00  0.00     0.001 C 
HETATM   13  C12 LIG X 999      44.301 130.600  22.245  1.00  0.00     0.013 C 
HETATM   14  C13 LIG X 999      43.631 131.416  21.304  1.00  0.00    -0.013 C 
HETATM   15  C14 LIG X 999      43.968 131.456  19.908  1.00  0.00     0.010 C 
ENDROOT
BRANCH   4  16
HETATM   16  N1  LIG X 999      44.418 131.292  15.696  1.00  0.00    -0.384 N 
HETATM   17  H5  LIG X 999      43.795 130.670  15.134  1.00  0.00     0.157 HD
HETATM   18  H6  LIG X 999      45.135 131.866  15.200  1.00  0.00     0.157 HD
ENDBRANCH   4  16
TORSDOF 1
