REMARK VINA RESULT:      -5.9      2.632      4.084
REMARK  2 active torsions:
REMARK  status: ('A' for Active; 'I' for Inactive)
REMARK    1  A    between atoms: C2_5  and  C3_6 
REMARK    2  A    between atoms: N3_17  and  C13_18 
ROOT
HETATM    1  H1  LIG X 999      45.930 133.600  18.813  1.00  0.00     0.190 HD
HETATM    2  N1  LIG X 999      45.732 133.345  19.805  1.00  0.00    -0.260 NA
HETATM    3  C1  LIG X 999      45.188 132.221  20.147  1.00  0.00     0.269 A 
HETATM    4  O1  LIG X 999      44.893 131.909  21.384  1.00  0.00    -0.255 OA
HETATM    5  C2  LIG X 999      44.311 130.729  21.310  1.00  0.00     0.203 A 
HETATM    6  N2  LIG X 999      44.253 130.290  20.032  1.00  0.00    -0.137 NA
HETATM    7  N3  LIG X 999      44.813 131.240  19.300  1.00  0.00    -0.189 N 
ENDROOT
BRANCH   5   8
HETATM    8  C3  LIG X 999      43.823 129.949  22.471  1.00  0.00     0.030 A 
HETATM    9  C4  LIG X 999      42.833 130.536  23.278  1.00  0.00     0.017 A 
HETATM   10  C5  LIG X 999      42.266 129.836  24.342  1.00  0.00     0.002 A 
HETATM   11  C6  LIG X 999      42.675 128.536  24.624  1.00  0.00     0.012 A 
HETATM   12  C7  LIG X 999      43.679 127.929  23.859  1.00  0.00    -0.025 A 
HETATM   13  C8  LIG X 999      44.101 126.627  24.171  1.00  0.00     0.012 A 
HETATM   14  C12 LIG X 999      44.279 128.636  22.779  1.00  0.00    -0.011 A 
HETATM   15  C9  LIG X 999      45.125 126.025  23.441  1.00  0.00     0.001 A 
HETATM   16  C10 LIG X 999      45.746 126.720  22.404  1.00  0.00     0.001 A 
HETATM   17  C11 LIG X 999      45.337 128.015  22.077  1.00  0.00     0.013 A 
ENDBRANCH   5   8
BRANCH   7  18
HETATM   18  C13 LIG X 999      44.984 131.153  17.876  1.00  0.00     0.107 A 
HETATM   19  C14 LIG X 999      46.147 130.590  17.329  1.00  0.00     0.054 A 
HETATM   20  C15 LIG X 999      46.276 130.487  15.942  1.00  0.00     0.122 A 
HETATM   21  N4  LIG X 999      45.274 130.919  15.130  1.00  0.00    -0.230 NA
HETATM   22  C16 LIG X 999      44.130 131.454  15.631  1.00  0.00     0.251 A 
HETATM   23  F1  LIG X 999      43.155 131.868  14.787  1.00  0.00    -0.181 F 
HETATM   24  C17 LIG X 999      43.959 131.573  17.014  1.00  0.00     0.203 A 
HETATM   25  F2  LIG X 999      42.816 132.112  17.510  1.00  0.00    -0.199 F 
ENDBRANCH   7  18
TORSDOF 2
