REMARK VINA RESULT:      -7.9      4.251      6.370
REMARK  3 active torsions:
REMARK  status: ('A' for Active; 'I' for Inactive)
REMARK    1  A    between atoms: C6_6  and  C7_7 
REMARK    2  A    between atoms: C7_7  and  C8_9 
REMARK    3  A    between atoms: C8_9  and  N1_10 
ROOT
HETATM    1  N1  LIG X 999      42.817 131.043  21.545  1.00  0.00    -0.108 NA
HETATM    2  N2  LIG X 999      43.622 130.375  22.194  1.00  0.00    -0.167 NA
HETATM    3  N3  LIG X 999      44.428 129.709  22.842  1.00  0.00     0.068 N 
ENDROOT
BRANCH   1   4
HETATM    4  C8  LIG X 999      43.254 132.190  20.757  1.00  0.00     0.272 C 
BRANCH   4   5
HETATM    5  C7  LIG X 999      42.942 132.006  19.292  1.00  0.00     0.181 C 
HETATM    6  O1  LIG X 999      41.798 132.321  18.865  1.00  0.00    -0.290 OA
BRANCH   5   7
HETATM    7  C6  LIG X 999      43.966 131.512  18.333  1.00  0.00     0.012 A 
HETATM    8  C5  LIG X 999      43.789 131.716  16.951  1.00  0.00     0.027 A 
HETATM    9  C4  LIG X 999      44.745 131.259  16.031  1.00  0.00    -0.025 A 
HETATM   10  C3  LIG X 999      44.565 131.459  14.653  1.00  0.00     0.012 A 
HETATM   11  C11 LIG X 999      45.902 130.590  16.495  1.00  0.00    -0.026 A 
HETATM   12  C2  LIG X 999      45.523 130.999  13.745  1.00  0.00     0.001 A 
HETATM   13  C1  LIG X 999      46.666 130.339  14.205  1.00  0.00     0.001 A 
HETATM   14  C12 LIG X 999      46.858 130.134  15.574  1.00  0.00     0.012 A 
HETATM   15  C10 LIG X 999      46.082 130.392  17.870  1.00  0.00     0.013 A 
HETATM   16  C9  LIG X 999      45.125 130.849  18.779  1.00  0.00     0.016 A 
ENDBRANCH   5   7
ENDBRANCH   4   5
ENDBRANCH   1   4
TORSDOF 3
