REMARK VINA RESULT:      -5.8      2.598      7.442
REMARK  2 active torsions:
REMARK  status: ('A' for Active; 'I' for Inactive)
REMARK    1  A    between atoms: C2_2  and  N1_3 
REMARK    2  A    between atoms: C3_6  and  O1_7 
ROOT
HETATM    1  N1  LIG X 999      42.284 131.666  23.301  1.00  0.00    -0.070 NA
HETATM    2  N2  LIG X 999      41.690 130.814  23.963  1.00  0.00    -0.162 NA
HETATM    3  N3  LIG X 999      41.096 129.965  24.625  1.00  0.00     0.068 N 
ENDROOT
BRANCH   1   4
HETATM    4  C2  LIG X 999      43.182 131.324  22.233  1.00  0.00     0.127 A 
HETATM    5  C1  LIG X 999      42.932 131.732  20.909  1.00  0.00     0.049 A 
HETATM    6  C11 LIG X 999      43.818 131.389  19.881  1.00  0.00    -0.023 A 
HETATM    7  C6  LIG X 999      44.978 130.623  20.179  1.00  0.00    -0.022 A 
HETATM    8  C10 LIG X 999      43.570 131.798  18.556  1.00  0.00     0.021 A 
HETATM    9  C5  LIG X 999      45.222 130.220  21.499  1.00  0.00     0.051 A 
HETATM   10  C7  LIG X 999      45.874 130.279  19.147  1.00  0.00     0.021 A 
HETATM   11  C3  LIG X 999      44.328 130.567  22.530  1.00  0.00     0.100 A 
HETATM   12  C8  LIG X 999      45.590 130.697  17.847  1.00  0.00    -0.024 A 
HETATM   13  C9  LIG X 999      44.478 131.430  17.561  1.00  0.00    -0.024 A 
HETATM   14  C15 LIG X 999      46.391 130.471  16.625  1.00  0.00     0.276 C 
HETATM   15  C12 LIG X 999      44.432 131.764  16.122  1.00  0.00     0.276 C 
HETATM   16  N4  LIG X 999      45.569 131.014  15.497  1.00  0.00    -0.067 N 
HETATM   17  C13 LIG X 999      45.047 129.901  14.669  1.00  0.00     0.272 C 
HETATM   18  C14 LIG X 999      46.380 131.911  14.643  1.00  0.00     0.272 C 
BRANCH  11  19
HETATM   19  O1  LIG X 999      44.544 130.178  23.862  1.00  0.00    -0.353 OA
HETATM   20  C4  LIG X 999      44.545 128.830  24.321  1.00  0.00     0.210 C 
ENDBRANCH  11  19
ENDBRANCH   1   4
TORSDOF 2
