REMARK VINA RESULT:      -7.3      1.375      2.968
REMARK  4 active torsions:
REMARK  status: ('A' for Active; 'I' for Inactive)
REMARK    1  A    between atoms: C3_3  and  O1_4 
REMARK    2  A    between atoms: O1_4  and  C4_5 
REMARK    3  A    between atoms: C4_5  and  O2_6 
REMARK    4  A    between atoms: C5_8  and  C6_9 
ROOT
HETATM    1  C1  LIG X 999      46.238 130.921  13.811  1.00  0.00     0.014 C 
HETATM    2  C2  LIG X 999      45.464 131.160  14.703  1.00  0.00    -0.091 C 
HETATM    3  C3  LIG X 999      44.524 131.449  15.787  1.00  0.00     0.270 C 
ENDROOT
BRANCH   3   4
HETATM    4  O1  LIG X 999      44.670 130.470  16.805  1.00  0.00    -0.319 OA
BRANCH   4   5
HETATM    5  C4  LIG X 999      45.853 130.316  17.533  1.00  0.00     0.179 C 
HETATM    6  C5  LIG X 999      45.879 130.587  18.846  1.00  0.00     0.075 C 
BRANCH   5   7
HETATM    7  O2  LIG X 999      47.006 129.859  16.892  1.00  0.00    -0.341 OA
HETATM    8  H4  LIG X 999      47.909 129.845  17.352  1.00  0.00     0.220 HD
ENDBRANCH   5   7
BRANCH   6   9
HETATM    9  C6  LIG X 999      44.701 131.090  19.595  1.00  0.00    -0.021 A 
HETATM   10  C7  LIG X 999      43.931 132.130  19.045  1.00  0.00     0.012 A 
HETATM   11  C8  LIG X 999      42.844 132.661  19.740  1.00  0.00     0.002 A 
HETATM   12  C9  LIG X 999      42.513 132.174  21.002  1.00  0.00     0.012 A 
HETATM   13  C10 LIG X 999      43.266 131.147  21.584  1.00  0.00    -0.025 A 
HETATM   14  C11 LIG X 999      42.927 130.663  22.858  1.00  0.00     0.012 A 
HETATM   15  C15 LIG X 999      44.373 130.592  20.884  1.00  0.00    -0.015 A 
HETATM   16  C12 LIG X 999      43.665 129.633  23.440  1.00  0.00     0.001 A 
HETATM   17  C13 LIG X 999      44.745 129.074  22.757  1.00  0.00     0.001 A 
HETATM   18  C14 LIG X 999      45.098 129.542  21.490  1.00  0.00     0.013 A 
ENDBRANCH   6   9
ENDBRANCH   4   5
ENDBRANCH   3   4
TORSDOF 4
