REMARK VINA RESULT:      -6.7      1.894      2.871
REMARK  1 active torsions:
REMARK  status: ('A' for Active; 'I' for Inactive)
REMARK    1  A    between atoms: C13_15  and  N2_16 
ROOT
HETATM    1  N1  LIG X 999      43.666 131.750  14.046  1.00  0.00    -0.191 NA
HETATM    2  C1  LIG X 999      43.954 131.621  15.159  1.00  0.00     0.109 C 
HETATM    3  C2  LIG X 999      44.311 131.458  16.543  1.00  0.00     0.113 A 
HETATM    4  S1  LIG X 999      45.748 130.760  17.062  1.00  0.00    -0.076 SA
HETATM    5  C3  LIG X 999      45.354 130.813  18.692  1.00  0.00     0.019 A 
HETATM    6  C4  LIG X 999      46.117 130.315  19.741  1.00  0.00     0.021 A 
HETATM    7  C5  LIG X 999      45.617 130.417  21.040  1.00  0.00     0.013 A 
HETATM    8  C6  LIG X 999      44.392 131.069  21.285  1.00  0.00    -0.025 A 
HETATM    9  C7  LIG X 999      43.939 131.217  22.606  1.00  0.00     0.012 A 
HETATM   10  C8  LIG X 999      42.776 131.937  22.875  1.00  0.00     0.001 A 
HETATM   11  C9  LIG X 999      42.071 132.541  21.835  1.00  0.00     0.001 A 
HETATM   12  C10 LIG X 999      42.500 132.397  20.513  1.00  0.00     0.013 A 
HETATM   13  C11 LIG X 999      43.632 131.613  20.205  1.00  0.00    -0.012 A 
HETATM   14  C12 LIG X 999      44.103 131.403  18.881  1.00  0.00     0.020 A 
HETATM   15  C13 LIG X 999      43.486 131.719  17.641  1.00  0.00     0.066 A 
ENDROOT
BRANCH  15  16
HETATM   16  N2  LIG X 999      42.106 132.059  17.474  1.00  0.00    -0.397 N 
HETATM   17  H7  LIG X 999      41.683 132.835  18.029  1.00  0.00     0.156 HD
HETATM   18  H8  LIG X 999      41.578 131.728  16.637  1.00  0.00     0.156 HD
ENDBRANCH  15  16
TORSDOF 1
