REMARK VINA RESULT:      -4.8      6.262      7.789
REMARK  1 active torsions:
REMARK  status: ('A' for Active; 'I' for Inactive)
REMARK    1  A    between atoms: N1_2  and  C1_3 
ROOT
HETATM    1  C1  LIG X 999      40.789 125.179  23.186  1.00  0.00     0.143 C 
HETATM    2  N2  LIG X 999      41.703 126.149  23.426  1.00  0.00    -0.229 NA
HETATM    3  C2  LIG X 999      43.013 126.008  23.100  1.00  0.00     0.070 C 
HETATM    4  C3  LIG X 999      43.871 127.085  23.320  1.00  0.00     0.033 C 
HETATM    5  C4  LIG X 999      45.217 126.994  22.995  1.00  0.00     0.014 C 
HETATM    6  C5  LIG X 999      45.754 125.783  22.548  1.00  0.00    -0.025 C 
HETATM    7  C6  LIG X 999      47.138 125.688  22.329  1.00  0.00     0.012 C 
HETATM    8  C7  LIG X 999      47.716 124.462  22.011  1.00  0.00     0.001 C 
HETATM    9  C8  LIG X 999      46.928 123.317  21.950  1.00  0.00     0.001 C 
HETATM   10  C9  LIG X 999      45.548 123.400  22.151  1.00  0.00     0.013 C 
HETATM   11  C10 LIG X 999      44.914 124.645  22.370  1.00  0.00    -0.013 C 
HETATM   12  C11 LIG X 999      43.494 124.796  22.524  1.00  0.00     0.010 C 
HETATM   13  C12 LIG X 999      42.506 123.843  22.116  1.00  0.00    -0.045 C 
HETATM   14  C13 LIG X 999      42.759 122.716  21.143  1.00  0.00     0.049 C 
HETATM   15  C14 LIG X 999      41.171 124.020  22.517  1.00  0.00     0.059 C 
ENDROOT
BRANCH   1  16
HETATM   16  N1  LIG X 999      39.555 125.346  23.538  1.00  0.00    -0.282 NA
HETATM   17  H1  LIG X 999      38.768 124.941  22.982  1.00  0.00     0.188 HD
ENDBRANCH   1  16
TORSDOF 1
