REMARK VINA RESULT:      -5.4      4.635      7.289
REMARK  3 active torsions:
REMARK  status: ('A' for Active; 'I' for Inactive)
REMARK    1  A    between atoms: C3_3  and  N1_4 
REMARK    2  A    between atoms: C3_3  and  C4_7 
REMARK    3  A    between atoms: C3_3  and  C14_17 
ROOT
HETATM    1  C1  LIG X 999      46.001 130.978  20.478  1.00  0.00     0.015 C 
HETATM    2  C2  LIG X 999      45.086 130.777  21.238  1.00  0.00    -0.075 C 
HETATM    3  C3  LIG X 999      43.956 130.530  22.172  1.00  0.00     0.183 C 
ENDROOT
BRANCH   3   4
HETATM    4  N1  LIG X 999      42.723 130.864  21.446  1.00  0.00    -0.085 NA
HETATM    5  N2  LIG X 999      42.736 131.489  20.382  1.00  0.00    -0.165 NA
HETATM    6  N3  LIG X 999      42.750 132.112  19.322  1.00  0.00     0.068 N 
ENDBRANCH   3   4
BRANCH   3   7
HETATM    7  C4  LIG X 999      43.936 129.041  22.580  1.00  0.00    -0.012 A 
HETATM    8  C5  LIG X 999      42.855 128.515  23.320  1.00  0.00     0.012 A 
HETATM    9  C6  LIG X 999      42.835 127.178  23.721  1.00  0.00     0.013 A 
HETATM   10  C7  LIG X 999      43.904 126.331  23.407  1.00  0.00    -0.026 A 
HETATM   11  C8  LIG X 999      43.893 124.986  23.809  1.00  0.00     0.012 A 
HETATM   12  C12 LIG X 999      45.008 126.838  22.684  1.00  0.00    -0.025 A 
HETATM   13  C9  LIG X 999      44.971 124.153  23.497  1.00  0.00     0.001 A 
HETATM   14  C10 LIG X 999      46.063 124.654  22.784  1.00  0.00     0.001 A 
HETATM   15  C11 LIG X 999      46.085 125.991  22.379  1.00  0.00     0.012 A 
HETATM   16  C13 LIG X 999      45.019 128.183  22.284  1.00  0.00     0.023 A 
ENDBRANCH   3   7
BRANCH   3  17
HETATM   17  C14 LIG X 999      44.077 131.481  23.436  1.00  0.00    -0.005 C 
HETATM   18  C15 LIG X 999      44.958 132.716  23.120  1.00  0.00     0.018 C 
HETATM   19  C16 LIG X 999      42.694 131.993  23.909  1.00  0.00     0.018 C 
HETATM   20  C17 LIG X 999      44.738 130.730  24.623  1.00  0.00     0.018 C 
ENDBRANCH   3  17
TORSDOF 3
