REMARK VINA RESULT:      -5.1      8.926     10.864
REMARK  1 active torsions:
REMARK  status: ('A' for Active; 'I' for Inactive)
REMARK    1  A    between atoms: C5_5  and  N1_6 
ROOT
HETATM    1  N1  LIG X 999      42.345 126.396  24.365  1.00  0.00    -0.070 NA
HETATM    2  N2  LIG X 999      42.019 127.524  23.993  1.00  0.00    -0.162 NA
HETATM    3  N3  LIG X 999      41.691 128.651  23.625  1.00  0.00     0.068 N 
ENDROOT
BRANCH   1   4
HETATM    4  C5  LIG X 999      42.128 125.232  23.550  1.00  0.00     0.124 A 
HETATM    5  C4  LIG X 999      40.968 124.419  23.677  1.00  0.00     0.007 A 
HETATM    6  C3  LIG X 999      39.889 124.769  24.516  1.00  0.00     0.015 A 
HETATM    7  C10 LIG X 999      40.864 123.232  22.899  1.00  0.00    -0.024 A 
HETATM    8  C2  LIG X 999      38.771 123.937  24.625  1.00  0.00     0.001 A 
HETATM    9  C1  LIG X 999      38.700 122.754  23.890  1.00  0.00     0.001 A 
HETATM   10  C11 LIG X 999      39.736 122.405  23.024  1.00  0.00     0.012 A 
HETATM   11  C9  LIG X 999      41.876 122.898  21.992  1.00  0.00     0.014 A 
HETATM   12  C8  LIG X 999      42.981 123.731  21.831  1.00  0.00     0.026 A 
HETATM   13  C6  LIG X 999      43.108 124.894  22.596  1.00  0.00     0.077 A 
HETATM   14  C7  LIG X 999      44.279 125.719  22.417  1.00  0.00     0.102 C 
HETATM   15  N4  LIG X 999      45.218 126.380  22.275  1.00  0.00    -0.191 NA
ENDBRANCH   1   4
TORSDOF 1
