REMARK VINA RESULT:      -4.9      3.719      4.948
REMARK  3 active torsions:
REMARK  status: ('A' for Active; 'I' for Inactive)
REMARK    1  A    between atoms: C3_3  and  S1_4 
REMARK    2  A    between atoms: S1_4  and  C4_7 
REMARK    3  A    between atoms: C6_9  and  N1_10 
ROOT
HETATM    1  C1  LIG X 999      45.317 131.764  16.257  1.00  0.00     0.013 C 
HETATM    2  C2  LIG X 999      45.518 131.174  17.288  1.00  0.00    -0.102 C 
HETATM    3  C3  LIG X 999      45.757 130.456  18.543  1.00  0.00     0.238 C 
ENDROOT
BRANCH   3   4
HETATM    4  S1  LIG X 999      44.942 131.297  19.890  1.00  0.00     0.186 S 
HETATM    5  O1  LIG X 999      43.612 131.800  19.399  1.00  0.00    -0.222 OA
HETATM    6  O2  LIG X 999      45.756 132.484  20.325  1.00  0.00    -0.222 OA
BRANCH   4   7
HETATM    7  C4  LIG X 999      44.705 130.187  21.257  1.00  0.00     0.073 A 
HETATM    8  C5  LIG X 999      45.380 128.955  21.227  1.00  0.00     0.058 A 
HETATM    9  C6  LIG X 999      45.254 128.032  22.267  1.00  0.00     0.095 A 
HETATM   10  C7  LIG X 999      44.440 128.336  23.367  1.00  0.00     0.046 A 
HETATM   11  C8  LIG X 999      43.761 129.559  23.430  1.00  0.00    -0.022 A 
HETATM   12  C9  LIG X 999      42.956 129.851  24.544  1.00  0.00     0.012 A 
HETATM   13  C13 LIG X 999      43.887 130.504  22.375  1.00  0.00    -0.004 A 
HETATM   14  C10 LIG X 999      42.280 131.068  24.625  1.00  0.00     0.001 A 
HETATM   15  C11 LIG X 999      42.400 132.004  23.599  1.00  0.00     0.001 A 
HETATM   16  C12 LIG X 999      43.195 131.729  22.484  1.00  0.00     0.014 A 
BRANCH   9  17
HETATM   17  N1  LIG X 999      45.967 126.791  22.177  1.00  0.00    -0.073 NA
HETATM   18  N2  LIG X 999      45.440 125.706  22.427  1.00  0.00    -0.162 NA
HETATM   19  N3  LIG X 999      44.915 124.622  22.675  1.00  0.00     0.068 N 
ENDBRANCH   9  17
ENDBRANCH   4   7
ENDBRANCH   3   4
TORSDOF 3
