REMARK VINA RESULT:      -6.8      3.928      6.597
REMARK  3 active torsions:
REMARK  status: ('A' for Active; 'I' for Inactive)
REMARK    1  A    between atoms: C6_6  and  C7_7 
REMARK    2  A    between atoms: C7_7  and  N1_8 
REMARK    3  A    between atoms: C8_12  and  N4_13 
ROOT
HETATM    1  N1  LIG X 999      44.920 132.866  19.563  1.00  0.00    -0.065 NA
HETATM    2  N2  LIG X 999      45.742 132.502  20.406  1.00  0.00    -0.164 NA
HETATM    3  N3  LIG X 999      46.561 132.139  21.248  1.00  0.00     0.068 N 
ENDROOT
BRANCH   1   4
HETATM    4  C7  LIG X 999      44.244 131.913  18.684  1.00  0.00     0.267 A 
HETATM    5  O1  LIG X 999      42.991 132.371  18.228  1.00  0.00    -0.314 OA
HETATM    6  C8  LIG X 999      42.976 131.300  19.149  1.00  0.00     0.349 A 
BRANCH   4   7
HETATM    7  C6  LIG X 999      45.053 131.238  17.619  1.00  0.00     0.007 A 
HETATM    8  C5  LIG X 999      45.398 131.930  16.449  1.00  0.00     0.024 A 
HETATM    9  C4  LIG X 999      46.176 131.308  15.461  1.00  0.00    -0.025 A 
HETATM   10  C3  LIG X 999      46.518 131.990  14.283  1.00  0.00     0.012 A 
HETATM   11  C11 LIG X 999      46.623 129.977  15.656  1.00  0.00    -0.026 A 
HETATM   12  C2  LIG X 999      47.294 131.358  13.307  1.00  0.00     0.001 A 
HETATM   13  C1  LIG X 999      47.735 130.046  13.499  1.00  0.00     0.001 A 
HETATM   14  C12 LIG X 999      47.402 129.355  14.668  1.00  0.00     0.012 A 
HETATM   15  C10 LIG X 999      46.286 129.298  16.835  1.00  0.00     0.013 A 
HETATM   16  C9  LIG X 999      45.510 129.927  17.812  1.00  0.00     0.013 A 
ENDBRANCH   4   7
BRANCH   6  17
HETATM   17  N4  LIG X 999      42.493 131.755  20.442  1.00  0.00    -0.077 NA
HETATM   18  N5  LIG X 999      42.744 131.110  21.459  1.00  0.00    -0.165 NA
HETATM   19  N6  LIG X 999      42.995 130.466  22.476  1.00  0.00     0.068 N 
ENDBRANCH   6  17
ENDBRANCH   1   4
TORSDOF 3
