REMARK VINA RESULT:      -5.2      4.865      7.152
REMARK  2 active torsions:
REMARK  status: ('A' for Active; 'I' for Inactive)
REMARK    1  A    between atoms: C2_2  and  N1_3 
REMARK    2  A    between atoms: C3_6  and  O1_7 
ROOT
HETATM    1  N1  LIG X 999      44.350 131.656  21.216  1.00  0.00    -0.070 NA
HETATM    2  N2  LIG X 999      43.737 131.778  20.154  1.00  0.00    -0.162 NA
HETATM    3  N3  LIG X 999      43.126 131.903  19.093  1.00  0.00     0.068 N 
ENDROOT
BRANCH   1   4
HETATM    4  C2  LIG X 999      44.300 130.454  22.000  1.00  0.00     0.127 A 
HETATM    5  C1  LIG X 999      45.002 129.298  21.612  1.00  0.00     0.049 A 
HETATM    6  C11 LIG X 999      44.941 128.135  22.390  1.00  0.00    -0.023 A 
HETATM    7  C6  LIG X 999      44.165 128.126  23.581  1.00  0.00    -0.022 A 
HETATM    8  C10 LIG X 999      45.641 126.975  22.000  1.00  0.00     0.021 A 
HETATM    9  C5  LIG X 999      43.468 129.280  23.962  1.00  0.00     0.051 A 
HETATM   10  C7  LIG X 999      44.099 126.957  24.365  1.00  0.00     0.021 A 
HETATM   11  C3  LIG X 999      43.532 130.448  23.177  1.00  0.00     0.100 A 
HETATM   12  C8  LIG X 999      44.813 125.831  23.949  1.00  0.00    -0.024 A 
HETATM   13  C9  LIG X 999      45.557 125.840  22.809  1.00  0.00    -0.024 A 
HETATM   14  C15 LIG X 999      44.871 124.503  24.596  1.00  0.00     0.276 C 
HETATM   15  C12 LIG X 999      46.182 124.519  22.586  1.00  0.00     0.276 C 
HETATM   16  N4  LIG X 999      45.876 123.716  23.812  1.00  0.00    -0.067 N 
HETATM   17  C13 LIG X 999      47.107 123.525  24.614  1.00  0.00     0.272 C 
HETATM   18  C14 LIG X 999      45.329 122.390  23.446  1.00  0.00     0.272 C 
BRANCH  11  19
HETATM   19  O1  LIG X 999      42.846 131.620  23.534  1.00  0.00    -0.353 OA
HETATM   20  C4  LIG X 999      43.199 132.464  24.625  1.00  0.00     0.210 C 
ENDBRANCH  11  19
ENDBRANCH   1   4
TORSDOF 2
