REMARK VINA RESULT:      -5.0      2.471      8.043
REMARK  5 active torsions:
REMARK  status: ('A' for Active; 'I' for Inactive)
REMARK    1  A    between atoms: C6_6  and  C7_7 
REMARK       I    between atoms: C7_7  and  N1_9 
REMARK    2  A    between atoms: N1_9  and  C8_11 
REMARK    3  A    between atoms: C8_11  and  C9_12 
REMARK    4  A    between atoms: C9_12  and  N2_13 
REMARK    5  A    between atoms: C13_19  and  N5_20 
ROOT
HETATM    1  N2  LIG X 999      42.383 129.767  23.516  1.00  0.00    -0.114 NA
HETATM    2  N3  LIG X 999      41.626 128.800  23.587  1.00  0.00    -0.168 NA
HETATM    3  N4  LIG X 999      40.868 127.833  23.659  1.00  0.00     0.068 N 
ENDROOT
BRANCH   1   4
HETATM    4  C9  LIG X 999      43.469 129.787  22.546  1.00  0.00     0.208 C 
BRANCH   4   5
HETATM    5  C8  LIG X 999      43.907 131.227  22.278  1.00  0.00     0.147 C 
BRANCH   5   6
HETATM    6  N1  LIG X 999      44.164 131.439  20.854  1.00  0.00    -0.355 N 
HETATM    7  C7  LIG X 999      45.180 130.717  20.137  1.00  0.00     0.251 C 
HETATM    8  O1  LIG X 999      45.945 129.931  20.763  1.00  0.00    -0.268 OA
HETATM    9  H4  LIG X 999      43.589 132.158  20.361  1.00  0.00     0.162 HD
BRANCH   7  10
HETATM   10  C6  LIG X 999      45.358 130.888  18.676  1.00  0.00     0.032 A 
HETATM   11  C1  LIG X 999      44.655 131.896  17.999  1.00  0.00     0.017 A 
HETATM   12  C2  LIG X 999      44.817 132.075  16.625  1.00  0.00     0.011 A 
HETATM   13  C3  LIG X 999      45.697 131.261  15.895  1.00  0.00    -0.024 A 
HETATM   14  C4  LIG X 999      46.407 130.236  16.565  1.00  0.00    -0.049 A 
HETATM   15  C13 LIG X 999      45.789 131.445  14.396  1.00  0.00     0.179 C 
HETATM   16  C5  LIG X 999      46.245 130.073  17.951  1.00  0.00     0.024 A 
HETATM   17  C10 LIG X 999      47.432 129.386  15.851  1.00  0.00     0.039 C 
HETATM   18  C11 LIG X 999      47.251 129.386  14.331  1.00  0.00     0.007 C 
HETATM   19  C12 LIG X 999      47.069 130.815  13.817  1.00  0.00     0.035 C 
BRANCH  15  20
HETATM   20  N5  LIG X 999      44.601 130.861  13.777  1.00  0.00    -0.105 NA
HETATM   21  N6  LIG X 999      43.523 131.455  13.780  1.00  0.00    -0.167 NA
HETATM   22  N7  LIG X 999      42.445 132.048  13.783  1.00  0.00     0.068 N 
ENDBRANCH  15  20
ENDBRANCH   7  10
ENDBRANCH   5   6
ENDBRANCH   4   5
ENDBRANCH   1   4
TORSDOF 5
