REMARK VINA RESULT:      -6.8      1.213      1.263
REMARK  6 active torsions:
REMARK  status: ('A' for Active; 'I' for Inactive)
REMARK    1  A    between atoms: S1_2  and  C1_3 
REMARK    2  A    between atoms: C1_3  and  N2_15 
REMARK    3  A    between atoms: N1_4  and  C2_5 
REMARK    4  A    between atoms: N2_15  and  C12_17 
REMARK    5  A    between atoms: C12_17  and  C13_18 
REMARK    6  A    between atoms: C13_18  and  C14_19 
ROOT
HETATM    1  C2  LIG X 999      44.526 131.363  17.465  1.00  0.00     0.060 A 
HETATM    2  C3  LIG X 999      45.418 130.440  18.022  1.00  0.00     0.032 A 
HETATM    3  C4  LIG X 999      46.426 129.867  17.243  1.00  0.00     0.014 A 
HETATM    4  C5  LIG X 999      46.540 130.195  15.884  1.00  0.00    -0.026 A 
HETATM    5  C6  LIG X 999      47.548 129.626  15.091  1.00  0.00     0.012 A 
HETATM    6  C7  LIG X 999      47.643 129.953  13.735  1.00  0.00     0.001 A 
HETATM    7  C8  LIG X 999      46.733 130.845  13.161  1.00  0.00     0.001 A 
HETATM    8  C9  LIG X 999      45.724 131.418  13.940  1.00  0.00     0.012 A 
HETATM    9  C10 LIG X 999      45.620 131.102  15.304  1.00  0.00    -0.024 A 
HETATM   10  C11 LIG X 999      44.610 131.669  16.096  1.00  0.00     0.044 A 
ENDROOT
BRANCH   1  11
HETATM   11  N1  LIG X 999      43.475 131.894  18.286  1.00  0.00    -0.225 NA
HETATM   12  C1  LIG X 999      43.467 131.978  19.586  1.00  0.00     0.160 C 
BRANCH  12  13
HETATM   13  S1  LIG X 999      42.071 132.796  20.359  1.00  0.00    -0.105 SA
HETATM   14  H1  LIG X 999      42.522 134.066  19.952  1.00  0.00     0.110 HD
ENDBRANCH  12  13
BRANCH  12  15
HETATM   15  N2  LIG X 999      44.495 131.365  20.389  1.00  0.00    -0.369 N 
HETATM   16  H9  LIG X 999      45.201 130.744  19.935  1.00  0.00     0.161 HD
BRANCH  15  17
HETATM   17  C12 LIG X 999      44.502 131.417  21.849  1.00  0.00     0.122 C 
BRANCH  17  18
HETATM   18  C13 LIG X 999      43.708 130.238  22.425  1.00  0.00     0.030 C 
BRANCH  18  19
HETATM   19  C14 LIG X 999      44.565 128.976  22.561  1.00  0.00     0.088 C 
HETATM   20  S2  LIG X 999      44.665 128.441  24.260  1.00  0.00    -0.098 SA
ENDBRANCH  18  19
ENDBRANCH  17  18
ENDBRANCH  15  17
ENDBRANCH  12  15
ENDBRANCH   1  11
TORSDOF 6
