REMARK VINA RESULT:      -6.3      2.164      4.046
REMARK  1 active torsions:
REMARK  status: ('A' for Active; 'I' for Inactive)
REMARK    1  A    between atoms: C5_8  and  O1_9 
ROOT
HETATM    1  H1  LIG X 999      45.140 131.179  23.337  1.00  0.00     0.187 HD
HETATM    2  N1  LIG X 999      44.448 131.465  22.609  1.00  0.00    -0.300 NA
HETATM    3  C1  LIG X 999      44.687 131.315  21.346  1.00  0.00     0.059 A 
HETATM    4  C2  LIG X 999      45.981 130.715  20.866  1.00  0.00     0.034 A 
HETATM    5  C3  LIG X 999      46.231 130.558  19.545  1.00  0.00     0.035 A 
HETATM    6  C4  LIG X 999      45.202 130.989  18.580  1.00  0.00     0.071 A 
HETATM    7  N2  LIG X 999      45.224 130.934  17.227  1.00  0.00    -0.224 NA
HETATM    8  C5  LIG X 999      44.023 131.463  16.851  1.00  0.00     0.174 A 
HETATM    9  C6  LIG X 999      43.272 131.840  17.954  1.00  0.00     0.030 A 
HETATM   10  C7  LIG X 999      42.012 132.414  18.132  1.00  0.00     0.017 A 
HETATM   11  C8  LIG X 999      41.586 132.651  19.463  1.00  0.00     0.002 A 
HETATM   12  C9  LIG X 999      42.420 132.312  20.566  1.00  0.00     0.015 A 
HETATM   13  C10 LIG X 999      43.685 131.733  20.330  1.00  0.00     0.005 A 
HETATM   14  C11 LIG X 999      44.041 131.528  19.016  1.00  0.00     0.020 A 
ENDROOT
BRANCH   8  15
HETATM   15  O1  LIG X 999      43.620 131.601  15.528  1.00  0.00    -0.344 OA
HETATM   16  H4  LIG X 999      42.997 132.351  15.254  1.00  0.00     0.219 HD
ENDBRANCH   8  15
TORSDOF 1
