MODEL 1
REMARK VINA RESULT:      -7.4      0.000      0.000
REMARK  7 active torsions:
REMARK  status: ('A' for Active; 'I' for Inactive)
REMARK    1  A    between atoms: C14_14  and  N1_15 
REMARK    2  A    between atoms: N1_15  and  C15_17 
REMARK    3  A    between atoms: C15_17  and  C16_18 
REMARK    4  A    between atoms: C16_18  and  C17_19 
REMARK    5  A    between atoms: C17_19  and  C18_20 
REMARK    6  A    between atoms: C18_20  and  C19_21 
REMARK    7  A    between atoms: C19_21  and  N2_22 
ROOT
HETATM    1  C1  LIG X 999      45.269 131.017  15.481  1.00  0.00     0.001 C 
HETATM    2  C2  LIG X 999      46.100 130.510  16.475  1.00  0.00     0.001 C 
HETATM    3  C3  LIG X 999      45.734 130.611  17.819  1.00  0.00     0.013 C 
HETATM    4  C4  LIG X 999      44.545 131.271  18.207  1.00  0.00    -0.013 C 
HETATM    5  C5  LIG X 999      43.655 131.673  17.170  1.00  0.00    -0.025 C 
HETATM    6  C6  LIG X 999      44.041 131.579  15.823  1.00  0.00     0.012 C 
HETATM    7  C7  LIG X 999      42.366 132.111  17.480  1.00  0.00     0.014 C 
HETATM    8  C8  LIG X 999      41.923 132.105  18.795  1.00  0.00     0.031 C 
HETATM    9  C9  LIG X 999      42.790 131.771  19.843  1.00  0.00     0.045 C 
HETATM   10  C10 LIG X 999      44.151 131.453  19.575  1.00  0.00     0.008 C 
HETATM   11  C11 LIG X 999      45.028 131.381  20.700  1.00  0.00    -0.045 C 
HETATM   12  C12 LIG X 999      46.531 131.494  20.612  1.00  0.00     0.049 C 
HETATM   13  C13 LIG X 999      44.486 131.345  21.993  1.00  0.00     0.056 C 
HETATM   14  C14 LIG X 999      43.108 131.520  22.201  1.00  0.00     0.101 C 
HETATM   15  N3  LIG X 999      42.314 131.774  21.122  1.00  0.00    -0.342 N 
HETATM   16  H28 LIG X 999      41.298 131.972  21.278  1.00  0.00     0.167 HD
ENDROOT
BRANCH  14  17
HETATM   17  N1  LIG X 999      42.570 131.489  23.399  1.00  0.00    -0.376 N 
HETATM   18  H11 LIG X 999      42.057 132.334  23.741  1.00  0.00     0.161 HD
BRANCH  17  19
HETATM   19  C15 LIG X 999      42.617 130.363  24.340  1.00  0.00     0.121 C 
BRANCH  19  20
HETATM   20  C16 LIG X 999      42.303 129.042  23.625  1.00  0.00     0.020 C 
BRANCH  20  21
HETATM   21  C17 LIG X 999      43.328 127.959  23.995  1.00  0.00     0.004 C 
BRANCH  21  22
HETATM   22  C18 LIG X 999      44.510 127.893  23.011  1.00  0.00     0.035 C 
BRANCH  22  23
HETATM   23  C19 LIG X 999      44.757 126.488  22.426  1.00  0.00     0.216 C 
HETATM   24  C21 LIG X 999      46.243 126.114  22.577  1.00  0.00     0.042 C 
BRANCH  23  25
HETATM   25  N2  LIG X 999      43.883 125.509  23.101  1.00  0.00     0.083 N 
HETATM   26  H21 LIG X 999      44.181 125.379  24.096  1.00  0.00     0.315 HD
HETATM   27  C20 LIG X 999      43.892 124.206  22.432  1.00  0.00     0.307 C 
ENDBRANCH  23  25
ENDBRANCH  22  23
ENDBRANCH  21  22
ENDBRANCH  20  21
ENDBRANCH  19  20
ENDBRANCH  17  19
ENDBRANCH  14  17
TORSDOF 7
ENDMDL
MODEL 2
REMARK VINA RESULT:      -7.3      1.441      1.878
REMARK  7 active torsions:
REMARK  status: ('A' for Active; 'I' for Inactive)
REMARK    1  A    between atoms: C14_14  and  N1_15 
REMARK    2  A    between atoms: N1_15  and  C15_17 
REMARK    3  A    between atoms: C15_17  and  C16_18 
REMARK    4  A    between atoms: C16_18  and  C17_19 
REMARK    5  A    between atoms: C17_19  and  C18_20 
REMARK    6  A    between atoms: C18_20  and  C19_21 
REMARK    7  A    between atoms: C19_21  and  N2_22 
ROOT
HETATM    1  C1  LIG X 999      45.275 131.033  15.499  1.00  0.00     0.001 C 
HETATM    2  C2  LIG X 999      46.107 130.528  16.493  1.00  0.00     0.001 C 
HETATM    3  C3  LIG X 999      45.737 130.619  17.837  1.00  0.00     0.013 C 
HETATM    4  C4  LIG X 999      44.540 131.267  18.224  1.00  0.00    -0.013 C 
HETATM    5  C5  LIG X 999      43.650 131.667  17.187  1.00  0.00    -0.025 C 
HETATM    6  C6  LIG X 999      44.041 131.583  15.841  1.00  0.00     0.012 C 
HETATM    7  C7  LIG X 999      42.356 132.093  17.496  1.00  0.00     0.014 C 
HETATM    8  C8  LIG X 999      41.910 132.077  18.809  1.00  0.00     0.031 C 
HETATM    9  C9  LIG X 999      42.777 131.744  19.858  1.00  0.00     0.045 C 
HETATM   10  C10 LIG X 999      44.141 131.439  19.592  1.00  0.00     0.008 C 
HETATM   11  C11 LIG X 999      45.015 131.369  20.719  1.00  0.00    -0.045 C 
HETATM   12  C12 LIG X 999      46.518 131.495  20.636  1.00  0.00     0.049 C 
HETATM   13  C13 LIG X 999      44.471 131.322  22.011  1.00  0.00     0.056 C 
HETATM   14  C14 LIG X 999      43.090 131.484  22.215  1.00  0.00     0.101 C 
HETATM   15  N3  LIG X 999      42.298 131.737  21.136  1.00  0.00    -0.342 N 
HETATM   16  H28 LIG X 999      41.279 131.925  21.290  1.00  0.00     0.167 HD
ENDROOT
BRANCH  14  17
HETATM   17  N1  LIG X 999      42.549 131.442  23.412  1.00  0.00    -0.376 N 
HETATM   18  H11 LIG X 999      42.040 132.287  23.762  1.00  0.00     0.161 HD
BRANCH  17  19
HETATM   19  C15 LIG X 999      42.588 130.306  24.341  1.00  0.00     0.121 C 
BRANCH  19  20
HETATM   20  C16 LIG X 999      41.899 129.079  23.729  1.00  0.00     0.020 C 
BRANCH  20  21
HETATM   21  C17 LIG X 999      42.649 127.788  24.093  1.00  0.00     0.004 C 
BRANCH  21  22
HETATM   22  C18 LIG X 999      41.703 126.613  24.398  1.00  0.00     0.035 C 
BRANCH  22  23
HETATM   23  C19 LIG X 999      41.482 125.663  23.203  1.00  0.00     0.216 C 
HETATM   24  C21 LIG X 999      42.422 124.450  23.321  1.00  0.00     0.042 C 
BRANCH  23  25
HETATM   25  N2  LIG X 999      40.067 125.247  23.156  1.00  0.00     0.083 N 
HETATM   26  H21 LIG X 999      39.723 125.233  22.167  1.00  0.00     0.315 HD
HETATM   27  C20 LIG X 999      39.204 126.130  23.944  1.00  0.00     0.307 C 
ENDBRANCH  23  25
ENDBRANCH  22  23
ENDBRANCH  21  22
ENDBRANCH  20  21
ENDBRANCH  19  20
ENDBRANCH  17  19
ENDBRANCH  14  17
TORSDOF 7
ENDMDL
MODEL 3
REMARK VINA RESULT:      -6.9      2.299      7.590
REMARK  7 active torsions:
REMARK  status: ('A' for Active; 'I' for Inactive)
REMARK    1  A    between atoms: C14_14  and  N1_15 
REMARK    2  A    between atoms: N1_15  and  C15_17 
REMARK    3  A    between atoms: C15_17  and  C16_18 
REMARK    4  A    between atoms: C16_18  and  C17_19 
REMARK    5  A    between atoms: C17_19  and  C18_20 
REMARK    6  A    between atoms: C18_20  and  C19_21 
REMARK    7  A    between atoms: C19_21  and  N2_22 
ROOT
HETATM    1  C1  LIG X 999      42.246 123.787  24.046  1.00  0.00     0.001 C 
HETATM    2  C2  LIG X 999      41.295 124.803  24.050  1.00  0.00     0.001 C 
HETATM    3  C3  LIG X 999      41.664 126.116  23.747  1.00  0.00     0.013 C 
HETATM    4  C4  LIG X 999      43.012 126.454  23.481  1.00  0.00    -0.013 C 
HETATM    5  C5  LIG X 999      43.942 125.382  23.364  1.00  0.00    -0.025 C 
HETATM    6  C6  LIG X 999      43.561 124.069  23.684  1.00  0.00     0.012 C 
HETATM    7  C7  LIG X 999      45.228 125.618  22.872  1.00  0.00     0.014 C 
HETATM    8  C8  LIG X 999      45.590 126.886  22.442  1.00  0.00     0.031 C 
HETATM    9  C9  LIG X 999      44.720 127.973  22.596  1.00  0.00     0.045 C 
HETATM   10  C10 LIG X 999      43.454 127.795  23.221  1.00  0.00     0.008 C 
HETATM   11  C11 LIG X 999      42.740 128.980  23.577  1.00  0.00    -0.045 C 
HETATM   12  C12 LIG X 999      41.634 129.027  24.604  1.00  0.00     0.049 C 
HETATM   13  C13 LIG X 999      43.161 130.216  23.065  1.00  0.00     0.056 C 
HETATM   14  C14 LIG X 999      44.350 130.321  22.326  1.00  0.00     0.101 C 
HETATM   15  N3  LIG X 999      45.113 129.204  22.158  1.00  0.00    -0.342 N 
HETATM   16  H28 LIG X 999      46.033 129.289  21.665  1.00  0.00     0.167 HD
ENDROOT
BRANCH  14  17
HETATM   17  N1  LIG X 999      44.770 131.463  21.830  1.00  0.00    -0.376 N 
HETATM   18  H11 LIG X 999      44.485 132.351  22.306  1.00  0.00     0.161 HD
BRANCH  17  19
HETATM   19  C15 LIG X 999      45.615 131.634  20.642  1.00  0.00     0.121 C 
BRANCH  19  20
HETATM   20  C16 LIG X 999      44.760 131.711  19.371  1.00  0.00     0.020 C 
BRANCH  20  21
HETATM   21  C17 LIG X 999      45.367 130.858  18.247  1.00  0.00     0.004 C 
BRANCH  21  22
HETATM   22  C18 LIG X 999      45.430 131.601  16.900  1.00  0.00     0.035 C 
BRANCH  22  23
HETATM   23  C19 LIG X 999      46.121 130.800  15.777  1.00  0.00     0.216 C 
HETATM   24  C21 LIG X 999      45.371 129.476  15.545  1.00  0.00     0.042 C 
BRANCH  23  25
HETATM   25  N2  LIG X 999      46.171 131.614  14.547  1.00  0.00     0.083 N 
HETATM   26  H21 LIG X 999      45.235 131.629  14.080  1.00  0.00     0.315 HD
HETATM   27  C20 LIG X 999      47.166 131.115  13.595  1.00  0.00     0.307 C 
ENDBRANCH  23  25
ENDBRANCH  22  23
ENDBRANCH  21  22
ENDBRANCH  20  21
ENDBRANCH  19  20
ENDBRANCH  17  19
ENDBRANCH  14  17
TORSDOF 7
ENDMDL
MODEL 4
REMARK VINA RESULT:      -6.8      3.130      6.983
REMARK  7 active torsions:
REMARK  status: ('A' for Active; 'I' for Inactive)
REMARK    1  A    between atoms: C14_14  and  N1_15 
REMARK    2  A    between atoms: N1_15  and  C15_17 
REMARK    3  A    between atoms: C15_17  and  C16_18 
REMARK    4  A    between atoms: C16_18  and  C17_19 
REMARK    5  A    between atoms: C17_19  and  C18_20 
REMARK    6  A    between atoms: C18_20  and  C19_21 
REMARK    7  A    between atoms: C19_21  and  N2_22 
ROOT
HETATM    1  C1  LIG X 999      42.984 131.811  24.625  1.00  0.00     0.001 C 
HETATM    2  C2  LIG X 999      44.271 131.458  24.230  1.00  0.00     0.001 C 
HETATM    3  C3  LIG X 999      44.605 131.409  22.875  1.00  0.00     0.013 C 
HETATM    4  C4  LIG X 999      43.639 131.664  21.873  1.00  0.00    -0.013 C 
HETATM    5  C5  LIG X 999      42.366 132.140  22.301  1.00  0.00    -0.025 C 
HETATM    6  C6  LIG X 999      42.039 132.171  23.666  1.00  0.00     0.012 C 
HETATM    7  C7  LIG X 999      41.452 132.636  21.369  1.00  0.00     0.014 C 
HETATM    8  C8  LIG X 999      41.796 132.721  20.028  1.00  0.00     0.031 C 
HETATM    9  C9  LIG X 999      43.016 132.210  19.566  1.00  0.00     0.045 C 
HETATM   10  C10 LIG X 999      43.913 131.572  20.468  1.00  0.00     0.008 C 
HETATM   11  C11 LIG X 999      45.002 130.852  19.888  1.00  0.00    -0.045 C 
HETATM   12  C12 LIG X 999      45.785 129.777  20.604  1.00  0.00     0.049 C 
HETATM   13  C13 LIG X 999      45.297 131.028  18.528  1.00  0.00     0.056 C 
HETATM   14  C14 LIG X 999      44.455 131.791  17.702  1.00  0.00     0.101 C 
HETATM   15  N3  LIG X 999      43.318 132.316  18.240  1.00  0.00    -0.342 N 
HETATM   16  H28 LIG X 999      42.653 132.829  17.615  1.00  0.00     0.167 HD
ENDROOT
BRANCH  14  17
HETATM   17  N1  LIG X 999      44.706 131.978  16.426  1.00  0.00    -0.376 N 
HETATM   18  H11 LIG X 999      45.587 132.473  16.155  1.00  0.00     0.161 HD
BRANCH  17  19
HETATM   19  C15 LIG X 999      43.854 131.559  15.306  1.00  0.00     0.121 C 
BRANCH  19  20
HETATM   20  C16 LIG X 999      44.671 131.451  14.012  1.00  0.00     0.020 C 
BRANCH  20  21
HETATM   21  C17 LIG X 999      46.146 131.801  14.262  1.00  0.00     0.004 C 
BRANCH  21  22
HETATM   22  C18 LIG X 999      47.111 130.989  13.379  1.00  0.00     0.035 C 
BRANCH  22  23
HETATM   23  C19 LIG X 999      47.454 129.596  13.948  1.00  0.00     0.216 C 
HETATM   24  C21 LIG X 999      48.914 129.242  13.613  1.00  0.00     0.042 C 
BRANCH  23  25
HETATM   25  N2  LIG X 999      47.215 129.583  15.404  1.00  0.00     0.083 N 
HETATM   26  H21 LIG X 999      48.013 129.121  15.900  1.00  0.00     0.315 HD
HETATM   27  C20 LIG X 999      45.975 128.887  15.755  1.00  0.00     0.307 C 
ENDBRANCH  23  25
ENDBRANCH  22  23
ENDBRANCH  21  22
ENDBRANCH  20  21
ENDBRANCH  19  20
ENDBRANCH  17  19
ENDBRANCH  14  17
TORSDOF 7
ENDMDL
MODEL 5
REMARK VINA RESULT:      -6.2      5.901      8.810
REMARK  7 active torsions:
REMARK  status: ('A' for Active; 'I' for Inactive)
REMARK    1  A    between atoms: C14_14  and  N1_15 
REMARK    2  A    between atoms: N1_15  and  C15_17 
REMARK    3  A    between atoms: C15_17  and  C16_18 
REMARK    4  A    between atoms: C16_18  and  C17_19 
REMARK    5  A    between atoms: C17_19  and  C18_20 
REMARK    6  A    between atoms: C18_20  and  C19_21 
REMARK    7  A    between atoms: C19_21  and  N2_22 
ROOT
HETATM    1  C1  LIG X 999      53.364 138.242  23.690  1.00  0.00     0.001 C 
HETATM    2  C2  LIG X 999      52.320 138.787  22.948  1.00  0.00     0.001 C 
HETATM    3  C3  LIG X 999      51.230 137.996  22.576  1.00  0.00     0.013 C 
HETATM    4  C4  LIG X 999      51.183 136.619  22.896  1.00  0.00    -0.013 C 
HETATM    5  C5  LIG X 999      52.199 136.113  23.756  1.00  0.00    -0.025 C 
HETATM    6  C6  LIG X 999      53.296 136.916  24.111  1.00  0.00     0.012 C 
HETATM    7  C7  LIG X 999      52.085 134.833  24.303  1.00  0.00     0.014 C 
HETATM    8  C8  LIG X 999      50.956 134.066  24.058  1.00  0.00     0.031 C 
HETATM    9  C9  LIG X 999      49.965 134.509  23.172  1.00  0.00     0.045 C 
HETATM   10  C10 LIG X 999      50.116 135.749  22.489  1.00  0.00     0.008 C 
HETATM   11  C11 LIG X 999      49.207 136.007  21.418  1.00  0.00    -0.045 C 
HETATM   12  C12 LIG X 999      49.455 137.013  20.319  1.00  0.00     0.049 C 
HETATM   13  C13 LIG X 999      48.071 135.198  21.269  1.00  0.00     0.056 C 
HETATM   14  C14 LIG X 999      47.891 134.057  22.069  1.00  0.00     0.101 C 
HETATM   15  N3  LIG X 999      48.868 133.726  22.960  1.00  0.00    -0.342 N 
HETATM   16  H28 LIG X 999      48.771 132.841  23.511  1.00  0.00     0.167 HD
ENDROOT
BRANCH  14  17
HETATM   17  N1  LIG X 999      46.837 133.281  21.956  1.00  0.00    -0.376 N 
HETATM   18  H11 LIG X 999      46.035 133.425  22.613  1.00  0.00     0.161 HD
BRANCH  17  19
HETATM   19  C15 LIG X 999      46.661 132.196  20.982  1.00  0.00     0.121 C 
BRANCH  19  20
HETATM   20  C16 LIG X 999      45.173 131.875  20.789  1.00  0.00     0.020 C 
BRANCH  20  21
HETATM   21  C17 LIG X 999      44.850 131.638  19.306  1.00  0.00     0.004 C 
BRANCH  21  22
HETATM   22  C18 LIG X 999      45.813 130.643  18.635  1.00  0.00     0.035 C 
BRANCH  22  23
HETATM   23  C19 LIG X 999      45.560 130.450  17.126  1.00  0.00     0.216 C 
HETATM   24  C21 LIG X 999      45.317 131.816  16.459  1.00  0.00     0.042 C 
BRANCH  23  25
HETATM   25  N2  LIG X 999      46.706 129.748  16.516  1.00  0.00     0.083 N 
HETATM   26  H21 LIG X 999      47.582 129.940  17.058  1.00  0.00     0.315 HD
HETATM   27  C20 LIG X 999      46.919 130.144  15.122  1.00  0.00     0.307 C 
ENDBRANCH  23  25
ENDBRANCH  22  23
ENDBRANCH  21  22
ENDBRANCH  20  21
ENDBRANCH  19  20
ENDBRANCH  17  19
ENDBRANCH  14  17
TORSDOF 7
ENDMDL
MODEL 6
REMARK VINA RESULT:      -6.0      2.116      4.642
REMARK  7 active torsions:
REMARK  status: ('A' for Active; 'I' for Inactive)
REMARK    1  A    between atoms: C14_14  and  N1_15 
REMARK    2  A    between atoms: N1_15  and  C15_17 
REMARK    3  A    between atoms: C15_17  and  C16_18 
REMARK    4  A    between atoms: C16_18  and  C17_19 
REMARK    5  A    between atoms: C17_19  and  C18_20 
REMARK    6  A    between atoms: C18_20  and  C19_21 
REMARK    7  A    between atoms: C19_21  and  N2_22 
ROOT
HETATM    1  C1  LIG X 999      48.198 130.043  13.045  1.00  0.00     0.001 C 
HETATM    2  C2  LIG X 999      47.239 130.962  12.631  1.00  0.00     0.001 C 
HETATM    3  C3  LIG X 999      46.194 131.325  13.485  1.00  0.00     0.013 C 
HETATM    4  C4  LIG X 999      46.055 130.734  14.763  1.00  0.00    -0.013 C 
HETATM    5  C5  LIG X 999      47.112 129.890  15.210  1.00  0.00    -0.025 C 
HETATM    6  C6  LIG X 999      48.149 129.523  14.336  1.00  0.00     0.012 C 
HETATM    7  C7  LIG X 999      47.159 129.466  16.540  1.00  0.00     0.014 C 
HETATM    8  C8  LIG X 999      46.209 129.909  17.448  1.00  0.00     0.031 C 
HETATM    9  C9  LIG X 999      45.125 130.691  17.030  1.00  0.00     0.045 C 
HETATM   10  C10 LIG X 999      44.970 131.026  15.656  1.00  0.00     0.008 C 
HETATM   11  C11 LIG X 999      43.718 131.596  15.270  1.00  0.00    -0.045 C 
HETATM   12  C12 LIG X 999      43.196 131.614  13.854  1.00  0.00     0.049 C 
HETATM   13  C13 LIG X 999      42.834 132.048  16.260  1.00  0.00     0.056 C 
HETATM   14  C14 LIG X 999      43.100 131.821  17.620  1.00  0.00     0.101 C 
HETATM   15  N3  LIG X 999      44.213 131.108  17.956  1.00  0.00    -0.342 N 
HETATM   16  H28 LIG X 999      44.382 130.879  18.963  1.00  0.00     0.167 HD
ENDROOT
BRANCH  14  17
HETATM   17  N1  LIG X 999      42.294 132.234  18.572  1.00  0.00    -0.376 N 
HETATM   18  H11 LIG X 999      41.267 132.274  18.376  1.00  0.00     0.161 HD
BRANCH  17  19
HETATM   19  C15 LIG X 999      42.691 132.663  19.918  1.00  0.00     0.121 C 
BRANCH  19  20
HETATM   20  C16 LIG X 999      43.071 131.456  20.785  1.00  0.00     0.020 C 
BRANCH  20  21
HETATM   21  C17 LIG X 999      42.848 131.756  22.275  1.00  0.00     0.004 C 
BRANCH  21  22
HETATM   22  C18 LIG X 999      43.572 130.761  23.200  1.00  0.00     0.035 C 
BRANCH  22  23
HETATM   23  C19 LIG X 999      42.915 129.366  23.252  1.00  0.00     0.216 C 
HETATM   24  C21 LIG X 999      43.858 128.371  23.951  1.00  0.00     0.042 C 
BRANCH  23  25
HETATM   25  N2  LIG X 999      41.616 129.457  23.947  1.00  0.00     0.083 N 
HETATM   26  H21 LIG X 999      41.745 129.830  24.916  1.00  0.00     0.315 HD
HETATM   27  C20 LIG X 999      40.940 128.159  24.027  1.00  0.00     0.307 C 
ENDBRANCH  23  25
ENDBRANCH  22  23
ENDBRANCH  21  22
ENDBRANCH  20  21
ENDBRANCH  19  20
ENDBRANCH  17  19
ENDBRANCH  14  17
TORSDOF 7
ENDMDL
MODEL 7
REMARK VINA RESULT:      -6.0      3.156      7.088
REMARK  7 active torsions:
REMARK  status: ('A' for Active; 'I' for Inactive)
REMARK    1  A    between atoms: C14_14  and  N1_15 
REMARK    2  A    between atoms: N1_15  and  C15_17 
REMARK    3  A    between atoms: C15_17  and  C16_18 
REMARK    4  A    between atoms: C16_18  and  C17_19 
REMARK    5  A    between atoms: C17_19  and  C18_20 
REMARK    6  A    between atoms: C18_20  and  C19_21 
REMARK    7  A    between atoms: C19_21  and  N2_22 
ROOT
HETATM    1  C1  LIG X 999      43.603 131.242  24.619  1.00  0.00     0.001 C 
HETATM    2  C2  LIG X 999      42.352 131.503  24.069  1.00  0.00     0.001 C 
HETATM    3  C3  LIG X 999      42.208 131.666  22.689  1.00  0.00     0.013 C 
HETATM    4  C4  LIG X 999      43.329 131.623  21.826  1.00  0.00    -0.013 C 
HETATM    5  C5  LIG X 999      44.576 131.236  22.396  1.00  0.00    -0.025 C 
HETATM    6  C6  LIG X 999      44.709 131.088  23.786  1.00  0.00     0.012 C 
HETATM    7  C7  LIG X 999      45.664 130.942  21.571  1.00  0.00     0.014 C 
HETATM    8  C8  LIG X 999      45.524 130.970  20.192  1.00  0.00     0.031 C 
HETATM    9  C9  LIG X 999      44.330 131.402  19.600  1.00  0.00     0.045 C 
HETATM   10  C10 LIG X 999      43.246 131.841  20.411  1.00  0.00     0.008 C 
HETATM   11  C11 LIG X 999      42.173 132.506  19.742  1.00  0.00    -0.045 C 
HETATM   12  C12 LIG X 999      41.176 133.410  20.429  1.00  0.00     0.049 C 
HETATM   13  C13 LIG X 999      42.094 132.451  18.343  1.00  0.00     0.056 C 
HETATM   14  C14 LIG X 999      43.127 131.875  17.587  1.00  0.00     0.101 C 
HETATM   15  N3  LIG X 999      44.231 131.412  18.239  1.00  0.00    -0.342 N 
HETATM   16  H28 LIG X 999      45.033 131.043  17.676  1.00  0.00     0.167 HD
ENDROOT
BRANCH  14  17
HETATM   17  N1  LIG X 999      43.082 131.805  16.276  1.00  0.00    -0.376 N 
HETATM   18  H11 LIG X 999      42.170 131.981  15.795  1.00  0.00     0.161 HD
BRANCH  17  19
HETATM   19  C15 LIG X 999      44.207 131.492  15.386  1.00  0.00     0.121 C 
BRANCH  19  20
HETATM   20  C16 LIG X 999      45.407 132.401  15.685  1.00  0.00     0.020 C 
BRANCH  20  21
HETATM   21  C17 LIG X 999      46.587 132.077  14.756  1.00  0.00     0.004 C 
BRANCH  21  22
HETATM   22  C18 LIG X 999      46.312 130.874  13.836  1.00  0.00     0.035 C 
BRANCH  22  23
HETATM   23  C19 LIG X 999      47.055 129.588  14.252  1.00  0.00     0.216 C 
HETATM   24  C21 LIG X 999      48.394 129.492  13.499  1.00  0.00     0.042 C 
BRANCH  23  25
HETATM   25  N2  LIG X 999      47.256 129.582  15.714  1.00  0.00     0.083 N 
HETATM   26  H21 LIG X 999      48.028 128.924  15.974  1.00  0.00     0.315 HD
HETATM   27  C20 LIG X 999      46.043 129.197  16.438  1.00  0.00     0.307 C 
ENDBRANCH  23  25
ENDBRANCH  22  23
ENDBRANCH  21  22
ENDBRANCH  20  21
ENDBRANCH  19  20
ENDBRANCH  17  19
ENDBRANCH  14  17
TORSDOF 7
ENDMDL
MODEL 8
REMARK VINA RESULT:      -6.0      1.553      2.995
REMARK  7 active torsions:
REMARK  status: ('A' for Active; 'I' for Inactive)
REMARK    1  A    between atoms: C14_14  and  N1_15 
REMARK    2  A    between atoms: N1_15  and  C15_17 
REMARK    3  A    between atoms: C15_17  and  C16_18 
REMARK    4  A    between atoms: C16_18  and  C17_19 
REMARK    5  A    between atoms: C17_19  and  C18_20 
REMARK    6  A    between atoms: C18_20  and  C19_21 
REMARK    7  A    between atoms: C19_21  and  N2_22 
ROOT
HETATM    1  C1  LIG X 999      44.527 130.956  14.074  1.00  0.00     0.001 C 
HETATM    2  C2  LIG X 999      43.626 131.843  14.653  1.00  0.00     0.001 C 
HETATM    3  C3  LIG X 999      43.569 131.986  16.041  1.00  0.00     0.013 C 
HETATM    4  C4  LIG X 999      44.383 131.201  16.892  1.00  0.00    -0.013 C 
HETATM    5  C5  LIG X 999      45.379 130.391  16.275  1.00  0.00    -0.025 C 
HETATM    6  C6  LIG X 999      45.416 130.247  14.879  1.00  0.00     0.012 C 
HETATM    7  C7  LIG X 999      46.366 129.779  17.050  1.00  0.00     0.014 C 
HETATM    8  C8  LIG X 999      46.418 130.000  18.419  1.00  0.00     0.031 C 
HETATM    9  C9  LIG X 999      45.421 130.743  19.064  1.00  0.00     0.045 C 
HETATM   10  C10 LIG X 999      44.324 131.266  18.324  1.00  0.00     0.008 C 
HETATM   11  C11 LIG X 999      43.226 131.781  19.080  1.00  0.00    -0.045 C 
HETATM   12  C12 LIG X 999      41.832 131.967  18.530  1.00  0.00     0.049 C 
HETATM   13  C13 LIG X 999      43.383 132.005  20.455  1.00  0.00     0.056 C 
HETATM   14  C14 LIG X 999      44.551 131.599  21.121  1.00  0.00     0.101 C 
HETATM   15  N3  LIG X 999      45.510 130.940  20.411  1.00  0.00    -0.342 N 
HETATM   16  H28 LIG X 999      46.352 130.577  20.916  1.00  0.00     0.167 HD
ENDROOT
BRANCH  14  17
HETATM   17  N1  LIG X 999      44.729 131.797  22.408  1.00  0.00    -0.376 N 
HETATM   18  H11 LIG X 999      45.448 132.493  22.714  1.00  0.00     0.161 HD
BRANCH  17  19
HETATM   19  C15 LIG X 999      44.010 131.122  23.496  1.00  0.00     0.121 C 
BRANCH  19  20
HETATM   20  C16 LIG X 999      44.192 129.602  23.407  1.00  0.00     0.020 C 
BRANCH  20  21
HETATM   21  C17 LIG X 999      42.837 128.880  23.487  1.00  0.00     0.004 C 
BRANCH  21  22
HETATM   22  C18 LIG X 999      42.973 127.396  23.871  1.00  0.00     0.035 C 
BRANCH  22  23
HETATM   23  C19 LIG X 999      41.629 126.640  23.923  1.00  0.00     0.216 C 
HETATM   24  C21 LIG X 999      40.488 127.573  23.479  1.00  0.00     0.042 C 
BRANCH  23  25
HETATM   25  N2  LIG X 999      41.704 125.437  23.071  1.00  0.00     0.083 N 
HETATM   26  H21 LIG X 999      41.305 124.609  23.573  1.00  0.00     0.315 HD
HETATM   27  C20 LIG X 999      43.079 125.127  22.671  1.00  0.00     0.307 C 
ENDBRANCH  23  25
ENDBRANCH  22  23
ENDBRANCH  21  22
ENDBRANCH  20  21
ENDBRANCH  19  20
ENDBRANCH  17  19
ENDBRANCH  14  17
TORSDOF 7
ENDMDL
MODEL 9
REMARK VINA RESULT:      -4.9      5.610      8.375
REMARK  7 active torsions:
REMARK  status: ('A' for Active; 'I' for Inactive)
REMARK    1  A    between atoms: C14_14  and  N1_15 
REMARK    2  A    between atoms: N1_15  and  C15_17 
REMARK    3  A    between atoms: C15_17  and  C16_18 
REMARK    4  A    between atoms: C16_18  and  C17_19 
REMARK    5  A    between atoms: C17_19  and  C18_20 
REMARK    6  A    between atoms: C18_20  and  C19_21 
REMARK    7  A    between atoms: C19_21  and  N2_22 
ROOT
HETATM    1  C1  LIG X 999      53.413 137.652  23.170  1.00  0.00     0.001 C 
HETATM    2  C2  LIG X 999      53.303 136.358  23.670  1.00  0.00     0.001 C 
HETATM    3  C3  LIG X 999      52.152 135.604  23.432  1.00  0.00     0.013 C 
HETATM    4  C4  LIG X 999      51.054 136.149  22.725  1.00  0.00    -0.013 C 
HETATM    5  C5  LIG X 999      51.236 137.426  22.121  1.00  0.00    -0.025 C 
HETATM    6  C6  LIG X 999      52.393 138.179  22.380  1.00  0.00     0.012 C 
HETATM    7  C7  LIG X 999      50.291 137.917  21.217  1.00  0.00     0.014 C 
HETATM    8  C8  LIG X 999      49.198 137.143  20.859  1.00  0.00     0.031 C 
HETATM    9  C9  LIG X 999      48.958 135.909  21.476  1.00  0.00     0.045 C 
HETATM   10  C10 LIG X 999      49.826 135.440  22.502  1.00  0.00     0.008 C 
HETATM   11  C11 LIG X 999      49.377 134.314  23.259  1.00  0.00    -0.045 C 
HETATM   12  C12 LIG X 999      49.908 133.944  24.623  1.00  0.00     0.049 C 
HETATM   13  C13 LIG X 999      48.282 133.569  22.799  1.00  0.00     0.056 C 
HETATM   14  C14 LIG X 999      47.538 133.996  21.687  1.00  0.00     0.101 C 
HETATM   15  N3  LIG X 999      47.873 135.176  21.093  1.00  0.00    -0.342 N 
HETATM   16  H28 LIG X 999      47.281 135.532  20.307  1.00  0.00     0.167 HD
ENDROOT
BRANCH  14  17
HETATM   17  N1  LIG X 999      46.509 133.318  21.230  1.00  0.00    -0.376 N 
HETATM   18  H11 LIG X 999      45.680 133.846  20.870  1.00  0.00     0.161 HD
BRANCH  17  19
HETATM   19  C15 LIG X 999      46.391 131.856  21.173  1.00  0.00     0.121 C 
BRANCH  19  20
HETATM   20  C16 LIG X 999      44.988 131.441  20.712  1.00  0.00     0.020 C 
BRANCH  20  21
HETATM   21  C17 LIG X 999      44.836 131.610  19.192  1.00  0.00     0.004 C 
BRANCH  21  22
HETATM   22  C18 LIG X 999      45.709 130.627  18.391  1.00  0.00     0.035 C 
BRANCH  22  23
HETATM   23  C19 LIG X 999      45.313 130.510  16.905  1.00  0.00     0.216 C 
HETATM   24  C21 LIG X 999      44.263 131.581  16.559  1.00  0.00     0.042 C 
BRANCH  23  25
HETATM   25  N2  LIG X 999      46.515 130.640  16.059  1.00  0.00     0.083 N 
HETATM   26  H21 LIG X 999      47.348 130.885  16.645  1.00  0.00     0.315 HD
HETATM   27  C20 LIG X 999      46.352 131.660  15.020  1.00  0.00     0.307 C 
ENDBRANCH  23  25
ENDBRANCH  22  23
ENDBRANCH  21  22
ENDBRANCH  20  21
ENDBRANCH  19  20
ENDBRANCH  17  19
ENDBRANCH  14  17
TORSDOF 7
ENDMDL
