MODEL 1
REMARK VINA RESULT:      -8.3      0.000      0.000
REMARK  5 active torsions:
REMARK  status: ('A' for Active; 'I' for Inactive)
REMARK    1  A    between atoms: C3_3  and  O1_4 
REMARK    2  A    between atoms: O1_4  and  C4_5 
REMARK    3  A    between atoms: C5_6  and  C6_7 
REMARK    4  A    between atoms: C6_7  and  O2_8 
REMARK    5  A    between atoms: C10_13  and  N1_14 
ROOT
HETATM    1  C1  LIG X 999      48.511 129.503  13.366  1.00  0.00     0.014 C 
HETATM    2  C2  LIG X 999      47.593 129.471  14.147  1.00  0.00    -0.091 C 
HETATM    3  C3  LIG X 999      46.480 129.434  15.096  1.00  0.00     0.268 C 
ENDROOT
BRANCH   3   4
HETATM    4  O1  LIG X 999      46.409 130.681  15.782  1.00  0.00    -0.339 OA
BRANCH   4   5
HETATM    5  C4  LIG X 999      45.561 130.948  16.869  1.00  0.00     0.079 A 
HETATM    6  C5  LIG X 999      44.257 131.419  16.612  1.00  0.00    -0.001 A 
HETATM    7  C7  LIG X 999      43.399 131.721  17.681  1.00  0.00     0.024 A 
HETATM    8  C8  LIG X 999      43.815 131.535  19.005  1.00  0.00    -0.023 A 
HETATM    9  C9  LIG X 999      42.953 131.829  20.074  1.00  0.00     0.046 A 
HETATM   10  C13 LIG X 999      45.116 131.047  19.267  1.00  0.00    -0.023 A 
HETATM   11  C10 LIG X 999      43.377 131.639  21.402  1.00  0.00     0.094 A 
HETATM   12  C11 LIG X 999      44.667 131.154  21.651  1.00  0.00     0.035 A 
HETATM   13  C12 LIG X 999      45.532 130.861  20.593  1.00  0.00     0.014 A 
HETATM   14  C14 LIG X 999      45.979 130.759  18.201  1.00  0.00     0.049 A 
BRANCH   6  15
HETATM   15  C6  LIG X 999      43.794 131.653  15.196  1.00  0.00     0.205 C 
BRANCH  15  16
HETATM   16  O2  LIG X 999      44.764 132.376  14.487  1.00  0.00    -0.396 OA
HETATM   17  H6  LIG X 999      45.563 132.428  15.073  1.00  0.00     0.209 HD
ENDBRANCH  15  16
ENDBRANCH   6  15
BRANCH  11  18
HETATM   18  N1  LIG X 999      42.523 131.928  22.517  1.00  0.00    -0.073 NA
HETATM   19  N2  LIG X 999      42.563 131.279  23.564  1.00  0.00    -0.162 NA
HETATM   20  N3  LIG X 999      42.601 130.632  24.609  1.00  0.00     0.068 N 
ENDBRANCH  11  18
ENDBRANCH   4   5
ENDBRANCH   3   4
TORSDOF 5
ENDMDL
MODEL 2
REMARK VINA RESULT:      -7.9      4.893      7.340
REMARK  5 active torsions:
REMARK  status: ('A' for Active; 'I' for Inactive)
REMARK    1  A    between atoms: C3_3  and  O1_4 
REMARK    2  A    between atoms: O1_4  and  C4_5 
REMARK    3  A    between atoms: C5_6  and  C6_7 
REMARK    4  A    between atoms: C6_7  and  O2_8 
REMARK    5  A    between atoms: C10_13  and  N1_14 
ROOT
HETATM    1  C1  LIG X 999      43.031 132.098  23.907  1.00  0.00     0.014 C 
HETATM    2  C2  LIG X 999      42.939 131.588  22.819  1.00  0.00    -0.091 C 
HETATM    3  C3  LIG X 999      42.826 130.969  21.498  1.00  0.00     0.268 C 
ENDROOT
BRANCH   3   4
HETATM    4  O1  LIG X 999      43.185 131.923  20.503  1.00  0.00    -0.339 OA
BRANCH   4   5
HETATM    5  C4  LIG X 999      43.915 131.630  19.340  1.00  0.00     0.079 A 
HETATM    6  C5  LIG X 999      45.223 131.120  19.471  1.00  0.00    -0.001 A 
HETATM    7  C7  LIG X 999      45.985 130.846  18.324  1.00  0.00     0.024 A 
HETATM    8  C8  LIG X 999      45.449 131.048  17.046  1.00  0.00    -0.023 A 
HETATM    9  C9  LIG X 999      46.209 130.765  15.899  1.00  0.00     0.046 A 
HETATM   10  C13 LIG X 999      44.132 131.543  16.910  1.00  0.00    -0.023 A 
HETATM   11  C10 LIG X 999      45.664 130.969  14.617  1.00  0.00     0.094 A 
HETATM   12  C11 LIG X 999      44.359 131.459  14.494  1.00  0.00     0.035 A 
HETATM   13  C12 LIG X 999      43.597 131.744  15.630  1.00  0.00     0.014 A 
HETATM   14  C14 LIG X 999      43.376 131.831  18.054  1.00  0.00     0.049 A 
BRANCH   6  15
HETATM   15  C6  LIG X 999      45.833 130.919  20.835  1.00  0.00     0.205 C 
BRANCH  15  16
HETATM   16  O2  LIG X 999      46.230 132.152  21.370  1.00  0.00    -0.396 OA
HETATM   17  H6  LIG X 999      45.406 132.598  21.697  1.00  0.00     0.209 HD
ENDBRANCH  15  16
ENDBRANCH   6  15
BRANCH  11  18
HETATM   18  N1  LIG X 999      46.411 130.690  13.426  1.00  0.00    -0.073 NA
HETATM   19  N2  LIG X 999      47.462 130.046  13.442  1.00  0.00    -0.162 NA
HETATM   20  N3  LIG X 999      48.510 129.404  13.456  1.00  0.00     0.068 N 
ENDBRANCH  11  18
ENDBRANCH   4   5
ENDBRANCH   3   4
TORSDOF 5
ENDMDL
MODEL 3
REMARK VINA RESULT:      -7.7      4.655      6.735
REMARK  5 active torsions:
REMARK  status: ('A' for Active; 'I' for Inactive)
REMARK    1  A    between atoms: C3_3  and  O1_4 
REMARK    2  A    between atoms: O1_4  and  C4_5 
REMARK    3  A    between atoms: C5_6  and  C6_7 
REMARK    4  A    between atoms: C6_7  and  O2_8 
REMARK    5  A    between atoms: C10_13  and  N1_14 
ROOT
HETATM    1  C1  LIG X 999      45.037 127.800  22.781  1.00  0.00     0.014 C 
HETATM    2  C2  LIG X 999      44.453 128.853  22.748  1.00  0.00    -0.091 C 
HETATM    3  C3  LIG X 999      43.745 130.134  22.708  1.00  0.00     0.268 C 
ENDROOT
BRANCH   3   4
HETATM    4  O1  LIG X 999      44.514 131.069  21.959  1.00  0.00    -0.339 OA
BRANCH   4   5
HETATM    5  C4  LIG X 999      44.501 131.175  20.558  1.00  0.00     0.079 A 
HETATM    6  C5  LIG X 999      43.459 131.898  19.942  1.00  0.00    -0.001 A 
HETATM    7  C7  LIG X 999      43.407 131.994  18.542  1.00  0.00     0.024 A 
HETATM    8  C8  LIG X 999      44.396 131.399  17.748  1.00  0.00    -0.023 A 
HETATM    9  C9  LIG X 999      44.348 131.503  16.349  1.00  0.00     0.046 A 
HETATM   10  C13 LIG X 999      45.450 130.686  18.363  1.00  0.00    -0.023 A 
HETATM   11  C10 LIG X 999      45.344 130.903  15.557  1.00  0.00     0.094 A 
HETATM   12  C11 LIG X 999      46.385 130.201  16.175  1.00  0.00     0.035 A 
HETATM   13  C12 LIG X 999      46.440 130.091  17.567  1.00  0.00     0.014 A 
HETATM   14  C14 LIG X 999      45.496 130.578  19.759  1.00  0.00     0.049 A 
BRANCH   6  15
HETATM   15  C6  LIG X 999      42.369 132.525  20.773  1.00  0.00     0.205 C 
BRANCH  15  16
HETATM   16  O2  LIG X 999      41.524 133.292  19.958  1.00  0.00    -0.396 OA
HETATM   17  H6  LIG X 999      41.045 132.655  19.367  1.00  0.00     0.209 HD
ENDBRANCH  15  16
ENDBRANCH   6  15
BRANCH  11  18
HETATM   18  N1  LIG X 999      45.326 130.990  14.126  1.00  0.00    -0.073 NA
HETATM   19  N2  LIG X 999      46.359 130.987  13.452  1.00  0.00    -0.162 NA
HETATM   20  N3  LIG X 999      47.387 130.984  12.779  1.00  0.00     0.068 N 
ENDBRANCH  11  18
ENDBRANCH   4   5
ENDBRANCH   3   4
TORSDOF 5
ENDMDL
MODEL 4
REMARK VINA RESULT:      -7.5      1.292      2.408
REMARK  5 active torsions:
REMARK  status: ('A' for Active; 'I' for Inactive)
REMARK    1  A    between atoms: C3_3  and  O1_4 
REMARK    2  A    between atoms: O1_4  and  C4_5 
REMARK    3  A    between atoms: C5_6  and  C6_7 
REMARK    4  A    between atoms: C6_7  and  O2_8 
REMARK    5  A    between atoms: C10_13  and  N1_14 
ROOT
HETATM    1  C1  LIG X 999      47.031 130.898  13.384  1.00  0.00     0.014 C 
HETATM    2  C2  LIG X 999      46.069 131.381  13.927  1.00  0.00    -0.091 C 
HETATM    3  C3  LIG X 999      44.901 131.967  14.586  1.00  0.00     0.268 C 
ENDROOT
BRANCH   3   4
HETATM    4  O1  LIG X 999      44.326 131.001  15.461  1.00  0.00    -0.339 OA
BRANCH   4   5
HETATM    5  C4  LIG X 999      44.373 131.066  16.864  1.00  0.00     0.079 A 
HETATM    6  C5  LIG X 999      45.469 130.483  17.533  1.00  0.00    -0.001 A 
HETATM    7  C7  LIG X 999      45.525 130.508  18.935  1.00  0.00     0.024 A 
HETATM    8  C8  LIG X 999      44.515 131.131  19.680  1.00  0.00    -0.023 A 
HETATM    9  C9  LIG X 999      44.577 131.164  21.083  1.00  0.00     0.046 A 
HETATM   10  C13 LIG X 999      43.424 131.731  19.012  1.00  0.00    -0.023 A 
HETATM   11  C10 LIG X 999      43.560 131.791  21.825  1.00  0.00     0.094 A 
HETATM   12  C11 LIG X 999      42.483 132.383  21.153  1.00  0.00     0.035 A 
HETATM   13  C12 LIG X 999      42.413 132.354  19.758  1.00  0.00     0.014 A 
HETATM   14  C14 LIG X 999      43.359 131.693  17.613  1.00  0.00     0.049 A 
BRANCH   6  15
HETATM   15  C6  LIG X 999      46.555 129.784  16.756  1.00  0.00     0.205 C 
BRANCH  15  16
HETATM   16  O2  LIG X 999      45.999 128.787  15.943  1.00  0.00    -0.396 OA
HETATM   17  H6  LIG X 999      46.750 128.386  15.432  1.00  0.00     0.209 HD
ENDBRANCH  15  16
ENDBRANCH   6  15
BRANCH  11  18
HETATM   18  N1  LIG X 999      43.591 131.844  23.257  1.00  0.00    -0.073 NA
HETATM   19  N2  LIG X 999      44.025 130.915  23.941  1.00  0.00    -0.162 NA
HETATM   20  N3  LIG X 999      44.458 129.989  24.625  1.00  0.00     0.068 N 
ENDBRANCH  11  18
ENDBRANCH   4   5
ENDBRANCH   3   4
TORSDOF 5
ENDMDL
MODEL 5
REMARK VINA RESULT:      -6.0      4.630      6.957
REMARK  5 active torsions:
REMARK  status: ('A' for Active; 'I' for Inactive)
REMARK    1  A    between atoms: C3_3  and  O1_4 
REMARK    2  A    between atoms: O1_4  and  C4_5 
REMARK    3  A    between atoms: C5_6  and  C6_7 
REMARK    4  A    between atoms: C6_7  and  O2_8 
REMARK    5  A    between atoms: C10_13  and  N1_14 
ROOT
HETATM    1  C1  LIG X 999      45.726 126.849  23.753  1.00  0.00     0.014 C 
HETATM    2  C2  LIG X 999      44.982 127.763  24.005  1.00  0.00    -0.091 C 
HETATM    3  C3  LIG X 999      44.079 128.873  24.312  1.00  0.00     0.268 C 
ENDROOT
BRANCH   3   4
HETATM    4  O1  LIG X 999      44.616 130.075  23.770  1.00  0.00    -0.339 OA
BRANCH   4   5
HETATM    5  C4  LIG X 999      44.414 130.518  22.453  1.00  0.00     0.079 A 
HETATM    6  C5  LIG X 999      43.337 131.388  22.188  1.00  0.00    -0.001 A 
HETATM    7  C7  LIG X 999      43.095 131.822  20.875  1.00  0.00     0.024 A 
HETATM    8  C8  LIG X 999      43.931 131.421  19.825  1.00  0.00    -0.023 A 
HETATM    9  C9  LIG X 999      43.695 131.863  18.513  1.00  0.00     0.046 A 
HETATM   10  C13 LIG X 999      45.022 130.562  20.089  1.00  0.00    -0.023 A 
HETATM   11  C10 LIG X 999      44.539 131.457  17.463  1.00  0.00     0.094 A 
HETATM   12  C11 LIG X 999      45.617 130.607  17.735  1.00  0.00     0.035 A 
HETATM   13  C12 LIG X 999      45.859 130.161  19.037  1.00  0.00     0.014 A 
HETATM   14  C14 LIG X 999      45.256 130.116  21.397  1.00  0.00     0.049 A 
BRANCH   6  15
HETATM   15  C6  LIG X 999      42.407 131.813  23.295  1.00  0.00     0.205 C 
BRANCH  15  16
HETATM   16  O2  LIG X 999      41.667 130.713  23.751  1.00  0.00    -0.396 OA
HETATM   17  H6  LIG X 999      42.274 129.929  23.713  1.00  0.00     0.209 HD
ENDBRANCH  15  16
ENDBRANCH   6  15
BRANCH  11  18
HETATM   18  N1  LIG X 999      44.326 131.889  16.112  1.00  0.00    -0.073 NA
HETATM   19  N2  LIG X 999      45.133 131.655  15.210  1.00  0.00    -0.162 NA
HETATM   20  N3  LIG X 999      45.937 131.422  14.310  1.00  0.00     0.068 N 
ENDBRANCH  11  18
ENDBRANCH   4   5
ENDBRANCH   3   4
TORSDOF 5
ENDMDL
