REMARK VINA RESULT:      -4.3      3.665      7.093
REMARK  6 active torsions:
REMARK  status: ('A' for Active; 'I' for Inactive)
REMARK    1  A    between atoms: S1_2  and  C1_3 
REMARK    2  A    between atoms: C1_3  and  N2_15 
REMARK    3  A    between atoms: N1_4  and  C2_5 
REMARK    4  A    between atoms: N2_15  and  C12_18 
REMARK    5  A    between atoms: C13_19  and  C14_20 
REMARK    6  A    between atoms: C14_20  and  O2_22 
ROOT
HETATM    1  C1  LIG X 999      45.334 131.661  21.449  1.00  0.00     0.266 C 
HETATM    2  N1  LIG X 999      44.895 131.359  22.638  1.00  0.00    -0.219 NA
ENDROOT
BRANCH   1   3
HETATM    3  S1  LIG X 999      46.215 133.206  21.238  1.00  0.00    -0.098 SA
HETATM    4  H1  LIG X 999      45.049 133.960  21.462  1.00  0.00     0.110 HD
ENDBRANCH   1   3
BRANCH   1   5
HETATM    5  N2  LIG X 999      45.168 130.776  20.319  1.00  0.00     0.010 N 
HETATM    6  H9  LIG X 999      44.884 129.828  20.659  1.00  0.00     0.293 HD
HETATM    7  H10 LIG X 999      46.087 130.675  19.843  1.00  0.00     0.293 HD
BRANCH   5   8
HETATM    8  C12 LIG X 999      44.130 131.259  19.437  1.00  0.00     0.164 A 
HETATM    9  C13 LIG X 999      44.262 131.430  18.047  1.00  0.00     0.114 A 
HETATM   10  S2  LIG X 999      42.827 132.094  17.474  1.00  0.00    -0.094 SA
HETATM   11  C16 LIG X 999      42.014 132.140  18.939  1.00  0.00     0.053 A 
HETATM   12  C17 LIG X 999      42.859 131.638  19.917  1.00  0.00     0.046 A 
BRANCH   9  13
HETATM   13  C14 LIG X 999      45.391 131.088  17.163  1.00  0.00     0.302 C 
HETATM   14  O1  LIG X 999      45.999 129.990  17.282  1.00  0.00    -0.259 OA
BRANCH  13  15
HETATM   15  O2  LIG X 999      45.753 131.983  16.152  1.00  0.00    -0.322 OA
HETATM   16  C15 LIG X 999      46.385 131.568  14.948  1.00  0.00     0.213 C 
ENDBRANCH  13  15
ENDBRANCH   9  13
ENDBRANCH   5   8
ENDBRANCH   1   5
BRANCH   2  17
HETATM   17  C2  LIG X 999      44.144 130.184  22.964  1.00  0.00     0.060 A 
HETATM   18  C3  LIG X 999      42.820 130.308  23.399  1.00  0.00     0.032 A 
HETATM   19  C4  LIG X 999      42.075 129.174  23.729  1.00  0.00     0.014 A 
HETATM   20  C5  LIG X 999      42.643 127.897  23.602  1.00  0.00    -0.026 A 
HETATM   21  C6  LIG X 999      41.905 126.749  23.930  1.00  0.00     0.012 A 
HETATM   22  C10 LIG X 999      43.974 127.765  23.134  1.00  0.00    -0.024 A 
HETATM   23  C7  LIG X 999      42.478 125.482  23.785  1.00  0.00     0.001 A 
HETATM   24  C8  LIG X 999      43.789 125.352  23.316  1.00  0.00     0.001 A 
HETATM   25  C9  LIG X 999      44.537 126.487  22.993  1.00  0.00     0.012 A 
HETATM   26  C11 LIG X 999      44.715 128.912  22.817  1.00  0.00     0.044 A 
ENDBRANCH   2  17
TORSDOF 6
