REMARK VINA RESULT:      -6.4      5.066      6.939
REMARK  3 active torsions:
REMARK  status: ('A' for Active; 'I' for Inactive)
REMARK    1  A    between atoms: C3_3  and  O1_4 
REMARK    2  A    between atoms: O1_4  and  C4_5 
REMARK    3  A    between atoms: C5_7  and  C6_8 
ROOT
HETATM    1  C1  LIG X 999      45.784 131.114  20.496  1.00  0.00     0.014 C 
HETATM    2  C2  LIG X 999      44.613 131.263  20.742  1.00  0.00    -0.091 C 
HETATM    3  C3  LIG X 999      43.192 131.442  21.044  1.00  0.00     0.270 C 
ENDROOT
BRANCH   3   4
HETATM    4  O1  LIG X 999      42.830 130.575  22.111  1.00  0.00    -0.317 OA
BRANCH   4   5
HETATM    5  C4  LIG X 999      43.291 130.760  23.417  1.00  0.00     0.217 C 
HETATM    6  O2  LIG X 999      43.180 132.004  24.030  1.00  0.00    -0.164 OA
HETATM    7  C5  LIG X 999      43.832 129.744  24.094  1.00  0.00     0.079 C 
BRANCH   7   8
HETATM    8  C6  LIG X 999      43.945 128.381  23.529  1.00  0.00    -0.020 A 
HETATM    9  C7  LIG X 999      45.087 128.088  22.768  1.00  0.00     0.012 A 
HETATM   10  C8  LIG X 999      45.287 126.812  22.244  1.00  0.00     0.002 A 
HETATM   11  C9  LIG X 999      44.347 125.807  22.461  1.00  0.00     0.012 A 
HETATM   12  C10 LIG X 999      43.179 126.077  23.187  1.00  0.00    -0.025 A 
HETATM   13  C11 LIG X 999      42.222 125.067  23.378  1.00  0.00     0.012 A 
HETATM   14  C15 LIG X 999      42.957 127.377  23.718  1.00  0.00    -0.015 A 
HETATM   15  C12 LIG X 999      41.043 125.339  24.073  1.00  0.00     0.001 A 
HETATM   16  C13 LIG X 999      40.801 126.619  24.570  1.00  0.00     0.001 A 
HETATM   17  C14 LIG X 999      41.742 127.635  24.390  1.00  0.00     0.013 A 
ENDBRANCH   7   8
ENDBRANCH   4   5
ENDBRANCH   3   4
TORSDOF 3
