REMARK VINA RESULT:      -5.2      2.444      3.834
REMARK  2 active torsions:
REMARK  status: ('A' for Active; 'I' for Inactive)
REMARK       I    between atoms: N1_1  and  C1_2 
REMARK    1  A    between atoms: C1_2  and  C2_4 
REMARK    2  A    between atoms: C11_13  and  O2_14 
ROOT
HETATM    1  C2  LIG X 999      44.124 131.117  18.038  1.00  0.00     0.116 C 
HETATM    2  C3  LIG X 999      43.085 132.087  17.424  1.00  0.00     0.017 C 
HETATM    3  C4  LIG X 999      41.786 132.137  18.244  1.00  0.00     0.002 C 
HETATM    4  C5  LIG X 999      42.055 132.460  19.723  1.00  0.00     0.012 C 
HETATM    5  C6  LIG X 999      43.060 131.453  20.302  1.00  0.00     0.047 C 
HETATM    6  C7  LIG X 999      43.294 131.634  21.782  1.00  0.00    -0.019 C 
HETATM    7  C8  LIG X 999      44.356 131.049  22.350  1.00  0.00    -0.004 C 
HETATM    8  C9  LIG X 999      45.364 130.357  21.515  1.00  0.00    -0.001 C 
HETATM    9  C10 LIG X 999      45.369 130.511  20.182  1.00  0.00     0.012 C 
HETATM   10  C11 LIG X 999      44.408 131.492  19.521  1.00  0.00     0.095 C 
ENDROOT
BRANCH   1  11
HETATM   11  C1  LIG X 999      45.382 131.111  17.199  1.00  0.00     0.222 C 
HETATM   12  N1  LIG X 999      46.211 129.949  17.150  1.00  0.00    -0.370 N 
HETATM   13  H1  LIG X 999      45.967 129.090  17.692  1.00  0.00     0.159 HD
HETATM   14  H2  LIG X 999      47.081 129.949  16.572  1.00  0.00     0.159 HD
HETATM   15  O1  LIG X 999      45.716 132.136  16.548  1.00  0.00    -0.273 OA
ENDBRANCH   1  11
BRANCH  10  16
HETATM   16  O2  LIG X 999      44.969 132.789  19.557  1.00  0.00    -0.384 OA
HETATM   17  H15 LIG X 999      44.767 133.251  18.702  1.00  0.00     0.211 HD
ENDBRANCH  10  16
TORSDOF 2
