MODEL 1
REMARK VINA RESULT:      -8.6      0.000      0.000
REMARK  1 active torsions:
REMARK  status: ('A' for Active; 'I' for Inactive)
REMARK    1  A    between atoms: C2_2  and  N1_3 
ROOT
HETATM    1  N1  LIG X 999      46.386 130.770  13.743  1.00  0.00    -0.073 NA
HETATM    2  N2  LIG X 999      47.370 130.031  13.748  1.00  0.00    -0.162 NA
HETATM    3  N3  LIG X 999      48.355 129.293  13.751  1.00  0.00     0.068 N 
ENDROOT
BRANCH   1   4
HETATM    4  C2  LIG X 999      45.604 131.015  14.920  1.00  0.00     0.094 A 
HETATM    5  C1  LIG X 999      44.310 131.529  14.773  1.00  0.00     0.035 A 
HETATM    6  C10 LIG X 999      43.512 131.783  15.892  1.00  0.00     0.014 A 
HETATM    7  C9  LIG X 999      43.999 131.525  17.180  1.00  0.00    -0.025 A 
HETATM    8  C4  LIG X 999      45.314 131.003  17.341  1.00  0.00    -0.023 A 
HETATM    9  C8  LIG X 999      43.203 131.781  18.314  1.00  0.00     0.021 A 
HETATM   10  C3  LIG X 999      46.105 130.753  16.209  1.00  0.00     0.046 A 
HETATM   11  C5  LIG X 999      45.810 130.746  18.634  1.00  0.00     0.021 A 
HETATM   12  C6  LIG X 999      44.987 131.005  19.730  1.00  0.00    -0.024 A 
HETATM   13  C7  LIG X 999      43.730 131.505  19.576  1.00  0.00    -0.024 A 
HETATM   14  C14 LIG X 999      45.304 130.833  21.164  1.00  0.00     0.276 C 
HETATM   15  C11 LIG X 999      43.088 131.714  20.892  1.00  0.00     0.276 C 
HETATM   16  N4  LIG X 999      44.033 131.132  21.898  1.00  0.00    -0.067 N 
HETATM   17  C12 LIG X 999      44.278 132.091  22.999  1.00  0.00     0.272 C 
HETATM   18  C13 LIG X 999      43.467 129.884  22.462  1.00  0.00     0.272 C 
ENDBRANCH   1   4
TORSDOF 1
ENDMDL
MODEL 2
REMARK VINA RESULT:      -7.7      1.357      6.594
REMARK  1 active torsions:
REMARK  status: ('A' for Active; 'I' for Inactive)
REMARK    1  A    between atoms: C2_2  and  N1_3 
ROOT
HETATM    1  N1  LIG X 999      43.540 131.732  23.331  1.00  0.00    -0.073 NA
HETATM    2  N2  LIG X 999      43.912 130.752  23.977  1.00  0.00    -0.162 NA
HETATM    3  N3  LIG X 999      44.282 129.773  24.625  1.00  0.00     0.068 N 
ENDROOT
BRANCH   1   4
HETATM    4  C2  LIG X 999      43.516 131.741  21.898  1.00  0.00     0.094 A 
HETATM    5  C1  LIG X 999      42.396 132.273  21.247  1.00  0.00     0.035 A 
HETATM    6  C10 LIG X 999      42.328 132.303  19.851  1.00  0.00     0.014 A 
HETATM    7  C9  LIG X 999      43.385 131.800  19.083  1.00  0.00    -0.025 A 
HETATM    8  C4  LIG X 999      44.530 131.257  19.734  1.00  0.00    -0.023 A 
HETATM    9  C8  LIG X 999      43.325 131.823  17.675  1.00  0.00     0.021 A 
HETATM   10  C3  LIG X 999      44.584 131.232  21.135  1.00  0.00     0.046 A 
HETATM   11  C5  LIG X 999      45.594 130.747  18.965  1.00  0.00     0.021 A 
HETATM   12  C6  LIG X 999      45.499 130.796  17.574  1.00  0.00    -0.024 A 
HETATM   13  C7  LIG X 999      44.404 131.315  16.952  1.00  0.00    -0.024 A 
HETATM   14  C14 LIG X 999      46.475 130.303  16.579  1.00  0.00     0.276 C 
HETATM   15  C11 LIG X 999      44.546 131.218  15.483  1.00  0.00     0.276 C 
HETATM   16  N4  LIG X 999      45.939 130.721  15.245  1.00  0.00    -0.067 N 
HETATM   17  C12 LIG X 999      45.931 129.579  14.303  1.00  0.00     0.272 C 
HETATM   18  C13 LIG X 999      46.775 131.807  14.680  1.00  0.00     0.272 C 
ENDBRANCH   1   4
TORSDOF 1
ENDMDL
MODEL 3
REMARK VINA RESULT:      -7.6      1.293      2.708
REMARK  1 active torsions:
REMARK  status: ('A' for Active; 'I' for Inactive)
REMARK    1  A    between atoms: C2_2  and  N1_3 
ROOT
HETATM    1  N1  LIG X 999      44.648 131.641  15.115  1.00  0.00    -0.073 NA
HETATM    2  N2  LIG X 999      45.477 131.319  14.263  1.00  0.00    -0.162 NA
HETATM    3  N3  LIG X 999      46.304 130.999  13.410  1.00  0.00     0.068 N 
ENDROOT
BRANCH   1   4
HETATM    4  C2  LIG X 999      44.819 131.334  16.505  1.00  0.00     0.094 A 
HETATM    5  C1  LIG X 999      45.939 130.589  16.897  1.00  0.00     0.035 A 
HETATM    6  C10 LIG X 999      46.146 130.266  18.241  1.00  0.00     0.014 A 
HETATM    7  C9  LIG X 999      45.233 130.685  19.217  1.00  0.00    -0.025 A 
HETATM    8  C4  LIG X 999      44.091 131.442  18.829  1.00  0.00    -0.023 A 
HETATM    9  C8  LIG X 999      45.432 130.361  20.573  1.00  0.00     0.021 A 
HETATM   10  C3  LIG X 999      43.894 131.760  17.478  1.00  0.00     0.046 A 
HETATM   11  C5  LIG X 999      43.168 131.863  19.807  1.00  0.00     0.021 A 
HETATM   12  C6  LIG X 999      43.406 131.529  21.140  1.00  0.00    -0.024 A 
HETATM   13  C7  LIG X 999      44.498 130.804  21.510  1.00  0.00    -0.024 A 
HETATM   14  C14 LIG X 999      42.569 131.842  22.318  1.00  0.00     0.276 C 
HETATM   15  C11 LIG X 999      44.494 130.565  22.969  1.00  0.00     0.276 C 
HETATM   16  N4  LIG X 999      43.348 131.366  23.506  1.00  0.00    -0.067 N 
HETATM   17  C12 LIG X 999      42.499 130.536  24.390  1.00  0.00     0.272 C 
HETATM   18  C13 LIG X 999      43.857 132.526  24.276  1.00  0.00     0.272 C 
ENDBRANCH   1   4
TORSDOF 1
ENDMDL
MODEL 4
REMARK VINA RESULT:      -6.2      1.485      6.995
REMARK  1 active torsions:
REMARK  status: ('A' for Active; 'I' for Inactive)
REMARK    1  A    between atoms: C2_2  and  N1_3 
ROOT
HETATM    1  N1  LIG X 999      42.519 131.967  22.990  1.00  0.00    -0.073 NA
HETATM    2  N2  LIG X 999      42.036 131.183  23.807  1.00  0.00    -0.162 NA
HETATM    3  N3  LIG X 999      41.551 130.401  24.625  1.00  0.00     0.068 N 
ENDROOT
BRANCH   1   4
HETATM    4  C2  LIG X 999      43.387 131.535  21.934  1.00  0.00     0.094 A 
HETATM    5  C1  LIG X 999      44.484 130.726  22.253  1.00  0.00     0.035 A 
HETATM    6  C10 LIG X 999      45.358 130.281  21.257  1.00  0.00     0.014 A 
HETATM    7  C9  LIG X 999      45.144 130.640  19.920  1.00  0.00    -0.025 A 
HETATM    8  C4  LIG X 999      44.032 131.463  19.584  1.00  0.00    -0.023 A 
HETATM    9  C8  LIG X 999      46.020 130.199  18.909  1.00  0.00     0.021 A 
HETATM   10  C3  LIG X 999      43.164 131.903  20.593  1.00  0.00     0.046 A 
HETATM   11  C5  LIG X 999      43.815 131.830  18.240  1.00  0.00     0.021 A 
HETATM   12  C6  LIG X 999      44.701 131.365  17.268  1.00  0.00    -0.024 A 
HETATM   13  C7  LIG X 999      45.765 130.579  17.591  1.00  0.00    -0.024 A 
HETATM   14  C14 LIG X 999      44.681 131.640  15.816  1.00  0.00     0.276 C 
HETATM   15  C11 LIG X 999      46.556 130.254  16.384  1.00  0.00     0.276 C 
HETATM   16  N4  LIG X 999      45.771 130.797  15.230  1.00  0.00    -0.067 N 
HETATM   17  C12 LIG X 999      46.639 131.606  14.343  1.00  0.00     0.272 C 
HETATM   18  C13 LIG X 999      45.186 129.683  14.446  1.00  0.00     0.272 C 
ENDBRANCH   1   4
TORSDOF 1
ENDMDL
