REMARK VINA RESULT:      -4.4      2.897      4.914
REMARK  4 active torsions:
REMARK  status: ('A' for Active; 'I' for Inactive)
REMARK    1  A    between atoms: C3_3  and  O1_4 
REMARK    2  A    between atoms: O1_4  and  C4_5 
REMARK    3  A    between atoms: C9_12  and  N2_13 
REMARK    4  A    between atoms: C11_17  and  C12_18 
ROOT
HETATM    1  C1  LIG X 999      42.862 122.376  20.901  1.00  0.00     0.014 C 
HETATM    2  C2  LIG X 999      42.107 122.376  21.841  1.00  0.00    -0.091 C 
HETATM    3  C3  LIG X 999      41.192 122.375  22.982  1.00  0.00     0.268 C 
ENDROOT
BRANCH   3   4
HETATM    4  O1  LIG X 999      41.831 122.991  24.095  1.00  0.00    -0.339 OA
BRANCH   4   5
HETATM    5  C4  LIG X 999      42.353 124.295  24.098  1.00  0.00     0.085 A 
HETATM    6  C5  LIG X 999      41.505 125.431  23.914  1.00  0.00     0.052 A 
HETATM    7  C6  LIG X 999      42.048 126.727  23.931  1.00  0.00     0.008 A 
HETATM    8  C7  LIG X 999      43.404 126.838  24.127  1.00  0.00     0.018 A 
HETATM    9  C15 LIG X 999      41.306 128.000  23.718  1.00  0.00     0.059 A 
HETATM   10  C8  LIG X 999      44.101 128.000  24.108  1.00  0.00     0.046 A 
HETATM   11  C10 LIG X 999      44.256 125.791  24.292  1.00  0.00     0.042 A 
HETATM   12  N1  LIG X 999      45.416 127.745  24.248  1.00  0.00    -0.337 N 
HETATM   13  C13 LIG X 999      43.421 129.289  23.888  1.00  0.00     0.033 A 
HETATM   14  H5  LIG X 999      46.192 128.444  24.234  1.00  0.00     0.167 HD
HETATM   15  C9  LIG X 999      45.521 126.390  24.356  1.00  0.00     0.176 A 
HETATM   16  C14 LIG X 999      42.082 129.286  23.708  1.00  0.00     0.034 A 
HETATM   17  C11 LIG X 999      43.757 124.470  24.299  1.00  0.00     0.050 A 
HETATM   18  N5  LIG X 999      40.024 127.995  23.540  1.00  0.00    -0.300 NA
HETATM   19  H9  LIG X 999      39.486 128.876  23.385  1.00  0.00     0.187 HD
BRANCH  15  20
HETATM   20  N2  LIG X 999      46.769 125.699  24.427  1.00  0.00    -0.053 NA
HETATM   21  N3  LIG X 999      47.460 125.519  23.425  1.00  0.00    -0.160 NA
HETATM   22  N4  LIG X 999      48.151 125.340  22.423  1.00  0.00     0.068 N 
ENDBRANCH  15  20
BRANCH  17  23
HETATM   23  C12 LIG X 999      44.612 123.284  24.519  1.00  0.00     0.273 C 
HETATM   24  O2  LIG X 999      45.208 122.714  23.568  1.00  0.00    -0.301 OA
ENDBRANCH  17  23
ENDBRANCH   4   5
ENDBRANCH   3   4
TORSDOF 4
