REMARK VINA RESULT:      -4.2      3.051      4.765
REMARK  1 active torsions:
REMARK  status: ('A' for Active; 'I' for Inactive)
REMARK    1  A    between atoms: C7_7  and  N1_8 
ROOT
HETATM    1  N1  LIG X 999      45.369 131.908  17.546  1.00  0.00    -0.110 NA
HETATM    2  N2  LIG X 999      44.921 131.994  18.690  1.00  0.00    -0.167 NA
HETATM    3  N3  LIG X 999      44.475 132.081  19.833  1.00  0.00     0.068 N 
ENDROOT
BRANCH   1   4
HETATM    4  C7  LIG X 999      45.681 130.610  16.954  1.00  0.00     0.153 C 
HETATM    5  C6  LIG X 999      44.397 129.972  16.407  1.00  0.00     0.031 C 
HETATM    6  C5  LIG X 999      44.691 128.596  15.799  1.00  0.00     0.003 C 
HETATM    7  C4  LIG X 999      45.727 128.705  14.675  1.00  0.00     0.009 C 
HETATM    8  C3  LIG X 999      47.033 129.363  15.168  1.00  0.00     0.018 C 
HETATM    9  C2  LIG X 999      47.979 129.539  14.002  1.00  0.00    -0.021 C 
HETATM   10  C8  LIG X 999      46.763 130.735  15.849  1.00  0.00     0.043 C 
HETATM   11  C1  LIG X 999      47.944 130.650  13.256  1.00  0.00    -0.004 C 
HETATM   12  C10 LIG X 999      47.051 131.768  13.618  1.00  0.00    -0.004 C 
HETATM   13  C9  LIG X 999      46.439 131.791  14.807  1.00  0.00    -0.019 C 
ENDBRANCH   1   4
TORSDOF 1
