REMARK VINA RESULT:      -7.2      1.745      2.021
REMARK  7 active torsions:
REMARK  status: ('A' for Active; 'I' for Inactive)
REMARK    1  A    between atoms: S1_2  and  C1_3 
REMARK    2  A    between atoms: C1_3  and  N2_11 
REMARK    3  A    between atoms: N1_4  and  C2_6 
REMARK    4  A    between atoms: C2_6  and  C3_7 
REMARK    5  A    between atoms: C3_7  and  C4_8 
REMARK    6  A    between atoms: C4_8  and  S2_9 
REMARK    7  A    between atoms: N2_11  and  C5_14 
ROOT
HETATM    1  N2  LIG X 999      44.429 132.475  18.146  1.00  0.00     0.006 N 
HETATM    2  H10 LIG X 999      43.454 132.669  17.819  1.00  0.00     0.293 HD
HETATM    3  H11 LIG X 999      44.931 133.391  18.206  1.00  0.00     0.293 HD
ENDROOT
BRANCH   1   4
HETATM    4  C1  LIG X 999      44.389 131.849  19.445  1.00  0.00     0.240 C 
HETATM    5  N1  LIG X 999      43.249 131.680  20.044  1.00  0.00    -0.365 N 
HETATM    6  H2  LIG X 999      42.396 132.060  19.607  1.00  0.00     0.161 HD
BRANCH   4   7
HETATM    7  S1  LIG X 999      45.946 131.299  20.182  1.00  0.00    -0.100 SA
HETATM    8  H1  LIG X 999      46.055 130.229  19.276  1.00  0.00     0.110 HD
ENDBRANCH   4   7
BRANCH   5   9
HETATM    9  C2  LIG X 999      43.081 130.926  21.274  1.00  0.00     0.122 C 
BRANCH   9  10
HETATM   10  C3  LIG X 999      42.813 131.857  22.466  1.00  0.00     0.029 C 
BRANCH  10  11
HETATM   11  C4  LIG X 999      42.713 131.085  23.787  1.00  0.00     0.072 C 
BRANCH  11  12
HETATM   12  S2  LIG X 999      42.769 129.294  23.480  1.00  0.00    -0.182 SA
HETATM   13  H9  LIG X 999      43.274 129.009  24.764  1.00  0.00     0.101 HD
ENDBRANCH  11  12
ENDBRANCH  10  11
ENDBRANCH   9  10
ENDBRANCH   5   9
ENDBRANCH   1   4
BRANCH   1  14
HETATM   14  C5  LIG X 999      45.129 131.612  17.226  1.00  0.00     0.141 A 
HETATM   15  C6  LIG X 999      45.358 130.263  17.547  1.00  0.00     0.038 A 
HETATM   16  C7  LIG X 999      46.096 129.443  16.690  1.00  0.00     0.014 A 
HETATM   17  C8  LIG X 999      46.624 129.960  15.499  1.00  0.00    -0.026 A 
HETATM   18  C9  LIG X 999      47.376 129.148  14.636  1.00  0.00     0.012 A 
HETATM   19  C13 LIG X 999      46.401 131.318  15.166  1.00  0.00    -0.024 A 
HETATM   20  C10 LIG X 999      47.903 129.677  13.456  1.00  0.00     0.001 A 
HETATM   21  C11 LIG X 999      47.684 131.018  13.127  1.00  0.00     0.001 A 
HETATM   22  C12 LIG X 999      46.936 131.837  13.977  1.00  0.00     0.012 A 
HETATM   23  C14 LIG X 999      45.655 132.133  16.029  1.00  0.00     0.049 A 
ENDBRANCH   1  14
TORSDOF 7
