REMARK VINA RESULT:      -2.4      6.328      7.635
REMARK  4 active torsions:
REMARK  status: ('A' for Active; 'I' for Inactive)
REMARK    1  A    between atoms: C3_3  and  C4_4 
REMARK    2  A    between atoms: C5_7  and  N3_8 
REMARK    3  A    between atoms: C8_14  and  C9_15 
REMARK    4  A    between atoms: C10_16  and  C11_17 
ROOT
HETATM    1  N3  LIG X 999      41.025 127.979  23.904  1.00  0.00    -0.023 NA
HETATM    2  N4  LIG X 999      40.842 126.787  23.664  1.00  0.00    -0.158 NA
HETATM    3  N5  LIG X 999      40.660 125.594  23.426  1.00  0.00     0.068 N 
ENDROOT
BRANCH   1   4
HETATM    4  C5  LIG X 999      42.228 128.629  23.500  1.00  0.00     0.326 A 
HETATM    5  N2  LIG X 999      43.404 127.995  23.354  1.00  0.00    -0.099 NA
HETATM    6  N1  LIG X 999      44.269 128.922  22.972  1.00  0.00    -0.124 NA
HETATM    7  C4  LIG X 999      43.585 130.084  22.905  1.00  0.00     0.184 A 
HETATM    8  O1  LIG X 999      42.324 129.907  23.226  1.00  0.00    -0.255 OA
BRANCH   7   9
HETATM    9  C3  LIG X 999      44.196 131.406  22.482  1.00  0.00     0.054 C 
HETATM   10  C2  LIG X 999      43.058 132.345  22.112  1.00  0.00    -0.008 C 
HETATM   11  C1  LIG X 999      42.521 132.311  20.885  1.00  0.00    -0.003 C 
HETATM   12  C15 LIG X 999      43.103 131.454  19.833  1.00  0.00    -0.004 C 
HETATM   13  C14 LIG X 999      44.302 130.884  20.009  1.00  0.00    -0.021 C 
HETATM   14  C13 LIG X 999      45.129 131.204  21.236  1.00  0.00     0.030 C 
HETATM   15  C12 LIG X 999      45.985 132.456  20.937  1.00  0.00     0.027 C 
HETATM   16  C8  LIG X 999      46.776 132.906  22.173  1.00  0.00     0.066 C 
HETATM   17  C7  LIG X 999      45.819 133.201  23.335  1.00  0.00     0.019 C 
HETATM   18  C6  LIG X 999      45.000 131.956  23.687  1.00  0.00     0.024 C 
BRANCH  16  19
HETATM   19  C9  LIG X 999      47.565 134.105  21.855  1.00  0.00    -0.090 C 
HETATM   20  C10 LIG X 999      48.213 135.089  21.596  1.00  0.00     0.005 C 
BRANCH  20  21
HETATM   21  C11 LIG X 999      48.984 136.259  21.287  1.00  0.00     0.258 C 
HETATM   22  O2  LIG X 999      48.520 137.129  20.505  1.00  0.00    -0.637 OA
HETATM   23  O3  LIG X 999      50.240 136.431  21.851  1.00  0.00    -0.637 OA
ENDBRANCH  20  21
ENDBRANCH  16  19
ENDBRANCH   7   9
ENDBRANCH   1   4
TORSDOF 4
