MODEL 1
REMARK VINA RESULT:      -5.6      0.000      0.000
REMARK  4 active torsions:
REMARK  status: ('A' for Active; 'I' for Inactive)
REMARK    1  A    between atoms: C5_5  and  C6_6 
REMARK    2  A    between atoms: C7_7  and  C8_8 
REMARK    3  A    between atoms: C11_13  and  C12_14 
REMARK    4  A    between atoms: C13_18  and  N3_19 
ROOT
HETATM    1  N3  LIG X 999      39.810 123.817  22.530  1.00  0.00    -0.025 NA
HETATM    2  N4  LIG X 999      39.293 123.106  23.391  1.00  0.00    -0.158 NA
HETATM    3  N5  LIG X 999      38.775 122.396  24.253  1.00  0.00     0.068 N 
ENDROOT
BRANCH   1   4
HETATM    4  C13 LIG X 999      41.227 123.849  22.368  1.00  0.00     0.301 A 
HETATM    5  N2  LIG X 999      41.861 123.494  21.241  1.00  0.00    -0.236 N 
HETATM    6  N1  LIG X 999      43.157 123.649  21.460  1.00  0.00    -0.149 NA
HETATM    7  H11 LIG X 999      41.437 123.154  20.351  1.00  0.00     0.193 HD
HETATM    8  C12 LIG X 999      43.262 124.107  22.728  1.00  0.00     0.182 A 
HETATM    9  O3  LIG X 999      42.077 124.222  23.293  1.00  0.00    -0.257 OA
BRANCH   8  10
HETATM   10  C11 LIG X 999      44.579 124.392  23.425  1.00  0.00     0.054 C 
HETATM   11  C3  LIG X 999      45.614 125.004  22.417  1.00  0.00     0.030 C 
HETATM   12  C2  LIG X 999      47.025 124.925  22.961  1.00  0.00    -0.021 C 
HETATM   13  C4  LIG X 999      45.244 126.446  22.011  1.00  0.00     0.027 C 
HETATM   14  C1  LIG X 999      47.401 123.888  23.712  1.00  0.00    -0.004 C 
HETATM   15  C15 LIG X 999      46.420 122.873  24.136  1.00  0.00    -0.003 C 
HETATM   16  C14 LIG X 999      45.108 123.075  23.965  1.00  0.00    -0.008 C 
HETATM   17  C5  LIG X 999      45.055 127.356  23.235  1.00  0.00     0.066 C 
HETATM   18  C9  LIG X 999      43.991 126.778  24.180  1.00  0.00     0.019 C 
HETATM   19  C10 LIG X 999      44.367 125.358  24.625  1.00  0.00     0.024 C 
BRANCH  17  20
HETATM   20  C6  LIG X 999      44.660 128.705  22.802  1.00  0.00    -0.090 C 
HETATM   21  C7  LIG X 999      44.338 129.811  22.446  1.00  0.00     0.005 C 
BRANCH  21  22
HETATM   22  C8  LIG X 999      43.954 131.126  22.021  1.00  0.00     0.258 C 
HETATM   23  O1  LIG X 999      44.615 131.718  21.130  1.00  0.00    -0.637 OA
HETATM   24  O2  LIG X 999      42.852 131.746  22.595  1.00  0.00    -0.637 OA
ENDBRANCH  21  22
ENDBRANCH  17  20
ENDBRANCH   8  10
ENDBRANCH   1   4
TORSDOF 4
ENDMDL
MODEL 2
REMARK VINA RESULT:      -4.1      7.496      9.978
REMARK  4 active torsions:
REMARK  status: ('A' for Active; 'I' for Inactive)
REMARK    1  A    between atoms: C5_5  and  C6_6 
REMARK    2  A    between atoms: C7_7  and  C8_8 
REMARK    3  A    between atoms: C11_13  and  C12_14 
REMARK    4  A    between atoms: C13_18  and  N3_19 
ROOT
HETATM    1  N3  LIG X 999      48.228 135.209  22.099  1.00  0.00    -0.025 NA
HETATM    2  N4  LIG X 999      48.817 135.919  21.284  1.00  0.00    -0.158 NA
HETATM    3  N5  LIG X 999      49.405 136.630  20.469  1.00  0.00     0.068 N 
ENDROOT
BRANCH   1   4
HETATM    4  C13 LIG X 999      47.692 133.947  21.709  1.00  0.00     0.301 A 
HETATM    5  N2  LIG X 999      48.439 132.881  21.388  1.00  0.00    -0.236 N 
HETATM    6  N1  LIG X 999      47.606 131.900  21.080  1.00  0.00    -0.149 NA
HETATM    7  H11 LIG X 999      49.480 132.814  21.371  1.00  0.00     0.193 HD
HETATM    8  C12 LIG X 999      46.364 132.413  21.237  1.00  0.00     0.182 A 
HETATM    9  O3  LIG X 999      46.414 133.674  21.615  1.00  0.00    -0.257 OA
BRANCH   8  10
HETATM   10  C11 LIG X 999      45.084 131.649  20.956  1.00  0.00     0.054 C 
HETATM   11  C3  LIG X 999      44.274 132.339  19.803  1.00  0.00     0.030 C 
HETATM   12  C2  LIG X 999      42.839 131.854  19.771  1.00  0.00    -0.021 C 
HETATM   13  C4  LIG X 999      44.958 132.167  18.431  1.00  0.00     0.027 C 
HETATM   14  C1  LIG X 999      42.205 131.552  20.907  1.00  0.00    -0.004 C 
HETATM   15  C15 LIG X 999      42.924 131.555  22.192  1.00  0.00    -0.003 C 
HETATM   16  C14 LIG X 999      44.260 131.647  22.231  1.00  0.00    -0.008 C 
HETATM   17  C5  LIG X 999      45.236 130.689  18.109  1.00  0.00     0.066 C 
HETATM   18  C9  LIG X 999      46.086 130.045  19.214  1.00  0.00     0.019 C 
HETATM   19  C10 LIG X 999      45.397 130.173  20.580  1.00  0.00     0.024 C 
BRANCH  17  20
HETATM   20  C6  LIG X 999      45.928 130.578  16.816  1.00  0.00    -0.090 C 
HETATM   21  C7  LIG X 999      46.495 130.489  15.756  1.00  0.00     0.005 C 
BRANCH  21  22
HETATM   22  C8  LIG X 999      47.171 130.383  14.495  1.00  0.00     0.258 C 
HETATM   23  O1  LIG X 999      47.700 129.294  14.153  1.00  0.00    -0.637 OA
HETATM   24  O2  LIG X 999      47.242 131.484  13.652  1.00  0.00    -0.637 OA
ENDBRANCH  21  22
ENDBRANCH  17  20
ENDBRANCH   8  10
ENDBRANCH   1   4
TORSDOF 4
ENDMDL
MODEL 3
REMARK VINA RESULT:      -3.6      1.854      2.046
REMARK  4 active torsions:
REMARK  status: ('A' for Active; 'I' for Inactive)
REMARK    1  A    between atoms: C5_5  and  C6_6 
REMARK    2  A    between atoms: C7_7  and  C8_8 
REMARK    3  A    between atoms: C11_13  and  C12_14 
REMARK    4  A    between atoms: C13_18  and  N3_19 
ROOT
HETATM    1  N3  LIG X 999      39.184 125.152  23.549  1.00  0.00    -0.025 NA
HETATM    2  N4  LIG X 999      38.812 124.049  23.948  1.00  0.00    -0.158 NA
HETATM    3  N5  LIG X 999      38.438 122.946  24.347  1.00  0.00     0.068 N 
ENDROOT
BRANCH   1   4
HETATM    4  C13 LIG X 999      40.487 125.637  23.863  1.00  0.00     0.301 A 
HETATM    5  N2  LIG X 999      40.725 126.797  24.492  1.00  0.00    -0.236 N 
HETATM    6  N1  LIG X 999      42.037 126.915  24.607  1.00  0.00    -0.149 NA
HETATM    7  H11 LIG X 999      40.025 127.492  24.833  1.00  0.00     0.193 HD
HETATM    8  C12 LIG X 999      42.556 125.802  24.041  1.00  0.00     0.182 A 
HETATM    9  O3  LIG X 999      41.605 125.018  23.574  1.00  0.00    -0.257 OA
BRANCH   8  10
HETATM   10  C11 LIG X 999      44.041 125.524  23.910  1.00  0.00     0.054 C 
HETATM   11  C3  LIG X 999      44.453 125.433  22.399  1.00  0.00     0.030 C 
HETATM   12  C2  LIG X 999      45.807 124.774  22.235  1.00  0.00    -0.021 C 
HETATM   13  C4  LIG X 999      44.408 126.810  21.703  1.00  0.00     0.027 C 
HETATM   14  C1  LIG X 999      46.183 123.793  23.060  1.00  0.00    -0.004 C 
HETATM   15  C15 LIG X 999      45.352 123.429  24.220  1.00  0.00    -0.003 C 
HETATM   16  C14 LIG X 999      44.324 124.200  24.598  1.00  0.00    -0.008 C 
HETATM   17  C5  LIG X 999      45.251 127.858  22.448  1.00  0.00     0.066 C 
HETATM   18  C9  LIG X 999      44.793 127.983  23.908  1.00  0.00     0.019 C 
HETATM   19  C10 LIG X 999      44.871 126.627  24.625  1.00  0.00     0.024 C 
BRANCH  17  20
HETATM   20  C6  LIG X 999      45.141 129.161  21.775  1.00  0.00    -0.090 C 
HETATM   21  C7  LIG X 999      45.053 130.230  21.225  1.00  0.00     0.005 C 
BRANCH  21  22
HETATM   22  C8  LIG X 999      44.949 131.502  20.569  1.00  0.00     0.258 C 
HETATM   23  O1  LIG X 999      45.881 132.340  20.669  1.00  0.00    -0.637 OA
HETATM   24  O2  LIG X 999      43.818 131.808  19.824  1.00  0.00    -0.637 OA
ENDBRANCH  21  22
ENDBRANCH  17  20
ENDBRANCH   8  10
ENDBRANCH   1   4
TORSDOF 4
ENDMDL
MODEL 4
REMARK VINA RESULT:      -3.4      3.543      6.566
REMARK  4 active torsions:
REMARK  status: ('A' for Active; 'I' for Inactive)
REMARK    1  A    between atoms: C5_5  and  C6_6 
REMARK    2  A    between atoms: C7_7  and  C8_8 
REMARK    3  A    between atoms: C11_13  and  C12_14 
REMARK    4  A    between atoms: C13_18  and  N3_19 
ROOT
HETATM    1  N3  LIG X 999      44.679 126.399  22.674  1.00  0.00    -0.025 NA
HETATM    2  N4  LIG X 999      44.001 125.372  22.691  1.00  0.00    -0.158 NA
HETATM    3  N5  LIG X 999      43.322 124.345  22.707  1.00  0.00     0.068 N 
ENDROOT
BRANCH   1   4
HETATM    4  C13 LIG X 999      44.068 127.677  22.834  1.00  0.00     0.301 A 
HETATM    5  N2  LIG X 999      42.776 127.858  23.141  1.00  0.00    -0.236 N 
HETATM    6  N1  LIG X 999      42.570 129.163  23.203  1.00  0.00    -0.149 NA
HETATM    7  H11 LIG X 999      42.050 127.125  23.301  1.00  0.00     0.193 HD
HETATM    8  C12 LIG X 999      43.766 129.736  22.935  1.00  0.00     0.182 A 
HETATM    9  O3  LIG X 999      44.687 128.824  22.699  1.00  0.00    -0.257 OA
BRANCH   8  10
HETATM   10  C11 LIG X 999      43.997 131.233  22.860  1.00  0.00     0.054 C 
HETATM   11  C3  LIG X 999      45.414 131.541  22.262  1.00  0.00     0.030 C 
HETATM   12  C2  LIG X 999      45.831 132.970  22.540  1.00  0.00    -0.021 C 
HETATM   13  C4  LIG X 999      45.492 131.213  20.756  1.00  0.00     0.027 C 
HETATM   14  C1  LIG X 999      45.476 133.565  23.681  1.00  0.00    -0.004 C 
HETATM   15  C15 LIG X 999      44.564 132.896  24.625  1.00  0.00    -0.003 C 
HETATM   16  C14 LIG X 999      43.907 131.784  24.271  1.00  0.00    -0.008 C 
HETATM   17  C5  LIG X 999      44.385 131.921  19.957  1.00  0.00     0.066 C 
HETATM   18  C9  LIG X 999      43.000 131.558  20.512  1.00  0.00     0.019 C 
HETATM   19  C10 LIG X 999      42.895 131.916  22.002  1.00  0.00     0.024 C 
BRANCH  17  20
HETATM   20  C6  LIG X 999      44.470 131.544  18.538  1.00  0.00    -0.090 C 
HETATM   21  C7  LIG X 999      44.539 131.234  17.375  1.00  0.00     0.005 C 
BRANCH  21  22
HETATM   22  C8  LIG X 999      44.619 130.866  15.991  1.00  0.00     0.258 C 
HETATM   23  O1  LIG X 999      44.444 131.734  15.097  1.00  0.00    -0.637 OA
HETATM   24  O2  LIG X 999      44.887 129.550  15.638  1.00  0.00    -0.637 OA
ENDBRANCH  21  22
ENDBRANCH  17  20
ENDBRANCH   8  10
ENDBRANCH   1   4
TORSDOF 4
ENDMDL
MODEL 5
REMARK VINA RESULT:      -3.2      4.704      7.119
REMARK  4 active torsions:
REMARK  status: ('A' for Active; 'I' for Inactive)
REMARK    1  A    between atoms: C5_5  and  C6_6 
REMARK    2  A    between atoms: C7_7  and  C8_8 
REMARK    3  A    between atoms: C11_13  and  C12_14 
REMARK    4  A    between atoms: C13_18  and  N3_19 
ROOT
HETATM    1  N3  LIG X 999      45.913 130.531  19.389  1.00  0.00    -0.025 NA
HETATM    2  N4  LIG X 999      45.224 130.934  18.453  1.00  0.00    -0.158 NA
HETATM    3  N5  LIG X 999      44.535 131.338  17.517  1.00  0.00     0.068 N 
ENDROOT
BRANCH   1   4
HETATM    4  C13 LIG X 999      45.358 130.394  20.695  1.00  0.00     0.301 A 
HETATM    5  N2  LIG X 999      45.227 131.406  21.565  1.00  0.00    -0.236 N 
HETATM    6  N1  LIG X 999      44.681 130.907  22.662  1.00  0.00    -0.149 NA
HETATM    7  H11 LIG X 999      45.499 132.404  21.427  1.00  0.00     0.193 HD
HETATM    8  C12 LIG X 999      44.490 129.592  22.411  1.00  0.00     0.182 A 
HETATM    9  O3  LIG X 999      44.915 129.271  21.205  1.00  0.00    -0.257 OA
BRANCH   8  10
HETATM   10  C11 LIG X 999      43.918 128.607  23.412  1.00  0.00     0.054 C 
HETATM   11  C3  LIG X 999      43.523 127.266  22.700  1.00  0.00     0.030 C 
HETATM   12  C2  LIG X 999      42.600 126.433  23.565  1.00  0.00    -0.021 C 
HETATM   13  C4  LIG X 999      44.762 126.459  22.256  1.00  0.00     0.027 C 
HETATM   14  C1  LIG X 999      41.702 127.025  24.356  1.00  0.00    -0.004 C 
HETATM   15  C15 LIG X 999      41.682 128.490  24.503  1.00  0.00    -0.003 C 
HETATM   16  C14 LIG X 999      42.683 129.241  24.027  1.00  0.00    -0.008 C 
HETATM   17  C5  LIG X 999      45.730 126.206  23.424  1.00  0.00     0.066 C 
HETATM   18  C9  LIG X 999      46.159 127.531  24.068  1.00  0.00     0.019 C 
HETATM   19  C10 LIG X 999      44.937 128.327  24.552  1.00  0.00     0.024 C 
BRANCH  17  20
HETATM   20  C6  LIG X 999      46.913 125.475  22.946  1.00  0.00    -0.090 C 
HETATM   21  C7  LIG X 999      47.883 124.875  22.554  1.00  0.00     0.005 C 
BRANCH  21  22
HETATM   22  C8  LIG X 999      49.036 124.162  22.085  1.00  0.00     0.258 C 
HETATM   23  O1  LIG X 999      49.106 123.799  20.883  1.00  0.00    -0.637 OA
HETATM   24  O2  LIG X 999      50.074 123.870  22.960  1.00  0.00    -0.637 OA
ENDBRANCH  21  22
ENDBRANCH  17  20
ENDBRANCH   8  10
ENDBRANCH   1   4
TORSDOF 4
ENDMDL
MODEL 6
REMARK VINA RESULT:      -3.1      4.567      7.760
REMARK  4 active torsions:
REMARK  status: ('A' for Active; 'I' for Inactive)
REMARK    1  A    between atoms: C5_5  and  C6_6 
REMARK    2  A    between atoms: C7_7  and  C8_8 
REMARK    3  A    between atoms: C11_13  and  C12_14 
REMARK    4  A    between atoms: C13_18  and  N3_19 
ROOT
HETATM    1  N3  LIG X 999      45.431 131.395  18.212  1.00  0.00    -0.025 NA
HETATM    2  N4  LIG X 999      44.414 131.558  17.539  1.00  0.00    -0.158 NA
HETATM    3  N5  LIG X 999      43.397 131.723  16.865  1.00  0.00     0.068 N 
ENDROOT
BRANCH   1   4
HETATM    4  C13 LIG X 999      45.354 130.842  19.524  1.00  0.00     0.301 A 
HETATM    5  N2  LIG X 999      46.016 129.745  19.916  1.00  0.00    -0.236 N 
HETATM    6  N1  LIG X 999      45.702 129.532  21.183  1.00  0.00    -0.149 NA
HETATM    7  H11 LIG X 999      46.660 129.151  19.347  1.00  0.00     0.193 HD
HETATM    8  C12 LIG X 999      44.853 130.530  21.522  1.00  0.00     0.182 A 
HETATM    9  O3  LIG X 999      44.630 131.332  20.500  1.00  0.00    -0.257 OA
BRANCH   8  10
HETATM   10  C11 LIG X 999      44.200 130.668  22.883  1.00  0.00     0.054 C 
HETATM   11  C3  LIG X 999      42.658 130.394  22.784  1.00  0.00     0.030 C 
HETATM   12  C2  LIG X 999      41.927 130.906  24.008  1.00  0.00    -0.021 C 
HETATM   13  C4  LIG X 999      42.349 128.905  22.524  1.00  0.00     0.027 C 
HETATM   14  C1  LIG X 999      42.341 132.016  24.624  1.00  0.00    -0.004 C 
HETATM   15  C15 LIG X 999      43.587 132.684  24.211  1.00  0.00    -0.003 C 
HETATM   16  C14 LIG X 999      44.437 132.088  23.365  1.00  0.00    -0.008 C 
HETATM   17  C5  LIG X 999      43.011 127.991  23.569  1.00  0.00     0.066 C 
HETATM   18  C9  LIG X 999      44.528 128.223  23.608  1.00  0.00     0.019 C 
HETATM   19  C10 LIG X 999      44.850 129.695  23.906  1.00  0.00     0.024 C 
BRANCH  17  20
HETATM   20  C6  LIG X 999      42.728 126.582  23.256  1.00  0.00    -0.090 C 
HETATM   21  C7  LIG X 999      42.497 125.427  23.000  1.00  0.00     0.005 C 
BRANCH  21  22
HETATM   22  C8  LIG X 999      42.220 124.053  22.697  1.00  0.00     0.258 C 
HETATM   23  O1  LIG X 999      41.960 123.244  23.625  1.00  0.00    -0.637 OA
HETATM   24  O2  LIG X 999      42.241 123.615  21.380  1.00  0.00    -0.637 OA
ENDBRANCH  21  22
ENDBRANCH  17  20
ENDBRANCH   8  10
ENDBRANCH   1   4
TORSDOF 4
ENDMDL
