REMARK VINA RESULT:      -6.8      2.227      2.911
REMARK  5 active torsions:
REMARK  status: ('A' for Active; 'I' for Inactive)
REMARK    1  A    between atoms: N1_1  and  C1_2 
REMARK    2  A    between atoms: C1_2  and  C2_3 
REMARK    3  A    between atoms: C2_3  and  C3_4 
REMARK    4  A    between atoms: C3_4  and  O1_5 
REMARK    5  A    between atoms: O1_5  and  C4_6 
ROOT
HETATM    1  C4  LIG X 999      44.677 131.154  18.711  1.00  0.00     0.069 A 
HETATM    2  C5  LIG X 999      43.616 131.732  17.987  1.00  0.00     0.037 A 
HETATM    3  C6  LIG X 999      43.645 131.762  16.591  1.00  0.00     0.015 A 
HETATM    4  C7  LIG X 999      44.732 131.215  15.895  1.00  0.00    -0.026 A 
HETATM    5  C8  LIG X 999      44.771 131.240  14.492  1.00  0.00     0.012 A 
HETATM    6  C9  LIG X 999      45.862 130.691  13.811  1.00  0.00     0.001 A 
HETATM    7  C10 LIG X 999      46.918 130.117  14.523  1.00  0.00     0.001 A 
HETATM    8  C11 LIG X 999      46.892 130.086  15.919  1.00  0.00     0.012 A 
HETATM    9  C12 LIG X 999      45.803 130.633  16.616  1.00  0.00    -0.023 A 
HETATM   10  C13 LIG X 999      45.764 130.608  18.018  1.00  0.00     0.049 A 
ENDROOT
BRANCH   1  11
HETATM   11  O1  LIG X 999      44.690 131.102  20.113  1.00  0.00    -0.351 OA
BRANCH  11  12
HETATM   12  C3  LIG X 999      43.619 131.539  20.947  1.00  0.00     0.177 C 
BRANCH  12  13
HETATM   13  C2  LIG X 999      43.937 131.235  22.414  1.00  0.00     0.056 C 
BRANCH  13  14
HETATM   14  C1  LIG X 999      42.798 131.612  23.370  1.00  0.00     0.269 C 
BRANCH  14  15
HETATM   15  N1  LIG X 999      42.020 130.434  23.748  1.00  0.00     0.078 N 
HETATM   16  H1  LIG X 999      41.552 130.629  24.663  1.00  0.00     0.312 HD
HETATM   17  H2  LIG X 999      41.250 130.323  23.049  1.00  0.00     0.312 HD
ENDBRANCH  14  15
ENDBRANCH  13  14
ENDBRANCH  12  13
ENDBRANCH  11  12
ENDBRANCH   1  11
TORSDOF 5
