REMARK VINA RESULT:      -0.9      6.762      9.180
REMARK  2 active torsions:
REMARK  status: ('A' for Active; 'I' for Inactive)
REMARK    1  A    between atoms: C4_4  and  O1_5 
REMARK    2  A    between atoms: C10_11  and  N1_12 
ROOT
HETATM    1  N1  LIG X 999      46.795 133.516  21.626  1.00  0.00    -0.072 NA
HETATM    2  N2  LIG X 999      47.786 133.888  22.257  1.00  0.00    -0.162 NA
HETATM    3  N3  LIG X 999      48.775 134.262  22.886  1.00  0.00     0.068 N 
ENDROOT
BRANCH   1   4
HETATM    4  C10 LIG X 999      45.785 132.672  22.204  1.00  0.00     0.101 C 
HETATM    5  C9  LIG X 999      44.882 132.042  21.318  1.00  0.00     0.007 C 
HETATM    6  C8  LIG X 999      44.121 130.916  21.564  1.00  0.00    -0.022 C 
HETATM    7  C12 LIG X 999      44.480 132.613  20.006  1.00  0.00     0.278 C 
HETATM    8  C7  LIG X 999      44.438 129.910  22.485  1.00  0.00     0.012 C 
HETATM    9  C15 LIG X 999      43.046 130.792  20.547  1.00  0.00     0.276 C 
HETATM   10  C6  LIG X 999      43.517 129.369  23.393  1.00  0.00     0.037 C 
HETATM   11  C4  LIG X 999      42.391 130.035  23.922  1.00  0.00     0.068 C 
HETATM   12  C3  LIG X 999      42.248 131.446  23.950  1.00  0.00     0.037 C 
HETATM   13  C2  LIG X 999      43.302 132.368  23.884  1.00  0.00     0.003 C 
HETATM   14  C1  LIG X 999      44.602 132.085  24.320  1.00  0.00     0.002 C 
HETATM   15  C11 LIG X 999      45.740 132.487  23.609  1.00  0.00     0.035 C 
HETATM   16  N4  LIG X 999      43.161 132.000  19.678  1.00  0.00    -0.067 N 
HETATM   17  C13 LIG X 999      43.093 131.632  18.246  1.00  0.00     0.272 C 
HETATM   18  C14 LIG X 999      42.066 132.951  19.986  1.00  0.00     0.272 C 
BRANCH  11  19
HETATM   19  O1  LIG X 999      41.380 129.210  24.442  1.00  0.00    -0.356 OA
HETATM   20  C5  LIG X 999      41.004 127.947  23.902  1.00  0.00     0.210 C 
ENDBRANCH  11  19
ENDBRANCH   1   4
TORSDOF 2
