REMARK VINA RESULT:      -5.0      6.545      8.314
REMARK  1 active torsions:
REMARK  status: ('A' for Active; 'I' for Inactive)
REMARK    1  A    between atoms: C3_3  and  N1_4 
ROOT
HETATM    1  N1  LIG X 999      44.253 130.265  22.489  1.00  0.00    -0.072 NA
HETATM    2  N2  LIG X 999      43.706 131.032  21.694  1.00  0.00    -0.162 NA
HETATM    3  N3  LIG X 999      43.161 131.800  20.903  1.00  0.00     0.068 N 
ENDROOT
BRANCH   1   4
HETATM    4  C3  LIG X 999      43.555 129.167  23.095  1.00  0.00     0.104 A 
HETATM    5  C2  LIG X 999      42.332 129.447  23.717  1.00  0.00     0.035 A 
HETATM    6  C1  LIG X 999      41.556 128.427  24.265  1.00  0.00     0.003 A 
HETATM    7  C10 LIG X 999      41.993 127.104  24.212  1.00  0.00     0.012 A 
HETATM    8  C9  LIG X 999      43.231 126.792  23.636  1.00  0.00    -0.023 A 
HETATM    9  C4  LIG X 999      44.044 127.833  23.085  1.00  0.00     0.006 A 
HETATM   10  C8  LIG X 999      43.681 125.458  23.622  1.00  0.00     0.021 A 
HETATM   11  C5  LIG X 999      45.327 127.499  22.586  1.00  0.00     0.024 A 
HETATM   12  C6  LIG X 999      45.735 126.165  22.600  1.00  0.00    -0.023 A 
HETATM   13  C7  LIG X 999      44.938 125.180  23.091  1.00  0.00    -0.024 A 
HETATM   14  C14 LIG X 999      47.015 125.605  22.115  1.00  0.00     0.276 C 
HETATM   15  C11 LIG X 999      45.604 123.865  22.979  1.00  0.00     0.276 C 
HETATM   16  N4  LIG X 999      46.991 124.155  22.491  1.00  0.00    -0.067 N 
HETATM   17  C12 LIG X 999      47.321 123.307  21.323  1.00  0.00     0.272 C 
HETATM   18  C13 LIG X 999      47.974 123.893  23.569  1.00  0.00     0.272 C 
ENDBRANCH   1   4
TORSDOF 1
