MODEL 1
REMARK VINA RESULT:      -7.5      0.000      0.000
REMARK  2 active torsions:
REMARK  status: ('A' for Active; 'I' for Inactive)
REMARK    1  A    between atoms: C2_5  and  C3_6 
REMARK    2  A    between atoms: N3_18  and  C13_19 
ROOT
HETATM    1  H1  LIG X 999      41.525 132.426  17.775  1.00  0.00     0.190 HD
HETATM    2  N1  LIG X 999      42.500 132.125  17.552  1.00  0.00    -0.260 NA
HETATM    3  C1  LIG X 999      43.293 131.705  18.484  1.00  0.00     0.268 A 
HETATM    4  O1  LIG X 999      42.962 131.632  19.753  1.00  0.00    -0.257 OA
HETATM    5  C2  LIG X 999      44.041 131.180  20.363  1.00  0.00     0.177 A 
HETATM    6  N2  LIG X 999      45.041 130.983  19.477  1.00  0.00    -0.269 N 
HETATM    7  H9  LIG X 999      45.995 130.606  19.672  1.00  0.00     0.190 HD
HETATM    8  N3  LIG X 999      44.567 131.309  18.285  1.00  0.00    -0.212 N 
ENDROOT
BRANCH   5   9
HETATM    9  C3  LIG X 999      44.157 130.956  21.823  1.00  0.00     0.028 A 
HETATM   10  C4  LIG X 999      43.832 132.023  22.678  1.00  0.00     0.017 A 
HETATM   11  C5  LIG X 999      43.849 131.863  24.062  1.00  0.00     0.002 A 
HETATM   12  C6  LIG X 999      44.193 130.635  24.623  1.00  0.00     0.012 A 
HETATM   13  C7  LIG X 999      44.543 129.556  23.801  1.00  0.00    -0.025 A 
HETATM   14  C8  LIG X 999      44.909 128.329  24.377  1.00  0.00     0.012 A 
HETATM   15  C12 LIG X 999      44.542 129.708  22.385  1.00  0.00    -0.011 A 
HETATM   16  C9  LIG X 999      45.291 127.259  23.570  1.00  0.00     0.001 A 
HETATM   17  C10 LIG X 999      45.325 127.404  22.185  1.00  0.00     0.001 A 
HETATM   18  C11 LIG X 999      44.962 128.617  21.593  1.00  0.00     0.013 A 
ENDBRANCH   5   9
BRANCH   8  19
HETATM   19  C13 LIG X 999      45.302 131.226  17.051  1.00  0.00     0.105 A 
HETATM   20  C14 LIG X 999      45.625 132.389  16.334  1.00  0.00     0.054 A 
HETATM   21  C15 LIG X 999      46.326 132.287  15.131  1.00  0.00     0.122 A 
HETATM   22  N4  LIG X 999      46.695 131.068  14.658  1.00  0.00    -0.230 NA
HETATM   23  C16 LIG X 999      46.397 129.923  15.327  1.00  0.00     0.251 A 
HETATM   24  F1  LIG X 999      46.788 128.727  14.822  1.00  0.00    -0.181 F 
HETATM   25  C17 LIG X 999      45.693 129.978  16.534  1.00  0.00     0.202 A 
HETATM   26  F2  LIG X 999      45.430 128.831  17.210  1.00  0.00    -0.199 F 
ENDBRANCH   8  19
TORSDOF 2
ENDMDL
MODEL 2
REMARK VINA RESULT:      -7.3      2.149      3.102
REMARK  2 active torsions:
REMARK  status: ('A' for Active; 'I' for Inactive)
REMARK    1  A    between atoms: C2_5  and  C3_6 
REMARK    2  A    between atoms: N3_18  and  C13_19 
ROOT
HETATM    1  H1  LIG X 999      42.329 132.131  14.226  1.00  0.00     0.190 HD
HETATM    2  N1  LIG X 999      43.266 131.733  14.463  1.00  0.00    -0.260 NA
HETATM    3  C1  LIG X 999      43.632 131.589  15.695  1.00  0.00     0.268 A 
HETATM    4  O1  LIG X 999      42.892 131.928  16.726  1.00  0.00    -0.257 OA
HETATM    5  C2  LIG X 999      43.626 131.641  17.783  1.00  0.00     0.177 A 
HETATM    6  N2  LIG X 999      44.821 131.134  17.410  1.00  0.00    -0.269 N 
HETATM    7  H9  LIG X 999      45.588 130.795  18.033  1.00  0.00     0.190 HD
HETATM    8  N3  LIG X 999      44.824 131.095  16.088  1.00  0.00    -0.212 N 
ENDROOT
BRANCH   5   9
HETATM    9  C3  LIG X 999      43.216 131.876  19.188  1.00  0.00     0.028 A 
HETATM   10  C4  LIG X 999      42.169 132.786  19.422  1.00  0.00     0.017 A 
HETATM   11  C5  LIG X 999      41.684 133.003  20.710  1.00  0.00     0.002 A 
HETATM   12  C6  LIG X 999      42.234 132.319  21.793  1.00  0.00     0.012 A 
HETATM   13  C7  LIG X 999      43.292 131.422  21.598  1.00  0.00    -0.025 A 
HETATM   14  C8  LIG X 999      43.852 130.754  22.699  1.00  0.00     0.012 A 
HETATM   15  C12 LIG X 999      43.806 131.199  20.290  1.00  0.00    -0.011 A 
HETATM   16  C9  LIG X 999      44.927 129.884  22.522  1.00  0.00     0.001 A 
HETATM   17  C10 LIG X 999      45.460 129.681  21.251  1.00  0.00     0.001 A 
HETATM   18  C11 LIG X 999      44.915 130.335  20.143  1.00  0.00     0.013 A 
ENDBRANCH   5   9
BRANCH   8  19
HETATM   19  C13 LIG X 999      45.905 130.600  15.276  1.00  0.00     0.105 A 
HETATM   20  C14 LIG X 999      46.211 129.230  15.255  1.00  0.00     0.054 A 
HETATM   21  C15 LIG X 999      47.273 128.772  14.473  1.00  0.00     0.122 A 
HETATM   22  N4  LIG X 999      48.004 129.648  13.734  1.00  0.00    -0.230 NA
HETATM   23  C16 LIG X 999      47.733 130.980  13.734  1.00  0.00     0.251 A 
HETATM   24  F1  LIG X 999      48.484 131.818  12.978  1.00  0.00    -0.181 F 
HETATM   25  C17 LIG X 999      46.681 131.483  14.505  1.00  0.00     0.202 A 
HETATM   26  F2  LIG X 999      46.400 132.810  14.471  1.00  0.00    -0.199 F 
ENDBRANCH   8  19
TORSDOF 2
ENDMDL
MODEL 3
REMARK VINA RESULT:      -7.3      2.671      7.221
REMARK  2 active torsions:
REMARK  status: ('A' for Active; 'I' for Inactive)
REMARK    1  A    between atoms: C2_5  and  C3_6 
REMARK    2  A    between atoms: N3_18  and  C13_19 
ROOT
HETATM    1  H1  LIG X 999      47.408 132.523  20.947  1.00  0.00     0.190 HD
HETATM    2  N1  LIG X 999      46.478 132.128  21.214  1.00  0.00    -0.260 NA
HETATM    3  C1  LIG X 999      45.628 131.766  20.309  1.00  0.00     0.268 A 
HETATM    4  O1  LIG X 999      45.842 131.869  19.016  1.00  0.00    -0.257 OA
HETATM    5  C2  LIG X 999      44.740 131.416  18.450  1.00  0.00     0.177 A 
HETATM    6  N2  LIG X 999      43.842 131.043  19.387  1.00  0.00    -0.269 N 
HETATM    7  H9  LIG X 999      42.898 130.624  19.229  1.00  0.00     0.190 HD
HETATM    8  N3  LIG X 999      44.405 131.258  20.565  1.00  0.00    -0.212 N 
ENDROOT
BRANCH   5   9
HETATM    9  C3  LIG X 999      44.501 131.360  16.989  1.00  0.00     0.028 A 
HETATM   10  C4  LIG X 999      43.302 131.905  16.499  1.00  0.00     0.017 A 
HETATM   11  C5  LIG X 999      43.043 131.951  15.130  1.00  0.00     0.002 A 
HETATM   12  C6  LIG X 999      43.973 131.452  14.221  1.00  0.00     0.012 A 
HETATM   13  C7  LIG X 999      45.170 130.883  14.677  1.00  0.00    -0.025 A 
HETATM   14  C8  LIG X 999      46.091 130.364  13.753  1.00  0.00     0.012 A 
HETATM   15  C12 LIG X 999      45.443 130.818  16.072  1.00  0.00    -0.011 A 
HETATM   16  C9  LIG X 999      47.269 129.765  14.195  1.00  0.00     0.001 A 
HETATM   17  C10 LIG X 999      47.535 129.666  15.560  1.00  0.00     0.001 A 
HETATM   18  C11 LIG X 999      46.631 130.178  16.493  1.00  0.00     0.013 A 
ENDBRANCH   5   9
BRANCH   8  19
HETATM   19  C13 LIG X 999      43.796 130.975  21.838  1.00  0.00     0.105 A 
HETATM   20  C14 LIG X 999      42.859 131.862  22.392  1.00  0.00     0.054 A 
HETATM   21  C15 LIG X 999      42.291 131.578  23.635  1.00  0.00     0.122 A 
HETATM   22  N4  LIG X 999      42.641 130.448  24.304  1.00  0.00    -0.230 NA
HETATM   23  C16 LIG X 999      43.545 129.570  23.795  1.00  0.00     0.251 A 
HETATM   24  F1  LIG X 999      43.863 128.451  24.492  1.00  0.00    -0.181 F 
HETATM   25  C17 LIG X 999      44.142 129.817  22.554  1.00  0.00     0.202 A 
HETATM   26  F2  LIG X 999      45.019 128.916  22.042  1.00  0.00    -0.199 F 
ENDBRANCH   8  19
TORSDOF 2
ENDMDL
MODEL 4
REMARK VINA RESULT:      -7.1      2.328      3.814
REMARK  2 active torsions:
REMARK  status: ('A' for Active; 'I' for Inactive)
REMARK    1  A    between atoms: C2_5  and  C3_6 
REMARK    2  A    between atoms: N3_18  and  C13_19 
ROOT
HETATM    1  H1  LIG X 999      42.820 132.294  14.961  1.00  0.00     0.190 HD
HETATM    2  N1  LIG X 999      43.759 131.834  14.984  1.00  0.00    -0.260 NA
HETATM    3  C1  LIG X 999      44.280 131.450  16.104  1.00  0.00     0.268 A 
HETATM    4  O1  LIG X 999      43.705 131.608  17.275  1.00  0.00    -0.257 OA
HETATM    5  C2  LIG X 999      44.559 131.107  18.146  1.00  0.00     0.177 A 
HETATM    6  N2  LIG X 999      45.665 130.649  17.520  1.00  0.00    -0.269 N 
HETATM    7  H9  LIG X 999      46.490 130.179  17.953  1.00  0.00     0.190 HD
HETATM    8  N3  LIG X 999      45.486 130.860  16.225  1.00  0.00    -0.212 N 
ENDROOT
BRANCH   5   9
HETATM    9  C3  LIG X 999      44.355 131.084  19.613  1.00  0.00     0.028 A 
HETATM   10  C4  LIG X 999      45.290 130.382  20.394  1.00  0.00     0.017 A 
HETATM   11  C5  LIG X 999      45.201 130.377  21.785  1.00  0.00     0.002 A 
HETATM   12  C6  LIG X 999      44.177 131.070  22.427  1.00  0.00     0.012 A 
HETATM   13  C7  LIG X 999      43.217 131.764  21.678  1.00  0.00    -0.025 A 
HETATM   14  C8  LIG X 999      42.178 132.442  22.334  1.00  0.00     0.012 A 
HETATM   15  C12 LIG X 999      43.287 131.768  20.256  1.00  0.00    -0.011 A 
HETATM   16  C9  LIG X 999      41.197 133.107  21.600  1.00  0.00     0.001 A 
HETATM   17  C10 LIG X 999      41.236 133.092  20.207  1.00  0.00     0.001 A 
HETATM   18  C11 LIG X 999      42.264 132.424  19.536  1.00  0.00     0.013 A 
ENDBRANCH   5   9
BRANCH   8  19
HETATM   19  C13 LIG X 999      46.420 130.500  15.191  1.00  0.00     0.105 A 
HETATM   20  C14 LIG X 999      46.787 129.158  14.998  1.00  0.00     0.054 A 
HETATM   21  C15 LIG X 999      47.706 128.831  13.999  1.00  0.00     0.122 A 
HETATM   22  N4  LIG X 999      48.240 129.805  13.217  1.00  0.00    -0.230 NA
HETATM   23  C16 LIG X 999      47.907 131.112  13.380  1.00  0.00     0.251 A 
HETATM   24  F1  LIG X 999      48.460 132.053  12.574  1.00  0.00    -0.181 F 
HETATM   25  C17 LIG X 999      46.993 131.486  14.370  1.00  0.00     0.202 A 
HETATM   26  F2  LIG X 999      46.643 132.791  14.501  1.00  0.00    -0.199 F 
ENDBRANCH   8  19
TORSDOF 2
ENDMDL
MODEL 5
REMARK VINA RESULT:      -6.0      3.031      7.465
REMARK  2 active torsions:
REMARK  status: ('A' for Active; 'I' for Inactive)
REMARK    1  A    between atoms: C2_5  and  C3_6 
REMARK    2  A    between atoms: N3_18  and  C13_19 
ROOT
HETATM    1  H1  LIG X 999      47.471 130.497  20.770  1.00  0.00     0.190 HD
HETATM    2  N1  LIG X 999      46.477 130.721  21.003  1.00  0.00    -0.260 NA
HETATM    3  C1  LIG X 999      45.606 130.918  20.066  1.00  0.00     0.268 A 
HETATM    4  O1  LIG X 999      45.883 130.869  18.783  1.00  0.00    -0.257 OA
HETATM    5  C2  LIG X 999      44.744 131.141  18.177  1.00  0.00     0.177 A 
HETATM    6  N2  LIG X 999      43.766 131.369  19.080  1.00  0.00    -0.269 N 
HETATM    7  H9  LIG X 999      42.761 131.579  18.887  1.00  0.00     0.190 HD
HETATM    8  N3  LIG X 999      44.309 131.222  20.278  1.00  0.00    -0.212 N 
ENDROOT
BRANCH   5   9
HETATM    9  C3  LIG X 999      44.566 131.226  16.708  1.00  0.00     0.028 A 
HETATM   10  C4  LIG X 999      43.381 131.806  16.223  1.00  0.00     0.017 A 
HETATM   11  C5  LIG X 999      43.178 131.982  14.856  1.00  0.00     0.002 A 
HETATM   12  C6  LIG X 999      44.151 131.582  13.943  1.00  0.00     0.012 A 
HETATM   13  C7  LIG X 999      45.335 130.982  14.391  1.00  0.00    -0.025 A 
HETATM   14  C8  LIG X 999      46.300 130.563  13.461  1.00  0.00     0.012 A 
HETATM   15  C12 LIG X 999      45.552 130.783  15.783  1.00  0.00    -0.011 A 
HETATM   16  C9  LIG X 999      47.467 129.934  13.892  1.00  0.00     0.001 A 
HETATM   17  C10 LIG X 999      47.677 129.705  15.250  1.00  0.00     0.001 A 
HETATM   18  C11 LIG X 999      46.729 130.116  16.191  1.00  0.00     0.013 A 
ENDBRANCH   5   9
BRANCH   8  19
HETATM   19  C13 LIG X 999      43.608 131.357  21.527  1.00  0.00     0.105 A 
HETATM   20  C14 LIG X 999      44.052 130.674  22.671  1.00  0.00     0.054 A 
HETATM   21  C15 LIG X 999      43.350 130.806  23.871  1.00  0.00     0.122 A 
HETATM   22  N4  LIG X 999      42.244 131.594  23.931  1.00  0.00    -0.230 NA
HETATM   23  C16 LIG X 999      41.789 132.267  22.841  1.00  0.00     0.251 A 
HETATM   24  F1  LIG X 999      40.684 133.046  22.946  1.00  0.00    -0.181 F 
HETATM   25  C17 LIG X 999      42.459 132.161  21.619  1.00  0.00     0.202 A 
HETATM   26  F2  LIG X 999      42.013 132.864  20.547  1.00  0.00    -0.199 F 
ENDBRANCH   8  19
TORSDOF 2
ENDMDL
MODEL 6
REMARK VINA RESULT:      -5.8      1.999      2.425
REMARK  2 active torsions:
REMARK  status: ('A' for Active; 'I' for Inactive)
REMARK    1  A    between atoms: C2_5  and  C3_6 
REMARK    2  A    between atoms: N3_18  and  C13_19 
ROOT
HETATM    1  H1  LIG X 999      41.933 132.354  17.142  1.00  0.00     0.190 HD
HETATM    2  N1  LIG X 999      42.865 131.923  16.947  1.00  0.00    -0.260 NA
HETATM    3  C1  LIG X 999      43.719 131.734  17.899  1.00  0.00     0.268 A 
HETATM    4  O1  LIG X 999      43.507 132.064  19.153  1.00  0.00    -0.257 OA
HETATM    5  C2  LIG X 999      44.613 131.726  19.788  1.00  0.00     0.177 A 
HETATM    6  N2  LIG X 999      45.512 131.197  18.930  1.00  0.00    -0.269 N 
HETATM    7  H9  LIG X 999      46.458 130.819  19.157  1.00  0.00     0.190 HD
HETATM    8  N3  LIG X 999      44.945 131.196  17.734  1.00  0.00    -0.212 N 
ENDROOT
BRANCH   5   9
HETATM    9  C3  LIG X 999      44.854 131.933  21.235  1.00  0.00     0.028 A 
HETATM   10  C4  LIG X 999      45.891 132.805  21.609  1.00  0.00     0.017 A 
HETATM   11  C5  LIG X 999      46.129 133.102  22.950  1.00  0.00     0.002 A 
HETATM   12  C6  LIG X 999      45.340 132.533  23.946  1.00  0.00     0.012 A 
HETATM   13  C7  LIG X 999      44.311 131.643  23.610  1.00  0.00    -0.025 A 
HETATM   14  C8  LIG X 999      43.536 131.059  24.624  1.00  0.00     0.012 A 
HETATM   15  C12 LIG X 999      44.064 131.320  22.246  1.00  0.00    -0.011 A 
HETATM   16  C9  LIG X 999      42.532 130.145  24.304  1.00  0.00     0.001 A 
HETATM   17  C10 LIG X 999      42.300 129.797  22.975  1.00  0.00     0.001 A 
HETATM   18  C11 LIG X 999      43.061 130.370  21.953  1.00  0.00     0.013 A 
ENDBRANCH   5   9
BRANCH   8  19
HETATM   19  C13 LIG X 999      45.553 130.695  16.530  1.00  0.00     0.105 A 
HETATM   20  C14 LIG X 999      45.541 129.320  16.244  1.00  0.00     0.054 A 
HETATM   21  C15 LIG X 999      46.150 128.852  15.078  1.00  0.00     0.122 A 
HETATM   22  N4  LIG X 999      46.748 129.723  14.223  1.00  0.00    -0.230 NA
HETATM   23  C16 LIG X 999      46.777 131.059  14.471  1.00  0.00     0.251 A 
HETATM   24  F1  LIG X 999      47.380 131.894  13.590  1.00  0.00    -0.181 F 
HETATM   25  C17 LIG X 999      46.183 131.571  15.629  1.00  0.00     0.202 A 
HETATM   26  F2  LIG X 999      46.189 132.910  15.850  1.00  0.00    -0.199 F 
ENDBRANCH   8  19
TORSDOF 2
ENDMDL
MODEL 7
REMARK VINA RESULT:      -5.4      6.481      8.563
REMARK  2 active torsions:
REMARK  status: ('A' for Active; 'I' for Inactive)
REMARK    1  A    between atoms: C2_5  and  C3_6 
REMARK    2  A    between atoms: N3_18  and  C13_19 
ROOT
HETATM    1  H1  LIG X 999      45.672 127.472  21.792  1.00  0.00     0.190 HD
HETATM    2  N1  LIG X 999      46.039 126.547  22.112  1.00  0.00    -0.260 NA
HETATM    3  C1  LIG X 999      45.231 125.583  22.415  1.00  0.00     0.268 A 
HETATM    4  O1  LIG X 999      43.922 125.678  22.363  1.00  0.00    -0.257 OA
HETATM    5  C2  LIG X 999      43.478 124.502  22.762  1.00  0.00     0.177 A 
HETATM    6  N2  LIG X 999      44.507 123.683  23.070  1.00  0.00    -0.269 N 
HETATM    7  H9  LIG X 999      44.455 122.689  23.384  1.00  0.00     0.190 HD
HETATM    8  N3  LIG X 999      45.619 124.365  22.844  1.00  0.00    -0.212 N 
ENDROOT
BRANCH   5   9
HETATM    9  C3  LIG X 999      42.048 124.137  22.894  1.00  0.00     0.028 A 
HETATM   10  C4  LIG X 999      41.683 122.805  22.630  1.00  0.00     0.017 A 
HETATM   11  C5  LIG X 999      40.369 122.375  22.803  1.00  0.00     0.002 A 
HETATM   12  C6  LIG X 999      39.390 123.264  23.239  1.00  0.00     0.012 A 
HETATM   13  C7  LIG X 999      39.714 124.604  23.491  1.00  0.00    -0.025 A 
HETATM   14  C8  LIG X 999      38.715 125.497  23.910  1.00  0.00     0.012 A 
HETATM   15  C12 LIG X 999      41.050 125.061  23.307  1.00  0.00    -0.011 A 
HETATM   16  C9  LIG X 999      39.018 126.840  24.130  1.00  0.00     0.001 A 
HETATM   17  C10 LIG X 999      40.315 127.307  23.924  1.00  0.00     0.001 A 
HETATM   18  C11 LIG X 999      41.322 126.433  23.509  1.00  0.00     0.013 A 
ENDBRANCH   5   9
BRANCH   8  19
HETATM   19  C13 LIG X 999      46.953 123.856  23.024  1.00  0.00     0.105 A 
HETATM   20  C14 LIG X 999      47.507 123.748  24.310  1.00  0.00     0.054 A 
HETATM   21  C15 LIG X 999      48.809 123.265  24.462  1.00  0.00     0.122 A 
HETATM   22  N4  LIG X 999      49.534 122.901  23.372  1.00  0.00    -0.230 NA
HETATM   23  C16 LIG X 999      49.027 122.996  22.115  1.00  0.00     0.251 A 
HETATM   24  F1  LIG X 999      49.783 122.617  21.055  1.00  0.00    -0.181 F 
HETATM   25  C17 LIG X 999      47.729 123.476  21.915  1.00  0.00     0.202 A 
HETATM   26  F2  LIG X 999      47.222 123.534  20.657  1.00  0.00    -0.199 F 
ENDBRANCH   8  19
TORSDOF 2
ENDMDL
MODEL 8
REMARK VINA RESULT:      -5.3      1.955      2.325
REMARK  2 active torsions:
REMARK  status: ('A' for Active; 'I' for Inactive)
REMARK    1  A    between atoms: C2_5  and  C3_6 
REMARK    2  A    between atoms: N3_18  and  C13_19 
ROOT
HETATM    1  H1  LIG X 999      46.121 133.918  20.464  1.00  0.00     0.190 HD
HETATM    2  N1  LIG X 999      45.866 133.193  19.755  1.00  0.00    -0.260 NA
HETATM    3  C1  LIG X 999      45.279 132.096  20.111  1.00  0.00     0.268 A 
HETATM    4  O1  LIG X 999      44.971 131.797  21.353  1.00  0.00    -0.257 OA
HETATM    5  C2  LIG X 999      44.412 130.605  21.288  1.00  0.00     0.177 A 
HETATM    6  N2  LIG X 999      44.383 130.160  20.014  1.00  0.00    -0.269 N 
HETATM    7  H9  LIG X 999      43.976 129.264  19.663  1.00  0.00     0.190 HD
HETATM    8  N3  LIG X 999      44.926 131.107  19.265  1.00  0.00    -0.212 N 
ENDROOT
BRANCH   5   9
HETATM    9  C3  LIG X 999      43.919 129.837  22.456  1.00  0.00     0.028 A 
HETATM   10  C4  LIG X 999      42.915 130.420  23.248  1.00  0.00     0.017 A 
HETATM   11  C5  LIG X 999      42.355 129.727  24.319  1.00  0.00     0.002 A 
HETATM   12  C6  LIG X 999      42.785 128.438  24.625  1.00  0.00     0.012 A 
HETATM   13  C7  LIG X 999      43.799 127.834  23.869  1.00  0.00    -0.025 A 
HETATM   14  C8  LIG X 999      44.240 126.543  24.199  1.00  0.00     0.012 A 
HETATM   15  C12 LIG X 999      44.390 128.535  22.780  1.00  0.00    -0.011 A 
HETATM   16  C9  LIG X 999      45.271 125.945  23.476  1.00  0.00     0.001 A 
HETATM   17  C10 LIG X 999      45.880 126.632  22.427  1.00  0.00     0.001 A 
HETATM   18  C11 LIG X 999      45.453 127.917  22.083  1.00  0.00     0.013 A 
ENDBRANCH   5   9
BRANCH   8  19
HETATM   19  C13 LIG X 999      45.075 131.049  17.835  1.00  0.00     0.105 A 
HETATM   20  C14 LIG X 999      46.229 130.492  17.261  1.00  0.00     0.054 A 
HETATM   21  C15 LIG X 999      46.361 130.458  15.871  1.00  0.00     0.122 A 
HETATM   22  N4  LIG X 999      45.377 130.960  15.080  1.00  0.00    -0.230 NA
HETATM   23  C16 LIG X 999      44.248 131.506  15.605  1.00  0.00     0.251 A 
HETATM   24  F1  LIG X 999      43.288 131.990  14.779  1.00  0.00    -0.181 F 
HETATM   25  C17 LIG X 999      44.076 131.564  16.991  1.00  0.00     0.202 A 
HETATM   26  F2  LIG X 999      42.930 132.081  17.503  1.00  0.00    -0.199 F 
ENDBRANCH   8  19
TORSDOF 2
ENDMDL
MODEL 9
REMARK VINA RESULT:      -5.0      4.945      7.603
REMARK  2 active torsions:
REMARK  status: ('A' for Active; 'I' for Inactive)
REMARK    1  A    between atoms: C2_5  and  C3_6 
REMARK    2  A    between atoms: N3_18  and  C13_19 
ROOT
HETATM    1  H1  LIG X 999      46.868 125.138  23.421  1.00  0.00     0.190 HD
HETATM    2  N1  LIG X 999      45.847 124.979  23.264  1.00  0.00    -0.260 NA
HETATM    3  C1  LIG X 999      45.030 125.976  23.160  1.00  0.00     0.268 A 
HETATM    4  O1  LIG X 999      45.392 127.236  23.251  1.00  0.00    -0.257 OA
HETATM    5  C2  LIG X 999      44.276 127.924  23.111  1.00  0.00     0.177 A 
HETATM    6  N2  LIG X 999      43.223 127.095  22.943  1.00  0.00    -0.269 N 
HETATM    7  H9  LIG X 999      42.226 127.360  22.781  1.00  0.00     0.190 HD
HETATM    8  N3  LIG X 999      43.701 125.861  22.967  1.00  0.00    -0.212 N 
ENDROOT
BRANCH   5   9
HETATM    9  C3  LIG X 999      44.180 129.401  23.168  1.00  0.00     0.028 A 
HETATM   10  C4  LIG X 999      43.648 129.980  24.334  1.00  0.00     0.017 A 
HETATM   11  C5  LIG X 999      43.593 131.364  24.486  1.00  0.00     0.002 A 
HETATM   12  C6  LIG X 999      44.065 132.201  23.478  1.00  0.00     0.012 A 
HETATM   13  C7  LIG X 999      44.582 131.659  22.294  1.00  0.00    -0.025 A 
HETATM   14  C8  LIG X 999      45.036 132.512  21.276  1.00  0.00     0.012 A 
HETATM   15  C12 LIG X 999      44.634 130.247  22.119  1.00  0.00    -0.011 A 
HETATM   16  C9  LIG X 999      45.521 131.985  20.080  1.00  0.00     0.001 A 
HETATM   17  C10 LIG X 999      45.548 130.606  19.883  1.00  0.00     0.001 A 
HETATM   18  C11 LIG X 999      45.102 129.741  20.885  1.00  0.00     0.013 A 
ENDBRANCH   5   9
BRANCH   8  19
HETATM   19  C13 LIG X 999      42.915 124.666  22.803  1.00  0.00     0.105 A 
HETATM   20  C14 LIG X 999      43.238 123.732  21.805  1.00  0.00     0.054 A 
HETATM   21  C15 LIG X 999      42.456 122.586  21.652  1.00  0.00     0.122 A 
HETATM   22  N4  LIG X 999      41.388 122.375  22.466  1.00  0.00    -0.230 NA
HETATM   23  C16 LIG X 999      41.049 123.260  23.441  1.00  0.00     0.251 A 
HETATM   24  F1  LIG X 999      39.979 123.008  24.235  1.00  0.00    -0.181 F 
HETATM   25  C17 LIG X 999      41.803 124.422  23.627  1.00  0.00     0.202 A 
HETATM   26  F2  LIG X 999      41.474 125.282  24.625  1.00  0.00    -0.199 F 
ENDBRANCH   8  19
TORSDOF 2
ENDMDL
