REMARK VINA RESULT:      -9.3      0.000      0.000
REMARK  3 active torsions:
REMARK  status: ('A' for Active; 'I' for Inactive)
REMARK    1  A    between atoms: C3_3  and  S1_4 
REMARK    2  A    between atoms: S1_4  and  C4_7 
REMARK    3  A    between atoms: C13_16  and  N1_17 
ROOT
HETATM    1  C1  LIG X 999      47.974 130.270  13.035  1.00  0.00     0.013 C 
HETATM    2  C2  LIG X 999      47.316 130.950  13.782  1.00  0.00    -0.102 C 
HETATM    3  C3  LIG X 999      46.512 131.775  14.688  1.00  0.00     0.238 C 
ENDROOT
BRANCH   3   4
HETATM    4  S1  LIG X 999      45.055 130.884  15.196  1.00  0.00     0.185 S 
HETATM    5  O1  LIG X 999      43.863 131.384  14.429  1.00  0.00    -0.222 OA
HETATM    6  O2  LIG X 999      45.236 129.421  14.900  1.00  0.00    -0.222 OA
BRANCH   4   7
HETATM    7  C4  LIG X 999      44.795 131.103  16.925  1.00  0.00     0.060 A 
HETATM    8  C5  LIG X 999      45.791 130.748  17.839  1.00  0.00     0.024 A 
HETATM    9  C6  LIG X 999      45.573 130.895  19.209  1.00  0.00     0.011 A 
HETATM   10  C7  LIG X 999      44.344 131.380  19.694  1.00  0.00    -0.019 A 
HETATM   11  C8  LIG X 999      43.350 131.779  18.766  1.00  0.00    -0.048 A 
HETATM   12  C13 LIG X 999      44.164 131.587  21.191  1.00  0.00     0.251 C 
HETATM   13  C9  LIG X 999      43.577 131.609  17.390  1.00  0.00     0.031 A 
HETATM   14  C10 LIG X 999      42.008 132.302  19.219  1.00  0.00     0.039 C 
HETATM   15  C11 LIG X 999      42.055 132.864  20.640  1.00  0.00     0.007 C 
HETATM   16  C12 LIG X 999      42.695 131.848  21.583  1.00  0.00     0.040 C 
BRANCH  12  17
HETATM   17  N1  LIG X 999      44.692 130.440  21.934  1.00  0.00     0.087 N 
HETATM   18  H14 LIG X 999      45.013 129.707  21.260  1.00  0.00     0.313 HD
HETATM   19  H15 LIG X 999      43.920 130.025  22.508  1.00  0.00     0.313 HD
ENDBRANCH  12  17
ENDBRANCH   4   7
ENDBRANCH   3   4
TORSDOF 3
