REMARK VINA RESULT:      -8.2      0.000      0.000
REMARK  3 active torsions:
REMARK  status: ('A' for Active; 'I' for Inactive)
REMARK    1  A    between atoms: C7_9  and  C8_10 
REMARK    2  A    between atoms: C9_13  and  N4_14 
REMARK    3  A    between atoms: N7_23  and  C14_24 
ROOT
HETATM    1  N4  LIG X 999      46.483 129.756  14.072  1.00  0.00    -0.023 NA
HETATM    2  N5  LIG X 999      47.666 129.631  13.757  1.00  0.00    -0.158 NA
HETATM    3  N6  LIG X 999      48.849 129.505  13.442  1.00  0.00     0.068 N 
ENDROOT
BRANCH   1   4
HETATM    4  C9  LIG X 999      46.113 130.495  15.234  1.00  0.00     0.326 A 
HETATM    5  N3  LIG X 999      45.979 131.831  15.256  1.00  0.00    -0.099 NA
HETATM    6  N2  LIG X 999      45.629 132.138  16.496  1.00  0.00    -0.119 NA
HETATM    7  C8  LIG X 999      45.573 130.976  17.179  1.00  0.00     0.205 A 
HETATM    8  O1  LIG X 999      45.861 129.958  16.404  1.00  0.00    -0.252 OA
BRANCH   7   9
HETATM    9  C7  LIG X 999      45.179 130.873  18.599  1.00  0.00     0.032 A 
HETATM   10  C6  LIG X 999      43.982 131.455  19.121  1.00  0.00     0.020 A 
HETATM   11  C1  LIG X 999      42.850 132.103  18.382  1.00  0.00     0.060 A 
HETATM   12  C5  LIG X 999      43.808 131.377  20.490  1.00  0.00     0.019 A 
HETATM   13  N1  LIG X 999      42.780 132.067  17.090  1.00  0.00    -0.299 NA
HETATM   14  C2  LIG X 999      41.725 132.713  19.173  1.00  0.00     0.034 A 
HETATM   15  H1  LIG X 999      41.978 132.484  16.566  1.00  0.00     0.187 HD
HETATM   16  C3  LIG X 999      41.680 132.610  20.517  1.00  0.00     0.033 A 
HETATM   17  C4  LIG X 999      42.765 131.887  21.198  1.00  0.00     0.048 A 
HETATM   18  N7  LIG X 999      42.936 131.617  22.517  1.00  0.00    -0.324 N 
HETATM   19  C13 LIG X 999      44.114 130.940  22.608  1.00  0.00     0.193 A 
HETATM   20  C12 LIG X 999      44.668 130.775  21.350  1.00  0.00     0.032 A 
HETATM   21  O2  LIG X 999      44.670 130.492  23.801  1.00  0.00    -0.171 OA
HETATM   22  C11 LIG X 999      45.825 130.163  20.885  1.00  0.00     0.018 A 
HETATM   23  C10 LIG X 999      46.076 130.212  19.495  1.00  0.00     0.018 A 
BRANCH  18  24
HETATM   24  C14 LIG X 999      42.080 132.041  23.625  1.00  0.00     0.127 C 
HETATM   25  C15 LIG X 999      42.881 132.865  24.625  1.00  0.00     0.027 C 
ENDBRANCH  18  24
ENDBRANCH   7   9
ENDBRANCH   1   4
TORSDOF 3
