REMARK VINA RESULT:      -8.6      0.000      0.000
REMARK  3 active torsions:
REMARK  status: ('A' for Active; 'I' for Inactive)
REMARK    1  A    between atoms: C3_3  and  S1_4 
REMARK    2  A    between atoms: S1_4  and  C4_7 
REMARK    3  A    between atoms: C12_15  and  N1_16 
ROOT
HETATM    1  C1  LIG X 999      47.638 131.001  12.823  1.00  0.00     0.013 C 
HETATM    2  C2  LIG X 999      47.121 131.286  13.874  1.00  0.00    -0.102 C 
HETATM    3  C3  LIG X 999      46.491 131.635  15.151  1.00  0.00     0.233 C 
ENDROOT
BRANCH   3   4
HETATM    4  S1  LIG X 999      45.020 130.657  15.421  1.00  0.00     0.159 S 
HETATM    5  O1  LIG X 999      45.306 129.248  14.983  1.00  0.00    -0.227 OA
HETATM    6  O2  LIG X 999      43.885 131.199  14.597  1.00  0.00    -0.227 OA
BRANCH   4   7
HETATM    7  C4  LIG X 999      44.561 130.641  17.159  1.00  0.00     0.116 C 
HETATM    8  C5  LIG X 999      43.591 131.789  17.456  1.00  0.00     0.059 C 
HETATM    9  C6  LIG X 999      43.275 131.897  18.926  1.00  0.00    -0.049 A 
HETATM   10  C7  LIG X 999      42.103 132.571  19.310  1.00  0.00     0.007 A 
HETATM   11  C11 LIG X 999      44.157 131.398  19.919  1.00  0.00    -0.019 A 
HETATM   12  C8  LIG X 999      41.771 132.703  20.658  1.00  0.00     0.001 A 
HETATM   13  C9  LIG X 999      42.602 132.165  21.637  1.00  0.00     0.001 A 
HETATM   14  C10 LIG X 999      43.779 131.508  21.274  1.00  0.00     0.010 A 
HETATM   15  C12 LIG X 999      45.425 130.632  19.549  1.00  0.00     0.252 C 
HETATM   16  C13 LIG X 999      45.794 130.778  18.056  1.00  0.00     0.060 C 
BRANCH  15  17
HETATM   17  N1  LIG X 999      46.558 131.078  20.371  1.00  0.00     0.087 N 
HETATM   18  H12 LIG X 999      46.207 131.326  21.323  1.00  0.00     0.313 HD
HETATM   19  H13 LIG X 999      47.203 130.270  20.531  1.00  0.00     0.313 HD
ENDBRANCH  15  17
ENDBRANCH   4   7
ENDBRANCH   3   4
TORSDOF 3
