REMARK VINA RESULT:      -6.3      2.968      7.063
REMARK  6 active torsions:
REMARK  status: ('A' for Active; 'I' for Inactive)
REMARK    1  A    between atoms: S1_2  and  C1_3 
REMARK    2  A    between atoms: C1_3  and  N2_15 
REMARK    3  A    between atoms: N1_4  and  C2_5 
REMARK    4  A    between atoms: N2_15  and  C12_17 
REMARK    5  A    between atoms: C12_17  and  C13_18 
REMARK    6  A    between atoms: C13_18  and  C14_19 
ROOT
HETATM    1  C2  LIG X 999      42.928 131.913  18.154  1.00  0.00     0.060 A 
HETATM    2  C3  LIG X 999      41.831 132.500  18.794  1.00  0.00     0.032 A 
HETATM    3  C4  LIG X 999      41.772 132.565  20.188  1.00  0.00     0.014 A 
HETATM    4  C5  LIG X 999      42.804 132.018  20.964  1.00  0.00    -0.026 A 
HETATM    5  C6  LIG X 999      42.756 132.076  22.365  1.00  0.00     0.012 A 
HETATM    6  C7  LIG X 999      43.787 131.517  23.126  1.00  0.00     0.001 A 
HETATM    7  C8  LIG X 999      44.869 130.895  22.497  1.00  0.00     0.001 A 
HETATM    8  C9  LIG X 999      44.928 130.830  21.102  1.00  0.00     0.012 A 
HETATM    9  C10 LIG X 999      43.902 131.391  20.326  1.00  0.00    -0.024 A 
HETATM   10  C11 LIG X 999      43.950 131.331  18.924  1.00  0.00     0.044 A 
ENDROOT
BRANCH   1  11
HETATM   11  N1  LIG X 999      42.930 131.825  16.721  1.00  0.00    -0.225 NA
HETATM   12  C1  LIG X 999      43.967 131.654  15.952  1.00  0.00     0.160 C 
BRANCH  12  13
HETATM   13  S1  LIG X 999      43.675 131.460  14.193  1.00  0.00    -0.105 SA
HETATM   14  H1  LIG X 999      42.417 130.869  14.413  1.00  0.00     0.110 HD
ENDBRANCH  12  13
BRANCH  12  15
HETATM   15  N2  LIG X 999      45.310 131.703  16.471  1.00  0.00    -0.369 N 
HETATM   16  H9  LIG X 999      45.474 132.050  17.442  1.00  0.00     0.161 HD
BRANCH  15  17
HETATM   17  C12 LIG X 999      46.492 131.462  15.647  1.00  0.00     0.122 C 
BRANCH  17  18
HETATM   18  C13 LIG X 999      46.780 129.958  15.563  1.00  0.00     0.030 C 
BRANCH  18  19
HETATM   19  C14 LIG X 999      47.384 129.560  14.213  1.00  0.00     0.088 C 
HETATM   20  S2  LIG X 999      47.536 130.969  13.129  1.00  0.00    -0.098 SA
ENDBRANCH  18  19
ENDBRANCH  17  18
ENDBRANCH  15  17
ENDBRANCH  12  15
ENDBRANCH   1  11
TORSDOF 6
