REMARK VINA RESULT:      -8.2      4.031      6.549
REMARK  2 active torsions:
REMARK  status: ('A' for Active; 'I' for Inactive)
REMARK    1  A    between atoms: C1_1  and  N1_2 
REMARK    2  A    between atoms: C2_5  and  C3_7 
ROOT
HETATM    1  N1  LIG X 999      43.287 132.431  20.131  1.00  0.00    -0.082 NA
HETATM    2  N2  LIG X 999      43.070 131.945  21.241  1.00  0.00    -0.163 NA
HETATM    3  N3  LIG X 999      42.852 131.461  22.350  1.00  0.00     0.068 N 
ENDROOT
BRANCH   1   4
HETATM    4  C1  LIG X 999      44.269 131.858  19.268  1.00  0.00     0.196 C 
HETATM    5  C2  LIG X 999      43.994 131.655  17.974  1.00  0.00     0.137 C 
HETATM    6  O1  LIG X 999      42.748 132.037  17.482  1.00  0.00    -0.190 OA
BRANCH   5   7
HETATM    7  C3  LIG X 999      44.981 131.058  17.036  1.00  0.00     0.003 A 
HETATM    8  C4  LIG X 999      45.598 129.842  17.374  1.00  0.00     0.015 A 
HETATM    9  C5  LIG X 999      46.538 129.256  16.522  1.00  0.00     0.013 A 
HETATM   10  C6  LIG X 999      46.885 129.881  15.317  1.00  0.00    -0.026 A 
HETATM   11  C7  LIG X 999      47.828 129.300  14.455  1.00  0.00     0.012 A 
HETATM   12  C11 LIG X 999      46.283 131.114  14.970  1.00  0.00    -0.025 A 
HETATM   13  C8  LIG X 999      48.171 129.938  13.260  1.00  0.00     0.001 A 
HETATM   14  C9  LIG X 999      47.579 131.156  12.917  1.00  0.00     0.001 A 
HETATM   15  C10 LIG X 999      46.639 131.744  13.767  1.00  0.00     0.012 A 
HETATM   16  C12 LIG X 999      45.339 131.696  15.831  1.00  0.00     0.026 A 
ENDBRANCH   5   7
ENDBRANCH   1   4
TORSDOF 2
