REMARK VINA RESULT:      -8.0      3.225      7.070
REMARK  3 active torsions:
REMARK  status: ('A' for Active; 'I' for Inactive)
REMARK    1  A    between atoms: O1_2  and  C2_3 
REMARK    2  A    between atoms: C2_3  and  C3_5 
REMARK    3  A    between atoms: C4_6  and  C5_7 
ROOT
HETATM    1  C5  LIG X 999      44.697 131.386  17.844  1.00  0.00     0.019 A 
HETATM    2  C6  LIG X 999      43.366 131.802  17.725  1.00  0.00     0.021 A 
HETATM    3  C7  LIG X 999      42.588 132.010  18.867  1.00  0.00     0.013 A 
HETATM    4  C8  LIG X 999      43.136 131.803  20.142  1.00  0.00    -0.026 A 
HETATM    5  C9  LIG X 999      42.364 132.008  21.296  1.00  0.00     0.012 A 
HETATM    6  C10 LIG X 999      42.922 131.798  22.560  1.00  0.00     0.001 A 
HETATM    7  C11 LIG X 999      44.250 131.382  22.682  1.00  0.00     0.001 A 
HETATM    8  C12 LIG X 999      45.031 131.174  21.541  1.00  0.00     0.012 A 
HETATM    9  C13 LIG X 999      44.483 131.381  20.265  1.00  0.00    -0.025 A 
HETATM   10  C14 LIG X 999      45.256 131.176  19.112  1.00  0.00     0.032 A 
ENDROOT
BRANCH   1  11
HETATM   11  C4  LIG X 999      45.493 131.174  16.664  1.00  0.00    -0.056 C 
HETATM   12  C3  LIG X 999      46.160 130.997  15.675  1.00  0.00     0.008 C 
BRANCH  12  13
HETATM   13  C2  LIG X 999      46.953 130.785  14.499  1.00  0.00     0.339 C 
HETATM   14  O2  LIG X 999      47.259 131.767  13.770  1.00  0.00    -0.249 OA
BRANCH  13  15
HETATM   15  O1  LIG X 999      47.378 129.493  14.179  1.00  0.00    -0.316 OA
HETATM   16  C1  LIG X 999      48.578 129.238  13.460  1.00  0.00     0.214 C 
ENDBRANCH  13  15
ENDBRANCH  12  13
ENDBRANCH   1  11
TORSDOF 3
