REMARK VINA RESULT:      -8.6      0.000      0.000
REMARK  1 active torsions:
REMARK  status: ('A' for Active; 'I' for Inactive)
REMARK    1  A    between atoms: C2_2  and  N1_3 
ROOT
HETATM    1  N1  LIG X 999      46.522 130.622  13.393  1.00  0.00    -0.073 NA
HETATM    2  N2  LIG X 999      47.603 130.034  13.463  1.00  0.00    -0.162 NA
HETATM    3  N3  LIG X 999      48.681 129.447  13.531  1.00  0.00     0.068 N 
ENDROOT
BRANCH   1   4
HETATM    4  C2  LIG X 999      45.736 130.922  14.554  1.00  0.00     0.094 A 
HETATM    5  C1  LIG X 999      44.470 131.527  14.454  1.00  0.00     0.035 A 
HETATM    6  C10 LIG X 999      43.724 131.808  15.602  1.00  0.00     0.014 A 
HETATM    7  C9  LIG X 999      44.232 131.491  16.869  1.00  0.00    -0.025 A 
HETATM    8  C4  LIG X 999      45.515 130.877  16.978  1.00  0.00    -0.023 A 
HETATM    9  C8  LIG X 999      43.487 131.771  18.032  1.00  0.00     0.030 A 
HETATM   10  C3  LIG X 999      46.251 130.601  15.817  1.00  0.00     0.046 A 
HETATM   11  C5  LIG X 999      46.034 130.554  18.249  1.00  0.00     0.022 A 
HETATM   12  C6  LIG X 999      45.267 130.847  19.378  1.00  0.00    -0.015 A 
HETATM   13  C7  LIG X 999      44.041 131.433  19.264  1.00  0.00     0.049 A 
HETATM   14  C14 LIG X 999      45.606 130.598  20.815  1.00  0.00     0.286 A 
HETATM   15  C11 LIG X 999      43.525 131.595  20.597  1.00  0.00     0.351 A 
HETATM   16  O1  LIG X 999      42.402 132.109  20.858  1.00  0.00    -0.259 OA
HETATM   17  N4  LIG X 999      44.434 131.103  21.604  1.00  0.00    -0.005 N 
HETATM   18  C12 LIG X 999      43.795 130.013  22.371  1.00  0.00     0.283 C 
HETATM   19  C13 LIG X 999      44.831 132.206  22.506  1.00  0.00     0.283 C 
ENDBRANCH   1   4
TORSDOF 1
