REMARK VINA RESULT:      -3.8      3.349      6.192
REMARK  4 active torsions:
REMARK  status: ('A' for Active; 'I' for Inactive)
REMARK    1  A    between atoms: C2_2  and  C3_3 
REMARK    2  A    between atoms: C2_2  and  N1_9 
REMARK    3  A    between atoms: C3_3  and  C4_4 
REMARK       I    between atoms: N1_9  and  C8_10 
REMARK       I    between atoms: C8_10  and  N2_12 
REMARK    4  A    between atoms: N2_12  and  C9_13 
ROOT
HETATM    1  C9  LIG X 999      44.997 129.043  22.132  1.00  0.00     0.056 A 
HETATM    2  C10 LIG X 999      44.076 129.888  22.768  1.00  0.00     0.003 A 
HETATM    3  C11 LIG X 999      43.282 129.443  23.784  1.00  0.00    -0.021 A 
HETATM    4  C12 LIG X 999      43.334 128.127  24.232  1.00  0.00     0.022 A 
HETATM    5  C13 LIG X 999      44.243 127.241  23.627  1.00  0.00    -0.023 A 
HETATM    6  C14 LIG X 999      44.327 125.909  24.062  1.00  0.00     0.012 A 
HETATM    7  C15 LIG X 999      45.229 125.029  23.462  1.00  0.00     0.001 A 
HETATM    8  C16 LIG X 999      46.054 125.466  22.425  1.00  0.00     0.001 A 
HETATM    9  C17 LIG X 999      45.988 126.788  21.978  1.00  0.00     0.014 A 
HETATM   10  C18 LIG X 999      45.089 127.696  22.571  1.00  0.00     0.002 A 
HETATM   11  C19 LIG X 999      42.432 130.537  24.300  1.00  0.00     0.276 C 
HETATM   12  N3  LIG X 999      42.943 131.782  23.648  1.00  0.00    -0.067 N 
HETATM   13  C20 LIG X 999      43.725 132.581  24.622  1.00  0.00     0.272 C 
HETATM   14  C21 LIG X 999      41.823 132.605  23.139  1.00  0.00     0.272 C 
HETATM   15  C22 LIG X 999      43.830 131.332  22.530  1.00  0.00     0.278 C 
ENDROOT
BRANCH   1  16
HETATM   16  N2  LIG X 999      45.861 129.550  21.107  1.00  0.00    -0.307 N 
HETATM   17  C8  LIG X 999      45.362 130.047  19.859  1.00  0.00     0.321 C 
HETATM   18  N1  LIG X 999      46.277 130.592  18.897  1.00  0.00    -0.338 N 
HETATM   19  O1  LIG X 999      44.129 129.983  19.600  1.00  0.00    -0.247 OA
HETATM   20  H10 LIG X 999      47.286 130.666  19.159  1.00  0.00     0.164 HD
HETATM   21  H11 LIG X 999      46.894 129.450  21.230  1.00  0.00     0.170 HD
BRANCH  18  22
HETATM   22  C2  LIG X 999      45.848 131.153  17.611  1.00  0.00     0.086 C 
HETATM   23  C1  LIG X 999      44.530 131.906  17.800  1.00  0.00     0.032 C 
BRANCH  22  24
HETATM   24  C3  LIG X 999      45.686 130.031  16.573  1.00  0.00     0.071 C 
BRANCH  24  25
HETATM   25  C4  LIG X 999      46.493 130.308  15.341  1.00  0.00    -0.016 A 
HETATM   26  C5  LIG X 999      46.535 131.512  14.648  1.00  0.00     0.015 A 
HETATM   27  C6  LIG X 999      47.344 131.458  13.507  1.00  0.00     0.008 A 
HETATM   28  C7  LIG X 999      47.924 130.215  13.290  1.00  0.00     0.050 A 
HETATM   29  S1  LIG X 999      47.431 129.180  14.520  1.00  0.00    -0.106 SA
ENDBRANCH  24  25
ENDBRANCH  22  24
ENDBRANCH  18  22
ENDBRANCH   1  16
TORSDOF 4
