REMARK VINA RESULT:      -8.6      0.000      0.000
REMARK  1 active torsions:
REMARK  status: ('A' for Active; 'I' for Inactive)
REMARK    1  A    between atoms: C12_13  and  N2_14 
ROOT
HETATM    1  C1  LIG X 999      46.080 131.720  14.952  1.00  0.00     0.272 C 
HETATM    2  N1  LIG X 999      45.316 130.891  15.912  1.00  0.00    -0.067 N 
HETATM    3  C2  LIG X 999      44.938 129.618  15.254  1.00  0.00     0.272 C 
HETATM    4  C3  LIG X 999      46.130 130.613  17.136  1.00  0.00     0.276 C 
HETATM    5  C4  LIG X 999      45.252 130.942  18.280  1.00  0.00    -0.021 A 
HETATM    6  C5  LIG X 999      45.519 130.736  19.629  1.00  0.00     0.022 A 
HETATM    7  C6  LIG X 999      44.563 131.138  20.577  1.00  0.00    -0.023 A 
HETATM    8  C7  LIG X 999      44.816 130.943  21.944  1.00  0.00     0.012 A 
HETATM    9  C8  LIG X 999      43.886 131.354  22.897  1.00  0.00     0.001 A 
HETATM   10  C9  LIG X 999      42.699 131.967  22.500  1.00  0.00     0.001 A 
HETATM   11  C10 LIG X 999      42.426 132.170  21.145  1.00  0.00     0.014 A 
HETATM   12  C11 LIG X 999      43.342 131.751  20.155  1.00  0.00     0.001 A 
HETATM   13  C12 LIG X 999      43.101 131.936  18.760  1.00  0.00     0.045 A 
HETATM   14  C13 LIG X 999      44.093 131.517  17.858  1.00  0.00     0.003 A 
HETATM   15  C14 LIG X 999      44.089 131.613  16.375  1.00  0.00     0.278 C 
ENDROOT
BRANCH  13  16
HETATM   16  N2  LIG X 999      41.889 132.521  18.254  1.00  0.00    -0.398 N 
HETATM   17  H14 LIG X 999      41.653 133.518  18.455  1.00  0.00     0.156 HD
HETATM   18  H15 LIG X 999      41.241 132.020  17.612  1.00  0.00     0.156 HD
ENDBRANCH  13  16
TORSDOF 1
