REMARK VINA RESULT:      -8.0      2.214      3.258
REMARK  3 active torsions:
REMARK  status: ('A' for Active; 'I' for Inactive)
REMARK    1  A    between atoms: C1_2  and  C2_4 
REMARK       I    between atoms: N1_6  and  C4_7 
REMARK    2  A    between atoms: C4_7  and  C5_9 
REMARK    3  A    between atoms: C6_10  and  C7_11 
ROOT
HETATM    1  C5  LIG X 999      43.608 131.874  19.012  1.00  0.00     0.000 C 
HETATM    2  C6  LIG X 999      44.329 131.424  18.158  1.00  0.00    -0.057 C 
ENDROOT
BRANCH   1   3
HETATM    3  C4  LIG X 999      42.742 132.404  20.031  1.00  0.00     0.300 C 
HETATM    4  N1  LIG X 999      42.740 131.847  21.354  1.00  0.00    -0.317 N 
HETATM    5  C3  LIG X 999      43.554 130.749  21.790  1.00  0.00     0.172 C 
HETATM    6  C17 LIG X 999      41.920 132.326  22.444  1.00  0.00     0.298 C 
HETATM    7  C2  LIG X 999      43.067 130.511  23.213  1.00  0.00     0.242 C 
HETATM    8  O4  LIG X 999      42.254 131.600  23.607  1.00  0.00    -0.354 OA
HETATM    9  O3  LIG X 999      41.982 133.368  19.750  1.00  0.00    -0.258 OA
BRANCH   7  10
HETATM   10  C1  LIG X 999      44.214 130.361  24.167  1.00  0.00     0.204 C 
HETATM   11  O1  LIG X 999      44.793 131.380  24.625  1.00  0.00    -0.646 OA
HETATM   12  O2  LIG X 999      44.610 129.097  24.591  1.00  0.00    -0.646 OA
ENDBRANCH   7  10
ENDBRANCH   1   3
BRANCH   2  13
HETATM   13  C7  LIG X 999      45.186 130.881  17.137  1.00  0.00     0.019 A 
HETATM   14  C8  LIG X 999      45.581 129.539  17.197  1.00  0.00     0.021 A 
HETATM   15  C9  LIG X 999      46.413 129.005  16.210  1.00  0.00     0.013 A 
HETATM   16  C10 LIG X 999      46.858 129.809  15.150  1.00  0.00    -0.026 A 
HETATM   17  C11 LIG X 999      47.693 129.283  14.153  1.00  0.00     0.012 A 
HETATM   18  C15 LIG X 999      46.459 131.168  15.086  1.00  0.00    -0.025 A 
HETATM   19  C12 LIG X 999      48.130 130.096  13.103  1.00  0.00     0.001 A 
HETATM   20  C13 LIG X 999      47.736 131.436  13.039  1.00  0.00     0.001 A 
HETATM   21  C14 LIG X 999      46.904 131.972  14.026  1.00  0.00     0.012 A 
HETATM   22  C16 LIG X 999      45.623 131.695  16.083  1.00  0.00     0.032 A 
ENDBRANCH   2  13
TORSDOF 3
