REMARK VINA RESULT:      -4.8      6.297      7.813
REMARK  1 active torsions:
REMARK  status: ('A' for Active; 'I' for Inactive)
REMARK    1  A    between atoms: C4_4  and  N1_5 
ROOT
HETATM    1  C1  LIG X 999      42.781 122.740  21.121  1.00  0.00     0.049 C 
HETATM    2  C2  LIG X 999      42.551 123.866  22.098  1.00  0.00    -0.045 C 
HETATM    3  C3  LIG X 999      41.222 124.068  22.504  1.00  0.00     0.057 C 
HETATM    4  C4  LIG X 999      40.863 125.231  23.180  1.00  0.00     0.122 C 
HETATM    5  N2  LIG X 999      41.795 126.183  23.417  1.00  0.00    -0.231 NA
HETATM    6  C5  LIG X 999      43.102 126.018  23.087  1.00  0.00     0.070 C 
HETATM    7  C6  LIG X 999      43.979 127.080  23.307  1.00  0.00     0.033 C 
HETATM    8  C7  LIG X 999      45.323 126.964  22.980  1.00  0.00     0.014 C 
HETATM    9  C8  LIG X 999      45.836 125.745  22.527  1.00  0.00    -0.025 C 
HETATM   10  C9  LIG X 999      47.218 125.624  22.304  1.00  0.00     0.012 C 
HETATM   11  C10 LIG X 999      47.773 124.389  21.982  1.00  0.00     0.001 C 
HETATM   12  C11 LIG X 999      46.963 123.259  21.920  1.00  0.00     0.001 C 
HETATM   13  C12 LIG X 999      45.585 123.367  22.125  1.00  0.00     0.013 C 
HETATM   14  C13 LIG X 999      44.974 124.623  22.348  1.00  0.00    -0.013 C 
HETATM   15  C14 LIG X 999      43.558 124.800  22.508  1.00  0.00     0.010 C 
ENDROOT
BRANCH   4  16
HETATM   16  N1  LIG X 999      39.507 125.454  23.571  1.00  0.00    -0.384 N 
HETATM   17  H5  LIG X 999      38.916 124.673  23.933  1.00  0.00     0.157 HD
HETATM   18  H6  LIG X 999      39.090 126.409  23.501  1.00  0.00     0.157 HD
ENDBRANCH   4  16
TORSDOF 1
