REMARK VINA RESULT:      -4.7      3.539      4.416
REMARK  3 active torsions:
REMARK  status: ('A' for Active; 'I' for Inactive)
REMARK    1  A    between atoms: C3_3  and  S1_4 
REMARK    2  A    between atoms: S1_4  and  C4_7 
REMARK    3  A    between atoms: C6_9  and  N1_10 
ROOT
HETATM    1  C1  LIG X 999      45.166 130.886  18.532  1.00  0.00     0.013 C 
HETATM    2  C2  LIG X 999      45.410 130.975  19.709  1.00  0.00    -0.102 C 
HETATM    3  C3  LIG X 999      45.705 131.078  21.140  1.00  0.00     0.238 C 
ENDROOT
BRANCH   3   4
HETATM    4  S1  LIG X 999      44.247 130.688  22.091  1.00  0.00     0.186 S 
HETATM    5  O1  LIG X 999      43.037 130.996  21.251  1.00  0.00    -0.222 OA
HETATM    6  O2  LIG X 999      44.187 131.548  23.323  1.00  0.00    -0.222 OA
BRANCH   4   7
HETATM    7  C4  LIG X 999      44.249 128.970  22.548  1.00  0.00     0.073 A 
HETATM    8  C5  LIG X 999      45.379 128.205  22.219  1.00  0.00     0.058 A 
HETATM    9  C6  LIG X 999      45.463 126.852  22.551  1.00  0.00     0.095 A 
HETATM   10  C7  LIG X 999      44.400 126.239  23.228  1.00  0.00     0.046 A 
HETATM   11  C8  LIG X 999      43.261 126.977  23.577  1.00  0.00    -0.022 A 
HETATM   12  C9  LIG X 999      42.209 126.349  24.264  1.00  0.00     0.012 A 
HETATM   13  C13 LIG X 999      43.172 128.356  23.243  1.00  0.00    -0.004 A 
HETATM   14  C10 LIG X 999      41.073 127.072  24.625  1.00  0.00     0.001 A 
HETATM   15  C11 LIG X 999      40.976 128.426  24.307  1.00  0.00     0.001 A 
HETATM   16  C12 LIG X 999      42.013 129.065  23.624  1.00  0.00     0.014 A 
BRANCH   9  17
HETATM   17  N1  LIG X 999      46.644 126.124  22.186  1.00  0.00    -0.073 NA
HETATM   18  N2  LIG X 999      46.636 124.908  21.989  1.00  0.00    -0.162 NA
HETATM   19  N3  LIG X 999      46.630 123.694  21.790  1.00  0.00     0.068 N 
ENDBRANCH   9  17
ENDBRANCH   4   7
ENDBRANCH   3   4
TORSDOF 3
