REMARK VINA RESULT:      -4.7      6.155      7.809
REMARK  1 active torsions:
REMARK  status: ('A' for Active; 'I' for Inactive)
REMARK    1  A    between atoms: C7_7  and  N1_8 
ROOT
HETATM    1  N1  LIG X 999      43.196 131.665  19.620  1.00  0.00    -0.110 NA
HETATM    2  N2  LIG X 999      43.793 131.700  18.543  1.00  0.00    -0.167 NA
HETATM    3  N3  LIG X 999      44.390 131.733  17.468  1.00  0.00     0.068 N 
ENDROOT
BRANCH   1   4
HETATM    4  C7  LIG X 999      43.844 132.086  20.861  1.00  0.00     0.153 C 
HETATM    5  C6  LIG X 999      45.313 131.631  20.847  1.00  0.00     0.031 C 
HETATM    6  C5  LIG X 999      45.432 130.104  20.916  1.00  0.00     0.003 C 
HETATM    7  C4  LIG X 999      44.742 129.559  22.169  1.00  0.00     0.009 C 
HETATM    8  C3  LIG X 999      43.260 129.979  22.227  1.00  0.00     0.018 C 
HETATM    9  C2  LIG X 999      42.655 129.503  23.530  1.00  0.00    -0.021 C 
HETATM   10  C8  LIG X 999      43.090 131.520  22.093  1.00  0.00     0.043 C 
HETATM   11  C1  LIG X 999      42.700 130.271  24.624  1.00  0.00    -0.004 C 
HETATM   12  C10 LIG X 999      43.247 131.641  24.558  1.00  0.00    -0.004 C 
HETATM   13  C9  LIG X 999      43.494 132.216  23.376  1.00  0.00    -0.019 C 
ENDBRANCH   1   4
TORSDOF 1
