REMARK VINA RESULT:      -8.4      1.460      7.600
REMARK  3 active torsions:
REMARK  status: ('A' for Active; 'I' for Inactive)
REMARK    1  A    between atoms: N2_3  and  N3_4 
REMARK    2  A    between atoms: C1_5  and  C2_6 
REMARK    3  A    between atoms: C7_12  and  N5_13 
ROOT
HETATM    1  N5  LIG X 999      42.360 131.999  22.265  1.00  0.00    -0.073 NA
HETATM    2  N6  LIG X 999      42.572 131.718  23.446  1.00  0.00    -0.162 NA
HETATM    3  N7  LIG X 999      42.782 131.439  24.625  1.00  0.00     0.068 N 
ENDROOT
BRANCH   1   4
HETATM    4  C7  LIG X 999      43.284 131.665  21.219  1.00  0.00     0.094 A 
HETATM    5  C6  LIG X 999      43.002 131.940  19.868  1.00  0.00     0.046 A 
HETATM    6  C5  LIG X 999      43.925 131.600  18.868  1.00  0.00    -0.021 A 
HETATM    7  C4  LIG X 999      43.645 131.876  17.510  1.00  0.00     0.046 A 
HETATM    8  C10 LIG X 999      45.159 130.973  19.230  1.00  0.00    -0.024 A 
HETATM    9  C3  LIG X 999      44.600 131.515  16.564  1.00  0.00     0.086 A 
HETATM   10  N4  LIG X 999      44.536 131.683  15.231  1.00  0.00    -0.228 NA
HETATM   11  C12 LIG X 999      45.772 130.918  16.912  1.00  0.00     0.063 A 
HETATM   12  C2  LIG X 999      45.718 131.162  14.803  1.00  0.00     0.148 A 
HETATM   13  N8  LIG X 999      46.494 130.686  15.810  1.00  0.00    -0.338 N 
HETATM   14  H8  LIG X 999      47.436 130.242  15.742  1.00  0.00     0.167 HD
HETATM   15  C11 LIG X 999      46.097 130.626  18.234  1.00  0.00     0.044 A 
HETATM   16  C9  LIG X 999      45.425 130.705  20.579  1.00  0.00     0.014 A 
HETATM   17  C8  LIG X 999      44.494 131.049  21.563  1.00  0.00     0.035 A 
BRANCH  12  18
HETATM   18  C1  LIG X 999      46.142 131.105  13.387  1.00  0.00     0.193 C 
HETATM   19  N3  LIG X 999      47.258 130.576  12.985  1.00  0.00    -0.140 NA
BRANCH  19  20
HETATM   20  N2  LIG X 999      48.192 129.995  13.852  1.00  0.00    -0.051 NA
HETATM   21  N1  LIG X 999      48.097 128.767  14.158  1.00  0.00    -0.184 NA
HETATM   22  H1  LIG X 999      48.793 128.336  14.805  1.00  0.00     0.214 HD
ENDBRANCH  19  20
ENDBRANCH  12  18
ENDBRANCH   1   4
TORSDOF 3
