REMARK VINA RESULT:      -6.5      3.170      6.667
REMARK  4 active torsions:
REMARK  status: ('A' for Active; 'I' for Inactive)
REMARK    1  A    between atoms: C1_1  and  C2_6 
REMARK    2  A    between atoms: N1_2  and  N2_3 
REMARK    3  A    between atoms: C2_6  and  C3_8 
REMARK    4  A    between atoms: C11_16  and  N4_17 
ROOT
HETATM    1  N4  LIG X 999      43.146 131.873  16.983  1.00  0.00    -0.105 NA
HETATM    2  N5  LIG X 999      42.319 132.036  17.882  1.00  0.00    -0.167 NA
HETATM    3  N6  LIG X 999      41.494 132.200  18.778  1.00  0.00     0.068 N 
ENDROOT
BRANCH   1   4
HETATM    4  C11 LIG X 999      44.550 132.227  17.171  1.00  0.00     0.179 C 
HETATM    5  C10 LIG X 999      45.395 131.384  16.240  1.00  0.00    -0.024 A 
HETATM    6  C5  LIG X 999      46.104 130.246  16.700  1.00  0.00    -0.049 A 
HETATM    7  C9  LIG X 999      45.398 131.688  14.868  1.00  0.00     0.010 A 
HETATM    8  C4  LIG X 999      46.203 129.912  18.170  1.00  0.00     0.051 C 
HETATM    9  C6  LIG X 999      46.829 129.468  15.783  1.00  0.00     0.007 A 
HETATM   10  C3  LIG X 999      45.084 130.561  19.001  1.00  0.00     0.068 C 
HETATM   11  C12 LIG X 999      44.963 132.051  18.644  1.00  0.00     0.048 C 
HETATM   12  C7  LIG X 999      46.827 129.788  14.424  1.00  0.00     0.001 A 
HETATM   13  C8  LIG X 999      46.113 130.896  13.967  1.00  0.00     0.001 A 
BRANCH  10  14
HETATM   14  C2  LIG X 999      45.354 130.379  20.474  1.00  0.00     0.172 C 
HETATM   15  O1  LIG X 999      46.185 129.511  20.859  1.00  0.00    -0.291 OA
BRANCH  14  16
HETATM   16  C1  LIG X 999      44.630 131.185  21.470  1.00  0.00     0.190 C 
HETATM   17  N1  LIG X 999      43.345 131.078  21.590  1.00  0.00    -0.165 NA
BRANCH  17  18
HETATM   18  N2  LIG X 999      42.625 131.832  22.528  1.00  0.00    -0.177 N 
HETATM   19  H2  LIG X 999      41.790 132.393  22.241  1.00  0.00     0.214 HD
HETATM   20  N3  LIG X 999      42.989 131.837  23.743  1.00  0.00    -0.031 N 
ENDBRANCH  17  18
ENDBRANCH  14  16
ENDBRANCH  10  14
ENDBRANCH   1   4
TORSDOF 4
