REMARK VINA RESULT:      -6.5      1.503      1.956
REMARK  5 active torsions:
REMARK  status: ('A' for Active; 'I' for Inactive)
REMARK    1  A    between atoms: C6_6  and  C7_7 
REMARK       I    between atoms: C7_7  and  N1_9 
REMARK    2  A    between atoms: N1_9  and  C8_11 
REMARK    3  A    between atoms: C8_11  and  C9_12 
REMARK    4  A    between atoms: C9_12  and  N2_13 
REMARK    5  A    between atoms: C13_19  and  N5_20 
ROOT
HETATM    1  N2  LIG X 999      41.674 127.386  23.572  1.00  0.00    -0.114 NA
HETATM    2  N3  LIG X 999      42.691 126.729  23.796  1.00  0.00    -0.168 NA
HETATM    3  N4  LIG X 999      43.708 126.073  24.018  1.00  0.00     0.068 N 
ENDROOT
BRANCH   1   4
HETATM    4  C9  LIG X 999      41.136 128.302  24.570  1.00  0.00     0.208 C 
BRANCH   4   5
HETATM    5  C8  LIG X 999      41.761 129.685  24.389  1.00  0.00     0.147 C 
BRANCH   5   6
HETATM    6  N1  LIG X 999      42.584 129.735  23.181  1.00  0.00    -0.355 N 
HETATM    7  C7  LIG X 999      43.055 130.985  22.653  1.00  0.00     0.251 C 
HETATM    8  O1  LIG X 999      42.887 132.044  23.320  1.00  0.00    -0.268 OA
HETATM    9  H4  LIG X 999      42.871 128.842  22.720  1.00  0.00     0.162 HD
BRANCH   7  10
HETATM   10  C6  LIG X 999      43.753 131.054  21.347  1.00  0.00     0.032 A 
HETATM   11  C1  LIG X 999      45.112 130.717  21.232  1.00  0.00     0.017 A 
HETATM   12  C2  LIG X 999      45.757 130.786  19.997  1.00  0.00     0.011 A 
HETATM   13  C3  LIG X 999      45.063 131.191  18.847  1.00  0.00    -0.024 A 
HETATM   14  C4  LIG X 999      43.685 131.499  18.944  1.00  0.00    -0.049 A 
HETATM   15  C13 LIG X 999      45.787 131.185  17.517  1.00  0.00     0.179 C 
HETATM   16  C5  LIG X 999      43.049 131.439  20.193  1.00  0.00     0.024 A 
HETATM   17  C10 LIG X 999      42.901 132.007  17.755  1.00  0.00     0.039 C 
HETATM   18  C11 LIG X 999      43.568 131.678  16.418  1.00  0.00     0.007 C 
HETATM   19  C12 LIG X 999      45.054 132.031  16.461  1.00  0.00     0.035 C 
BRANCH  15  20
HETATM   20  N5  LIG X 999      45.926 129.803  17.065  1.00  0.00    -0.105 NA
HETATM   21  N6  LIG X 999      46.337 129.540  15.934  1.00  0.00    -0.167 NA
HETATM   22  N7  LIG X 999      46.748 129.277  14.805  1.00  0.00     0.068 N 
ENDBRANCH  15  20
ENDBRANCH   7  10
ENDBRANCH   5   6
ENDBRANCH   4   5
ENDBRANCH   1   4
TORSDOF 5
