REMARK VINA RESULT:      -7.1      1.727      6.569
REMARK  3 active torsions:
REMARK  status: ('A' for Active; 'I' for Inactive)
REMARK    1  A    between atoms: C3_3  and  N1_4 
REMARK    2  A    between atoms: N1_4  and  C6_7 
REMARK    3  A    between atoms: C6_7  and  C7_8 
ROOT
HETATM    1  C1  LIG X 999      42.246 132.208  22.500  1.00  0.00     0.013 C 
HETATM    2  C2  LIG X 999      43.153 131.573  22.023  1.00  0.00    -0.089 C 
HETATM    3  C3  LIG X 999      44.262 130.792  21.440  1.00  0.00     0.329 C 
ENDROOT
BRANCH   3   4
HETATM    4  N1  LIG X 999      44.678 131.269  20.086  1.00  0.00    -0.061 N 
HETATM    5  C4  LIG X 999      45.637 132.390  20.259  1.00  0.00     0.273 C 
HETATM    6  C5  LIG X 999      43.496 131.803  19.359  1.00  0.00     0.273 C 
BRANCH   4   7
HETATM    7  C6  LIG X 999      45.292 130.183  19.255  1.00  0.00     0.276 C 
BRANCH   7   8
HETATM    8  C7  LIG X 999      45.650 130.597  17.839  1.00  0.00    -0.032 A 
HETATM    9  C8  LIG X 999      45.191 131.820  17.320  1.00  0.00     0.010 A 
HETATM   10  C9  LIG X 999      45.512 132.207  16.017  1.00  0.00     0.013 A 
HETATM   11  C10 LIG X 999      46.291 131.371  15.205  1.00  0.00    -0.026 A 
HETATM   12  C11 LIG X 999      46.621 131.751  13.895  1.00  0.00     0.012 A 
HETATM   13  C15 LIG X 999      46.743 130.128  15.710  1.00  0.00    -0.025 A 
HETATM   14  C12 LIG X 999      47.394 130.904  13.094  1.00  0.00     0.001 A 
HETATM   15  C13 LIG X 999      47.840 129.677  13.592  1.00  0.00     0.001 A 
HETATM   16  C14 LIG X 999      47.516 129.288  14.894  1.00  0.00     0.012 A 
HETATM   17  C16 LIG X 999      46.413 129.748  17.019  1.00  0.00     0.021 A 
ENDBRANCH   7   8
ENDBRANCH   4   7
ENDBRANCH   3   4
TORSDOF 3
