REMARK VINA RESULT:      -4.7      2.769      5.444
REMARK  5 active torsions:
REMARK  status: ('A' for Active; 'I' for Inactive)
REMARK    1  A    between atoms: C3_3  and  O1_4 
REMARK    2  A    between atoms: O1_4  and  C4_5 
REMARK    3  A    between atoms: C5_6  and  C6_7 
REMARK    4  A    between atoms: C12_14  and  N1_15 
REMARK    5  A    between atoms: C15_21  and  N3_22 
ROOT
HETATM    1  C1  LIG X 999      36.993 127.609  24.506  1.00  0.00     0.014 C 
HETATM    2  C2  LIG X 999      37.638 126.633  24.219  1.00  0.00    -0.091 C 
HETATM    3  C3  LIG X 999      38.421 125.446  23.871  1.00  0.00     0.268 C 
ENDROOT
BRANCH   3   4
HETATM    4  O1  LIG X 999      39.628 125.446  24.625  1.00  0.00    -0.339 OA
BRANCH   4   5
HETATM    5  C4  LIG X 999      40.869 125.912  24.158  1.00  0.00     0.085 A 
HETATM    6  C5  LIG X 999      41.854 124.960  23.739  1.00  0.00     0.050 A 
HETATM    7  C7  LIG X 999      43.082 125.466  23.280  1.00  0.00     0.044 A 
HETATM    8  C8  LIG X 999      43.303 126.801  23.241  1.00  0.00     0.021 A 
HETATM    9  C15 LIG X 999      44.345 124.893  22.766  1.00  0.00     0.198 A 
HETATM   10  C9  LIG X 999      44.547 127.047  22.766  1.00  0.00     0.071 A 
HETATM   11  C13 LIG X 999      42.402 127.773  23.629  1.00  0.00     0.006 A 
HETATM   12  C10 LIG X 999      45.007 128.354  22.635  1.00  0.00     0.035 A 
HETATM   13  N2  LIG X 999      45.213 125.823  22.461  1.00  0.00    -0.225 NA
HETATM   14  C11 LIG X 999      44.135 129.400  23.013  1.00  0.00     0.032 A 
HETATM   15  C12 LIG X 999      42.828 129.127  23.513  1.00  0.00     0.037 A 
HETATM   16  C14 LIG X 999      41.153 127.314  24.100  1.00  0.00     0.052 A 
BRANCH   6  17
HETATM   17  C6  LIG X 999      41.610 123.501  23.780  1.00  0.00     0.273 C 
HETATM   18  O2  LIG X 999      41.034 122.901  22.834  1.00  0.00    -0.301 OA
ENDBRANCH   6  17
BRANCH  15  19
HETATM   19  N1  LIG X 999      41.984 130.226  23.882  1.00  0.00    -0.398 N 
HETATM   20  H7  LIG X 999      42.205 131.191  23.555  1.00  0.00     0.156 HD
HETATM   21  H8  LIG X 999      41.137 130.109  24.478  1.00  0.00     0.156 HD
ENDBRANCH  15  19
BRANCH   9  22
HETATM   22  N3  LIG X 999      44.613 123.498  22.610  1.00  0.00    -0.051 NA
HETATM   23  N4  LIG X 999      45.667 123.103  22.111  1.00  0.00    -0.160 NA
HETATM   24  N5  LIG X 999      46.720 122.707  21.613  1.00  0.00     0.068 N 
ENDBRANCH   9  22
ENDBRANCH   4   5
ENDBRANCH   3   4
TORSDOF 5
