REMARK VINA RESULT:      -1.9      3.980      5.302
REMARK  4 active torsions:
REMARK  status: ('A' for Active; 'I' for Inactive)
REMARK    1  A    between atoms: C3_3  and  C4_4 
REMARK    2  A    between atoms: C5_7  and  N3_8 
REMARK    3  A    between atoms: C8_14  and  C9_15 
REMARK    4  A    between atoms: C10_16  and  C11_17 
ROOT
HETATM    1  N3  LIG X 999      40.747 122.408  22.944  1.00  0.00    -0.023 NA
HETATM    2  N4  LIG X 999      39.591 122.679  23.267  1.00  0.00    -0.158 NA
HETATM    3  N5  LIG X 999      38.435 122.951  23.588  1.00  0.00     0.068 N 
ENDROOT
BRANCH   1   4
HETATM    4  C5  LIG X 999      41.829 123.254  23.326  1.00  0.00     0.326 A 
HETATM    5  N2  LIG X 999      42.837 122.861  24.123  1.00  0.00    -0.099 NA
HETATM    6  N1  LIG X 999      43.633 123.912  24.244  1.00  0.00    -0.124 NA
HETATM    7  C4  LIG X 999      43.075 124.904  23.519  1.00  0.00     0.184 A 
HETATM    8  O1  LIG X 999      41.963 124.502  22.947  1.00  0.00    -0.255 OA
BRANCH   7   9
HETATM    9  C3  LIG X 999      43.679 126.286  23.366  1.00  0.00     0.054 C 
HETATM   10  C2  LIG X 999      44.519 126.286  22.097  1.00  0.00    -0.008 C 
HETATM   11  C1  LIG X 999      45.783 125.843  22.121  1.00  0.00    -0.003 C 
HETATM   12  C15 LIG X 999      46.424 125.464  23.396  1.00  0.00    -0.004 C 
HETATM   13  C14 LIG X 999      45.847 125.777  24.563  1.00  0.00    -0.021 C 
HETATM   14  C13 LIG X 999      44.594 126.624  24.595  1.00  0.00     0.030 C 
HETATM   15  C12 LIG X 999      45.008 128.113  24.625  1.00  0.00     0.027 C 
HETATM   16  C8  LIG X 999      43.788 129.040  24.552  1.00  0.00     0.066 C 
HETATM   17  C7  LIG X 999      42.981 128.755  23.279  1.00  0.00     0.019 C 
HETATM   18  C6  LIG X 999      42.510 127.298  23.257  1.00  0.00     0.024 C 
BRANCH  16  19
HETATM   19  C9  LIG X 999      44.222 130.444  24.567  1.00  0.00    -0.090 C 
HETATM   20  C10 LIG X 999      44.577 131.597  24.581  1.00  0.00     0.005 C 
BRANCH  20  21
HETATM   21  C11 LIG X 999      45.001 132.968  24.597  1.00  0.00     0.258 C 
HETATM   22  O2  LIG X 999      44.145 133.890  24.625  1.00  0.00    -0.637 OA
HETATM   23  O3  LIG X 999      46.354 133.276  24.583  1.00  0.00    -0.637 OA
ENDBRANCH  20  21
ENDBRANCH  16  19
ENDBRANCH   7   9
ENDBRANCH   1   4
TORSDOF 4
