REMARK VINA RESULT:      -7.0      1.683      6.250
REMARK  1 active torsions:
REMARK  status: ('A' for Active; 'I' for Inactive)
REMARK    1  A    between atoms: C11_13  and  N2_14 
ROOT
HETATM    1  N2  LIG X 999      41.879 132.843  20.523  1.00  0.00    -0.053 NA
HETATM    2  N3  LIG X 999      41.963 132.532  21.711  1.00  0.00    -0.160 NA
HETATM    3  N4  LIG X 999      42.038 132.231  22.901  1.00  0.00     0.068 N 
ENDROOT
BRANCH   1   4
HETATM    4  C11 LIG X 999      42.742 132.299  19.517  1.00  0.00     0.175 A 
HETATM    5  C10 LIG X 999      43.971 131.655  19.706  1.00  0.00     0.026 A 
HETATM    6  C5  LIG X 999      44.385 131.333  18.454  1.00  0.00     0.017 A 
HETATM    7  C9  LIG X 999      44.761 131.319  20.810  1.00  0.00     0.016 A 
HETATM    8  C4  LIG X 999      43.469 131.754  17.551  1.00  0.00     0.046 A 
HETATM    9  C6  LIG X 999      45.560 130.680  18.156  1.00  0.00     0.005 A 
HETATM   10  C3  LIG X 999      43.673 131.530  16.109  1.00  0.00     0.033 A 
HETATM   11  N5  LIG X 999      42.443 132.355  18.190  1.00  0.00    -0.337 N 
HETATM   12  C2  LIG X 999      44.799 130.894  15.711  1.00  0.00     0.034 A 
HETATM   13  C1  LIG X 999      45.819 130.427  16.714  1.00  0.00     0.059 A 
HETATM   14  N1  LIG X 999      46.897 129.818  16.333  1.00  0.00    -0.300 NA
HETATM   15  H1  LIG X 999      47.096 129.631  15.326  1.00  0.00     0.187 HD
HETATM   16  H7  LIG X 999      41.593 132.777  17.754  1.00  0.00     0.167 HD
HETATM   17  C7  LIG X 999      46.386 130.322  19.240  1.00  0.00     0.015 A 
HETATM   18  C8  LIG X 999      45.984 130.643  20.565  1.00  0.00     0.002 A 
ENDBRANCH   1   4
TORSDOF 1
