REMARK VINA RESULT:      -7.7      2.511      6.394
REMARK  2 active torsions:
REMARK  status: ('A' for Active; 'I' for Inactive)
REMARK    1  A    between atoms: O1_2  and  C2_3 
REMARK    2  A    between atoms: C11_12  and  N1_13 
ROOT
HETATM    1  C2  LIG X 999      44.080 131.087  22.638  1.00  0.00     0.095 A 
HETATM    2  C3  LIG X 999      44.999 130.677  21.651  1.00  0.00     0.051 A 
HETATM    3  C4  LIG X 999      44.747 130.925  20.296  1.00  0.00    -0.023 A 
HETATM    4  C5  LIG X 999      45.665 130.513  19.308  1.00  0.00     0.021 A 
HETATM    5  C6  LIG X 999      45.375 130.785  17.970  1.00  0.00    -0.024 A 
HETATM    6  C7  LIG X 999      44.231 131.427  17.606  1.00  0.00    -0.024 A 
HETATM    7  C8  LIG X 999      43.294 131.845  18.551  1.00  0.00     0.021 A 
HETATM    8  C9  LIG X 999      43.553 131.596  19.913  1.00  0.00    -0.023 A 
HETATM    9  C10 LIG X 999      42.643 132.001  20.897  1.00  0.00     0.044 A 
HETATM   10  C11 LIG X 999      42.899 131.752  22.253  1.00  0.00     0.060 A 
HETATM   11  C12 LIG X 999      44.159 131.561  16.135  1.00  0.00     0.276 C 
HETATM   12  N2  LIG X 999      45.475 131.068  15.619  1.00  0.00    -0.067 N 
HETATM   13  C13 LIG X 999      46.277 132.206  15.107  1.00  0.00     0.272 C 
HETATM   14  C14 LIG X 999      45.276 130.091  14.525  1.00  0.00     0.272 C 
HETATM   15  C15 LIG X 999      46.174 130.429  16.779  1.00  0.00     0.276 C 
ENDROOT
BRANCH  10  16
HETATM   16  N1  LIG X 999      41.950 132.178  23.237  1.00  0.00    -0.397 N 
HETATM   17  H8  LIG X 999      41.374 131.481  23.760  1.00  0.00     0.156 HD
HETATM   18  H9  LIG X 999      41.809 133.189  23.458  1.00  0.00     0.156 HD
ENDBRANCH  10  16
BRANCH   1  19
HETATM   19  O1  LIG X 999      44.309 130.851  24.004  1.00  0.00    -0.354 OA
HETATM   20  C1  LIG X 999      44.256 129.571  24.625  1.00  0.00     0.210 C 
ENDBRANCH   1  19
TORSDOF 2
