REMARK VINA RESULT:      -6.4      1.253      2.515
REMARK  3 active torsions:
REMARK  status: ('A' for Active; 'I' for Inactive)
REMARK    1  A    between atoms: C3_3  and  O1_4 
REMARK    2  A    between atoms: O1_4  and  C4_5 
REMARK    3  A    between atoms: C5_7  and  C6_8 
ROOT
HETATM    1  C1  LIG X 999      47.627 129.370  14.039  1.00  0.00     0.014 C 
HETATM    2  C2  LIG X 999      46.578 129.277  14.625  1.00  0.00    -0.091 C 
HETATM    3  C3  LIG X 999      45.305 129.165  15.338  1.00  0.00     0.270 C 
ENDROOT
BRANCH   3   4
HETATM    4  O1  LIG X 999      44.768 130.465  15.543  1.00  0.00    -0.317 OA
BRANCH   4   5
HETATM    5  C4  LIG X 999      45.565 131.557  15.901  1.00  0.00     0.217 C 
HETATM    6  O2  LIG X 999      46.649 131.920  15.106  1.00  0.00    -0.164 OA
HETATM    7  C5  LIG X 999      45.313 132.250  17.016  1.00  0.00     0.079 C 
BRANCH   7   8
HETATM    8  C6  LIG X 999      44.177 131.950  17.922  1.00  0.00    -0.020 A 
HETATM    9  C7  LIG X 999      42.866 131.993  17.414  1.00  0.00     0.012 A 
HETATM   10  C8  LIG X 999      41.769 131.763  18.245  1.00  0.00     0.002 A 
HETATM   11  C9  LIG X 999      41.956 131.498  19.600  1.00  0.00     0.012 A 
HETATM   12  C10 LIG X 999      43.249 131.460  20.139  1.00  0.00    -0.025 A 
HETATM   13  C11 LIG X 999      43.430 131.194  21.506  1.00  0.00     0.012 A 
HETATM   14  C15 LIG X 999      44.377 131.686  19.303  1.00  0.00    -0.015 A 
HETATM   15  C12 LIG X 999      44.714 131.144  22.050  1.00  0.00     0.001 A 
HETATM   16  C13 LIG X 999      45.827 131.351  21.236  1.00  0.00     0.001 A 
HETATM   17  C14 LIG X 999      45.666 131.619  19.874  1.00  0.00     0.013 A 
ENDBRANCH   7   8
ENDBRANCH   4   5
ENDBRANCH   3   4
TORSDOF 3
