REMARK VINA RESULT:      -3.2      2.471      3.361
REMARK  5 active torsions:
REMARK  status: ('A' for Active; 'I' for Inactive)
REMARK    1  A    between atoms: C3_3  and  C4_4 
REMARK    2  A    between atoms: C4_4  and  S1_5 
REMARK    3  A    between atoms: S1_5  and  C5_6 
REMARK    4  A    between atoms: C6_7  and  N1_8 
REMARK    5  A    between atoms: C10_12  and  N2_13 
ROOT
HETATM    1  C1  LIG X 999      48.166 134.619  22.673  1.00  0.00     0.112 C 
HETATM    2  C2  LIG X 999      47.579 133.518  21.910  1.00  0.00    -0.110 C 
HETATM    3  C3  LIG X 999      47.103 132.609  21.277  1.00  0.00    -0.097 C 
ENDROOT
BRANCH   3   4
HETATM    4  C4  LIG X 999      46.532 131.506  20.501  1.00  0.00     0.173 C 
BRANCH   4   5
HETATM    5  S1  LIG X 999      45.063 130.825  21.344  1.00  0.00    -0.115 SA
BRANCH   5   6
HETATM    6  C5  LIG X 999      43.873 131.459  20.132  1.00  0.00     0.038 A 
HETATM    7  C6  LIG X 999      42.673 132.054  20.581  1.00  0.00     0.043 A 
HETATM    8  C7  LIG X 999      41.745 132.528  19.651  1.00  0.00     0.031 A 
HETATM    9  C8  LIG X 999      41.982 132.427  18.284  1.00  0.00     0.017 A 
HETATM   10  C9  LIG X 999      43.165 131.843  17.797  1.00  0.00     0.002 A 
HETATM   11  C10 LIG X 999      43.423 131.732  16.396  1.00  0.00     0.045 A 
HETATM   12  C14 LIG X 999      44.138 131.375  18.739  1.00  0.00    -0.004 A 
HETATM   13  C11 LIG X 999      44.662 131.215  15.992  1.00  0.00     0.003 A 
HETATM   14  C12 LIG X 999      45.584 130.780  16.890  1.00  0.00    -0.021 A 
HETATM   15  C18 LIG X 999      45.158 130.986  14.611  1.00  0.00     0.278 C 
HETATM   16  C13 LIG X 999      45.353 130.833  18.260  1.00  0.00     0.023 A 
HETATM   17  C15 LIG X 999      46.769 130.222  16.207  1.00  0.00     0.276 C 
HETATM   18  N3  LIG X 999      46.572 130.514  14.754  1.00  0.00    -0.067 N 
HETATM   19  C16 LIG X 999      47.509 131.577  14.319  1.00  0.00     0.272 C 
HETATM   20  C17 LIG X 999      46.806 129.301  13.938  1.00  0.00     0.272 C 
BRANCH   7  21
HETATM   21  N1  LIG X 999      42.382 132.207  21.978  1.00  0.00    -0.398 N 
HETATM   22  H6  LIG X 999      41.761 131.551  22.497  1.00  0.00     0.156 HD
HETATM   23  H7  LIG X 999      42.810 132.987  22.525  1.00  0.00     0.156 HD
ENDBRANCH   7  21
BRANCH  11  24
HETATM   24  N2  LIG X 999      42.455 132.100  15.400  1.00  0.00    -0.398 N 
HETATM   25  H10 LIG X 999      41.561 132.566  15.669  1.00  0.00     0.156 HD
HETATM   26  H11 LIG X 999      42.648 132.041  14.378  1.00  0.00     0.156 HD
ENDBRANCH  11  24
ENDBRANCH   5   6
ENDBRANCH   4   5
ENDBRANCH   3   4
TORSDOF 5
