REMARK VINA RESULT:      -6.2      0.000      0.000
REMARK  6 active torsions:
REMARK  status: ('A' for Active; 'I' for Inactive)
REMARK    1  A    between atoms: C8_8  and  O1_9 
REMARK    2  A    between atoms: O1_9  and  C9_10 
REMARK    3  A    between atoms: C9_10  and  C10_11 
REMARK    4  A    between atoms: C10_11  and  C11_12 
REMARK    5  A    between atoms: C11_12  and  N1_13 
REMARK    6  A    between atoms: C13_18  and  N4_19 
ROOT
HETATM    1  N1  LIG X 999      46.288 129.829  14.786  1.00  0.00    -0.116 NA
HETATM    2  N2  LIG X 999      47.314 129.676  14.124  1.00  0.00    -0.168 NA
HETATM    3  N3  LIG X 999      48.339 129.522  13.462  1.00  0.00     0.068 N 
ENDROOT
BRANCH   1   4
HETATM    4  C11 LIG X 999      45.693 131.150  14.957  1.00  0.00     0.191 C 
BRANCH   4   5
HETATM    5  C10 LIG X 999      45.626 131.520  16.442  1.00  0.00     0.051 C 
BRANCH   5   6
HETATM    6  C9  LIG X 999      45.741 130.298  17.356  1.00  0.00     0.170 C 
BRANCH   6   7
HETATM    7  O1  LIG X 999      46.190 130.701  18.634  1.00  0.00    -0.384 OA
BRANCH   7   8
HETATM    8  C8  LIG X 999      45.140 130.639  19.584  1.00  0.00     0.146 C 
HETATM    9  C7  LIG X 999      45.546 129.661  20.698  1.00  0.00     0.072 C 
HETATM   10  C5  LIG X 999      44.685 129.763  21.935  1.00  0.00    -0.047 A 
HETATM   11  C4  LIG X 999      43.896 130.910  22.205  1.00  0.00    -0.023 A 
HETATM   12  C6  LIG X 999      44.774 128.745  22.898  1.00  0.00     0.008 A 
HETATM   13  C3  LIG X 999      43.204 130.995  23.425  1.00  0.00     0.010 A 
HETATM   14  C13 LIG X 999      43.714 132.008  21.175  1.00  0.00     0.199 C 
HETATM   15  C2  LIG X 999      43.292 129.969  24.366  1.00  0.00     0.001 A 
HETATM   16  C1  LIG X 999      44.074 128.844  24.102  1.00  0.00     0.001 A 
HETATM   17  C12 LIG X 999      44.871 132.045  20.161  1.00  0.00     0.143 C 
HETATM   18 CL1  LIG X 999      46.343 132.742  20.911  1.00  0.00    -0.120 Cl
BRANCH  14  19
HETATM   19  N4  LIG X 999      42.455 131.813  20.457  1.00  0.00    -0.104 NA
HETATM   20  N5  LIG X 999      42.391 131.925  19.232  1.00  0.00    -0.167 NA
HETATM   21  N6  LIG X 999      42.327 132.037  18.009  1.00  0.00     0.068 N 
ENDBRANCH  14  19
ENDBRANCH   7   8
ENDBRANCH   6   7
ENDBRANCH   5   6
ENDBRANCH   4   5
ENDBRANCH   1   4
TORSDOF 6
