MODEL 1
REMARK VINA RESULT:      -8.5      0.000      0.000
REMARK  1 active torsions:
REMARK  status: ('A' for Active; 'I' for Inactive)
REMARK    1  A    between atoms: C2_5  and  C3_6 
ROOT
HETATM    1  C3  LIG X 999      45.338 130.819  18.443  1.00  0.00     0.028 A 
HETATM    2  C4  LIG X 999      46.199 130.443  19.486  1.00  0.00     0.017 A 
HETATM    3  C5  LIG X 999      45.880 130.723  20.814  1.00  0.00     0.002 A 
HETATM    4  C6  LIG X 999      44.690 131.377  21.127  1.00  0.00     0.012 A 
HETATM    5  C7  LIG X 999      43.792 131.734  20.111  1.00  0.00    -0.025 A 
HETATM    6  C8  LIG X 999      42.580 132.364  20.439  1.00  0.00     0.012 A 
HETATM    7  C9  LIG X 999      41.660 132.684  19.440  1.00  0.00     0.001 A 
HETATM    8  C10 LIG X 999      41.934 132.367  18.110  1.00  0.00     0.001 A 
HETATM    9  C11 LIG X 999      43.137 131.745  17.766  1.00  0.00     0.013 A 
HETATM   10  C12 LIG X 999      44.099 131.442  18.754  1.00  0.00    -0.011 A 
ENDROOT
BRANCH   1  11
HETATM   11  C2  LIG X 999      45.788 130.559  17.060  1.00  0.00     0.177 A 
HETATM   12  O1  LIG X 999      46.086 131.503  16.190  1.00  0.00    -0.258 OA
HETATM   13  C1  LIG X 999      46.388 130.857  15.087  1.00  0.00     0.260 A 
HETATM   14  N1  LIG X 999      46.744 131.427  13.982  1.00  0.00    -0.261 NA
HETATM   15  N3  LIG X 999      46.277 129.529  15.243  1.00  0.00    -0.262 N 
HETATM   16  H1  LIG X 999      46.812 132.467  13.914  1.00  0.00     0.190 HD
HETATM   17  N2  LIG X 999      45.891 129.338  16.492  1.00  0.00    -0.276 N 
HETATM   18  H10 LIG X 999      46.439 128.778  14.535  1.00  0.00     0.190 HD
HETATM   19  H9  LIG X 999      45.675 128.410  16.919  1.00  0.00     0.189 HD
ENDBRANCH   1  11
TORSDOF 1
ENDMDL
MODEL 2
REMARK VINA RESULT:      -8.4      0.829      2.686
REMARK  1 active torsions:
REMARK  status: ('A' for Active; 'I' for Inactive)
REMARK    1  A    between atoms: C2_5  and  C3_6 
ROOT
HETATM    1  C3  LIG X 999      44.562 131.335  17.374  1.00  0.00     0.028 A 
HETATM    2  C4  LIG X 999      43.346 131.741  16.803  1.00  0.00     0.017 A 
HETATM    3  C5  LIG X 999      42.256 132.076  17.604  1.00  0.00     0.002 A 
HETATM    4  C6  LIG X 999      42.362 132.018  18.993  1.00  0.00     0.012 A 
HETATM    5  C7  LIG X 999      43.573 131.650  19.595  1.00  0.00    -0.025 A 
HETATM    6  C8  LIG X 999      43.679 131.626  20.995  1.00  0.00     0.012 A 
HETATM    7  C9  LIG X 999      44.892 131.304  21.603  1.00  0.00     0.001 A 
HETATM    8  C10 LIG X 999      46.012 131.017  20.821  1.00  0.00     0.001 A 
HETATM    9  C11 LIG X 999      45.923 131.031  19.428  1.00  0.00     0.013 A 
HETATM   10  C12 LIG X 999      44.697 131.320  18.789  1.00  0.00    -0.011 A 
ENDROOT
BRANCH   1  11
HETATM   11  C2  LIG X 999      45.642 130.919  16.454  1.00  0.00     0.177 A 
HETATM   12  O1  LIG X 999      45.899 131.506  15.303  1.00  0.00    -0.258 OA
HETATM   13  C1  LIG X 999      46.887 130.810  14.787  1.00  0.00     0.260 A 
HETATM   14  N1  LIG X 999      47.442 131.066  13.648  1.00  0.00    -0.261 NA
HETATM   15  N3  LIG X 999      47.249 129.794  15.586  1.00  0.00    -0.262 N 
HETATM   16  H1  LIG X 999      47.119 131.869  13.063  1.00  0.00     0.190 HD
HETATM   17  N2  LIG X 999      46.457 129.859  16.642  1.00  0.00    -0.276 N 
HETATM   18  H10 LIG X 999      47.989 129.075  15.423  1.00  0.00     0.190 HD
HETATM   19  H9  LIG X 999      46.457 129.179  17.434  1.00  0.00     0.189 HD
ENDBRANCH   1  11
TORSDOF 1
ENDMDL
MODEL 3
REMARK VINA RESULT:      -7.5      2.454      5.557
REMARK  1 active torsions:
REMARK  status: ('A' for Active; 'I' for Inactive)
REMARK    1  A    between atoms: C2_5  and  C3_6 
ROOT
HETATM    1  C3  LIG X 999      44.914 131.094  16.863  1.00  0.00     0.028 A 
HETATM    2  C4  LIG X 999      43.659 131.656  16.583  1.00  0.00     0.017 A 
HETATM    3  C5  LIG X 999      43.271 131.923  15.270  1.00  0.00     0.002 A 
HETATM    4  C6  LIG X 999      44.127 131.625  14.211  1.00  0.00     0.012 A 
HETATM    5  C7  LIG X 999      45.373 131.030  14.456  1.00  0.00    -0.025 A 
HETATM    6  C8  LIG X 999      46.215 130.704  13.380  1.00  0.00     0.012 A 
HETATM    7  C9  LIG X 999      47.437 130.072  13.610  1.00  0.00     0.001 A 
HETATM    8  C10 LIG X 999      47.823 129.749  14.910  1.00  0.00     0.001 A 
HETATM    9  C11 LIG X 999      47.001 130.070  15.992  1.00  0.00     0.013 A 
HETATM   10  C12 LIG X 999      45.774 130.741  15.789  1.00  0.00    -0.011 A 
ENDROOT
BRANCH   1  11
HETATM   11  C2  LIG X 999      45.281 130.920  18.284  1.00  0.00     0.177 A 
HETATM   12  O1  LIG X 999      44.987 131.783  19.235  1.00  0.00    -0.258 OA
HETATM   13  C1  LIG X 999      45.527 131.279  20.322  1.00  0.00     0.260 A 
HETATM   14  N1  LIG X 999      45.462 131.829  21.490  1.00  0.00    -0.261 NA
HETATM   15  N3  LIG X 999      46.160 130.123  20.071  1.00  0.00    -0.262 N 
HETATM   16  H1  LIG X 999      44.957 132.733  21.629  1.00  0.00     0.190 HD
HETATM   17  N2  LIG X 999      46.010 129.896  18.779  1.00  0.00    -0.276 N 
HETATM   18  H10 LIG X 999      46.687 129.516  20.739  1.00  0.00     0.190 HD
HETATM   19  H9  LIG X 999      46.424 129.091  18.259  1.00  0.00     0.189 HD
ENDBRANCH   1  11
TORSDOF 1
ENDMDL
MODEL 4
REMARK VINA RESULT:      -7.0      7.820      8.998
REMARK  1 active torsions:
REMARK  status: ('A' for Active; 'I' for Inactive)
REMARK    1  A    between atoms: C2_5  and  C3_6 
ROOT
HETATM    1  C3  LIG X 999      49.257 136.309  21.329  1.00  0.00     0.028 A 
HETATM    2  C4  LIG X 999      48.411 135.227  21.619  1.00  0.00     0.017 A 
HETATM    3  C5  LIG X 999      48.725 134.326  22.635  1.00  0.00     0.002 A 
HETATM    4  C6  LIG X 999      49.886 134.493  23.388  1.00  0.00     0.012 A 
HETATM    5  C7  LIG X 999      50.733 135.583  23.147  1.00  0.00    -0.025 A 
HETATM    6  C8  LIG X 999      51.884 135.761  23.932  1.00  0.00     0.012 A 
HETATM    7  C9  LIG X 999      52.711 136.866  23.729  1.00  0.00     0.001 A 
HETATM    8  C10 LIG X 999      52.390 137.809  22.752  1.00  0.00     0.001 A 
HETATM    9  C11 LIG X 999      51.252 137.645  21.959  1.00  0.00     0.013 A 
HETATM   10  C12 LIG X 999      50.418 136.517  22.122  1.00  0.00    -0.011 A 
ENDROOT
BRANCH   1  11
HETATM   11  C2  LIG X 999      48.896 137.170  20.183  1.00  0.00     0.177 A 
HETATM   12  O1  LIG X 999      49.602 137.259  19.075  1.00  0.00    -0.258 OA
HETATM   13  C1  LIG X 999      48.969 138.153  18.347  1.00  0.00     0.260 A 
HETATM   14  N1  LIG X 999      49.344 138.530  17.169  1.00  0.00    -0.261 NA
HETATM   15  N3  LIG X 999      47.888 138.632  18.981  1.00  0.00    -0.262 N 
HETATM   16  H1  LIG X 999      50.197 138.126  16.723  1.00  0.00     0.190 HD
HETATM   17  N2  LIG X 999      47.842 138.014  20.147  1.00  0.00    -0.276 N 
HETATM   18  H10 LIG X 999      47.213 139.358  18.650  1.00  0.00     0.190 HD
HETATM   19  H9  LIG X 999      47.137 138.195  20.895  1.00  0.00     0.189 HD
ENDBRANCH   1  11
TORSDOF 1
ENDMDL
MODEL 5
REMARK VINA RESULT:      -6.6      1.524      3.204
REMARK  1 active torsions:
REMARK  status: ('A' for Active; 'I' for Inactive)
REMARK    1  A    between atoms: C2_5  and  C3_6 
ROOT
HETATM    1  C3  LIG X 999      43.832 131.777  18.947  1.00  0.00     0.028 A 
HETATM    2  C4  LIG X 999      42.760 132.644  18.682  1.00  0.00     0.017 A 
HETATM    3  C5  LIG X 999      41.823 132.946  19.669  1.00  0.00     0.002 A 
HETATM    4  C6  LIG X 999      41.943 132.393  20.943  1.00  0.00     0.012 A 
HETATM    5  C7  LIG X 999      43.020 131.552  21.250  1.00  0.00    -0.025 A 
HETATM    6  C8  LIG X 999      43.150 131.025  22.545  1.00  0.00     0.012 A 
HETATM    7  C9  LIG X 999      44.242 130.222  22.873  1.00  0.00     0.001 A 
HETATM    8  C10 LIG X 999      45.221 129.949  21.917  1.00  0.00     0.001 A 
HETATM    9  C11 LIG X 999      45.105 130.460  20.622  1.00  0.00     0.013 A 
HETATM   10  C12 LIG X 999      43.991 131.247  20.256  1.00  0.00    -0.011 A 
ENDROOT
BRANCH   1  11
HETATM   11  C2  LIG X 999      44.734 131.444  17.825  1.00  0.00     0.177 A 
HETATM   12  O1  LIG X 999      45.475 130.356  17.770  1.00  0.00    -0.258 OA
HETATM   13  C1  LIG X 999      46.150 130.469  16.648  1.00  0.00     0.260 A 
HETATM   14  N1  LIG X 999      47.000 129.594  16.218  1.00  0.00    -0.261 NA
HETATM   15  N3  LIG X 999      45.855 131.609  16.004  1.00  0.00    -0.262 N 
HETATM   16  H1  LIG X 999      47.194 128.724  16.762  1.00  0.00     0.190 HD
HETATM   17  N2  LIG X 999      44.961 132.231  16.751  1.00  0.00    -0.276 N 
HETATM   18  H10 LIG X 999      46.250 131.964  15.104  1.00  0.00     0.190 HD
HETATM   19  H9  LIG X 999      44.557 133.171  16.545  1.00  0.00     0.189 HD
ENDBRANCH   1  11
TORSDOF 1
ENDMDL
MODEL 6
REMARK VINA RESULT:      -6.1      3.239      5.095
REMARK  1 active torsions:
REMARK  status: ('A' for Active; 'I' for Inactive)
REMARK    1  A    between atoms: C2_5  and  C3_6 
ROOT
HETATM    1  C3  LIG X 999      44.383 131.305  18.004  1.00  0.00     0.028 A 
HETATM    2  C4  LIG X 999      45.323 130.758  18.892  1.00  0.00     0.017 A 
HETATM    3  C5  LIG X 999      46.418 130.036  18.419  1.00  0.00     0.002 A 
HETATM    4  C6  LIG X 999      46.600 129.854  17.049  1.00  0.00     0.012 A 
HETATM    5  C7  LIG X 999      45.699 130.418  16.135  1.00  0.00    -0.025 A 
HETATM    6  C8  LIG X 999      45.909 130.256  14.756  1.00  0.00     0.012 A 
HETATM    7  C9  LIG X 999      45.042 130.850  13.839  1.00  0.00     0.001 A 
HETATM    8  C10 LIG X 999      43.969 131.620  14.287  1.00  0.00     0.001 A 
HETATM    9  C11 LIG X 999      43.743 131.787  15.655  1.00  0.00     0.013 A 
HETATM   10  C12 LIG X 999      44.585 131.168  16.604  1.00  0.00    -0.011 A 
ENDROOT
BRANCH   1  11
HETATM   11  C2  LIG X 999      43.208 131.985  18.589  1.00  0.00     0.177 A 
HETATM   12  O1  LIG X 999      43.050 132.210  19.877  1.00  0.00    -0.258 OA
HETATM   13  C1  LIG X 999      41.871 132.783  19.974  1.00  0.00     0.260 A 
HETATM   14  N1  LIG X 999      41.338 133.171  21.086  1.00  0.00    -0.261 NA
HETATM   15  N3  LIG X 999      41.284 132.914  18.774  1.00  0.00    -0.262 N 
HETATM   16  H1  LIG X 999      41.839 133.042  21.993  1.00  0.00     0.190 HD
HETATM   17  N2  LIG X 999      42.128 132.403  17.896  1.00  0.00    -0.276 N 
HETATM   18  H10 LIG X 999      40.346 133.317  18.554  1.00  0.00     0.190 HD
HETATM   19  H9  LIG X 999      41.947 132.316  16.871  1.00  0.00     0.189 HD
ENDBRANCH   1  11
TORSDOF 1
ENDMDL
MODEL 7
REMARK VINA RESULT:      -6.0      4.114      5.908
REMARK  1 active torsions:
REMARK  status: ('A' for Active; 'I' for Inactive)
REMARK    1  A    between atoms: C2_5  and  C3_6 
ROOT
HETATM    1  C3  LIG X 999      43.442 131.476  20.821  1.00  0.00     0.028 A 
HETATM    2  C4  LIG X 999      42.190 132.108  20.774  1.00  0.00     0.017 A 
HETATM    3  C5  LIG X 999      41.685 132.608  19.575  1.00  0.00     0.002 A 
HETATM    4  C6  LIG X 999      42.418 132.479  18.396  1.00  0.00     0.012 A 
HETATM    5  C7  LIG X 999      43.656 131.822  18.403  1.00  0.00    -0.025 A 
HETATM    6  C8  LIG X 999      44.372 131.669  17.205  1.00  0.00     0.012 A 
HETATM    7  C9  LIG X 999      45.585 130.979  17.193  1.00  0.00     0.001 A 
HETATM    8  C10 LIG X 999      46.085 130.425  18.371  1.00  0.00     0.001 A 
HETATM    9  C11 LIG X 999      45.388 130.571  19.573  1.00  0.00     0.013 A 
HETATM   10  C12 LIG X 999      44.176 131.296  19.617  1.00  0.00    -0.011 A 
ENDROOT
BRANCH   1  11
HETATM   11  C2  LIG X 999      43.941 131.048  22.144  1.00  0.00     0.177 A 
HETATM   12  O1  LIG X 999      43.845 129.819  22.608  1.00  0.00    -0.258 OA
HETATM   13  C1  LIG X 999      44.359 129.877  23.816  1.00  0.00     0.260 A 
HETATM   14  N1  LIG X 999      44.457 128.865  24.615  1.00  0.00    -0.261 NA
HETATM   15  N3  LIG X 999      44.767 131.118  24.123  1.00  0.00    -0.262 N 
HETATM   16  H1  LIG X 999      44.121 127.919  24.326  1.00  0.00     0.190 HD
HETATM   17  N2  LIG X 999      44.498 131.863  23.066  1.00  0.00    -0.276 N 
HETATM   18  H10 LIG X 999      45.196 131.456  25.013  1.00  0.00     0.190 HD
HETATM   19  H9  LIG X 999      44.658 132.893  23.001  1.00  0.00     0.189 HD
ENDBRANCH   1  11
TORSDOF 1
ENDMDL
MODEL 8
REMARK VINA RESULT:      -5.9      1.187      1.356
REMARK  1 active torsions:
REMARK  status: ('A' for Active; 'I' for Inactive)
REMARK    1  A    between atoms: C2_5  and  C3_6 
ROOT
HETATM    1  C3  LIG X 999      45.211 130.490  18.968  1.00  0.00     0.028 A 
HETATM    2  C4  LIG X 999      45.971 129.716  19.858  1.00  0.00     0.017 A 
HETATM    3  C5  LIG X 999      45.703 129.728  21.226  1.00  0.00     0.002 A 
HETATM    4  C6  LIG X 999      44.664 130.509  21.730  1.00  0.00     0.012 A 
HETATM    5  C7  LIG X 999      43.864 131.266  20.864  1.00  0.00    -0.025 A 
HETATM    6  C8  LIG X 999      42.800 132.024  21.378  1.00  0.00     0.012 A 
HETATM    7  C9  LIG X 999      41.971 132.746  20.519  1.00  0.00     0.001 A 
HETATM    8  C10 LIG X 999      42.188 132.707  19.142  1.00  0.00     0.001 A 
HETATM    9  C11 LIG X 999      43.245 131.963  18.613  1.00  0.00     0.013 A 
HETATM   10  C12 LIG X 999      44.119 131.251  19.465  1.00  0.00    -0.011 A 
ENDROOT
BRANCH   1  11
HETATM   11  C2  LIG X 999      45.612 130.484  17.545  1.00  0.00     0.177 A 
HETATM   12  O1  LIG X 999      46.077 129.426  16.913  1.00  0.00    -0.258 OA
HETATM   13  C1  LIG X 999      46.352 129.856  15.701  1.00  0.00     0.260 A 
HETATM   14  N1  LIG X 999      46.833 129.115  14.757  1.00  0.00    -0.261 NA
HETATM   15  N3  LIG X 999      46.078 131.162  15.564  1.00  0.00    -0.262 N 
HETATM   16  H1  LIG X 999      47.030 128.102  14.919  1.00  0.00     0.190 HD
HETATM   17  N2  LIG X 999      45.613 131.564  16.734  1.00  0.00    -0.276 N 
HETATM   18  H10 LIG X 999      46.211 131.766  14.722  1.00  0.00     0.190 HD
HETATM   19  H9  LIG X 999      45.346 132.545  16.968  1.00  0.00     0.189 HD
ENDBRANCH   1  11
TORSDOF 1
ENDMDL
MODEL 9
REMARK VINA RESULT:      -5.8      7.981      8.983
REMARK  1 active torsions:
REMARK  status: ('A' for Active; 'I' for Inactive)
REMARK    1  A    between atoms: C2_5  and  C3_6 
ROOT
HETATM    1  C3  LIG X 999      50.461 137.381  21.573  1.00  0.00     0.028 A 
HETATM    2  C4  LIG X 999      51.631 137.950  22.098  1.00  0.00     0.017 A 
HETATM    3  C5  LIG X 999      52.276 137.378  23.193  1.00  0.00     0.002 A 
HETATM    4  C6  LIG X 999      51.770 136.220  23.780  1.00  0.00     0.012 A 
HETATM    5  C7  LIG X 999      50.623 135.606  23.257  1.00  0.00    -0.025 A 
HETATM    6  C8  LIG X 999      50.139 134.421  23.835  1.00  0.00     0.012 A 
HETATM    7  C9  LIG X 999      49.024 133.780  23.295  1.00  0.00     0.001 A 
HETATM    8  C10 LIG X 999      48.393 134.305  22.168  1.00  0.00     0.001 A 
HETATM    9  C11 LIG X 999      48.858 135.485  21.584  1.00  0.00     0.013 A 
HETATM   10  C12 LIG X 999      49.963 136.172  22.132  1.00  0.00    -0.011 A 
ENDROOT
BRANCH   1  11
HETATM   11  C2  LIG X 999      49.793 138.094  20.465  1.00  0.00     0.177 A 
HETATM   12  O1  LIG X 999      49.722 137.640  19.230  1.00  0.00    -0.258 OA
HETATM   13  C1  LIG X 999      49.098 138.585  18.563  1.00  0.00     0.260 A 
HETATM   14  N1  LIG X 999      48.822 138.525  17.301  1.00  0.00    -0.261 NA
HETATM   15  N3  LIG X 999      48.784 139.624  19.351  1.00  0.00    -0.262 N 
HETATM   16  H1  LIG X 999      49.092 137.691  16.732  1.00  0.00     0.190 HD
HETATM   17  N2  LIG X 999      49.229 139.318  20.556  1.00  0.00    -0.276 N 
HETATM   18  H10 LIG X 999      48.303 140.514  19.087  1.00  0.00     0.190 HD
HETATM   19  H9  LIG X 999      49.176 139.941  21.392  1.00  0.00     0.189 HD
ENDBRANCH   1  11
TORSDOF 1
ENDMDL
