REMARK VINA RESULT:      -4.8      3.791      5.188
REMARK  3 active torsions:
REMARK  status: ('A' for Active; 'I' for Inactive)
REMARK    1  A    between atoms: C6_6  and  C7_7 
REMARK    2  A    between atoms: C8_8  and  C9_9 
REMARK    3  A    between atoms: C10_12  and  N1_13 
ROOT
HETATM    1  N1  LIG X 999      45.247 130.289  18.920  1.00  0.00    -0.105 NA
HETATM    2  N2  LIG X 999      45.500 130.775  17.817  1.00  0.00    -0.167 NA
HETATM    3  N3  LIG X 999      45.753 131.261  16.716  1.00  0.00     0.068 N 
ENDROOT
BRANCH   1   4
HETATM    4  C10 LIG X 999      45.426 131.061  20.147  1.00  0.00     0.179 C 
HETATM    5  C4  LIG X 999      44.757 130.324  21.288  1.00  0.00    -0.023 A 
HETATM    6  C3  LIG X 999      43.483 130.705  21.775  1.00  0.00    -0.050 A 
HETATM    7  C5  LIG X 999      45.380 129.176  21.810  1.00  0.00     0.030 A 
HETATM    8  C2  LIG X 999      42.883 129.956  22.799  1.00  0.00     0.009 A 
HETATM    9  C13 LIG X 999      42.799 131.968  21.305  1.00  0.00     0.039 C 
HETATM   10  C1  LIG X 999      43.516 128.823  23.315  1.00  0.00     0.021 A 
HETATM   11  C6  LIG X 999      44.764 128.431  22.822  1.00  0.00     0.018 A 
HETATM   12  C12 LIG X 999      43.341 132.473  19.965  1.00  0.00     0.007 C 
HETATM   13  C11 LIG X 999      44.869 132.486  19.979  1.00  0.00     0.035 C 
BRANCH  11  14
HETATM   14  C7  LIG X 999      45.412 127.261  23.352  1.00  0.00    -0.056 C 
HETATM   15  C8  LIG X 999      45.954 126.280  23.795  1.00  0.00     0.010 C 
BRANCH  15  16
HETATM   16  C9  LIG X 999      46.600 125.112  24.323  1.00  0.00     0.258 C 
HETATM   17  O1  LIG X 999      45.938 124.058  24.512  1.00  0.00    -0.637 OA
HETATM   18  O2  LIG X 999      47.954 125.143  24.623  1.00  0.00    -0.637 OA
ENDBRANCH  15  16
ENDBRANCH  11  14
ENDBRANCH   1   4
TORSDOF 3
