REMARK VINA RESULT:      -7.8      0.732      2.156
REMARK  1 active torsions:
REMARK  status: ('A' for Active; 'I' for Inactive)
REMARK    1  A    between atoms: C9_10  and  N2_11 
ROOT
HETATM    1  C1  LIG X 999      45.245 129.942  14.776  1.00  0.00     0.272 C 
HETATM    2  N1  LIG X 999      45.407 130.975  15.825  1.00  0.00    -0.067 N 
HETATM    3  C2  LIG X 999      46.164 132.119  15.261  1.00  0.00     0.272 C 
HETATM    4  C3  LIG X 999      46.131 130.416  17.011  1.00  0.00     0.276 C 
HETATM    5  C4  LIG X 999      45.320 130.795  18.187  1.00  0.00    -0.024 A 
HETATM    6  C5  LIG X 999      45.622 130.595  19.536  1.00  0.00     0.021 A 
HETATM    7  C6  LIG X 999      44.690 131.016  20.504  1.00  0.00    -0.025 A 
HETATM    8  C7  LIG X 999      44.951 130.840  21.871  1.00  0.00     0.014 A 
HETATM    9  C8  LIG X 999      44.020 131.258  22.824  1.00  0.00     0.030 A 
HETATM   10  C9  LIG X 999      42.815 131.857  22.428  1.00  0.00     0.026 A 
HETATM   11  C10 LIG X 999      42.542 132.037  21.064  1.00  0.00     0.041 A 
HETATM   12  C11 LIG X 999      43.468 131.623  20.096  1.00  0.00    -0.023 A 
HETATM   13  C12 LIG X 999      43.199 131.798  18.725  1.00  0.00     0.021 A 
HETATM   14  C13 LIG X 999      44.151 131.375  17.796  1.00  0.00    -0.024 A 
HETATM   15  C14 LIG X 999      44.072 131.438  16.321  1.00  0.00     0.276 C 
ENDROOT
BRANCH  10  16
HETATM   16  N2  LIG X 999      41.868 132.281  23.411  1.00  0.00    -0.399 N 
HETATM   17  H12 LIG X 999      41.159 133.016  23.191  1.00  0.00     0.156 HD
HETATM   18  H13 LIG X 999      41.868 131.863  24.369  1.00  0.00     0.156 HD
ENDBRANCH  10  16
TORSDOF 1
