REMARK VINA RESULT:      -6.8      0.000      0.000
REMARK  4 active torsions:
REMARK  status: ('A' for Active; 'I' for Inactive)
REMARK    1  A    between atoms: C1_1  and  C2_6 
REMARK    2  A    between atoms: N1_2  and  N2_3 
REMARK    3  A    between atoms: C2_6  and  C3_8 
REMARK    4  A    between atoms: C11_16  and  N4_17 
ROOT
HETATM    1  N4  LIG X 999      43.643 131.736  15.664  1.00  0.00    -0.105 NA
HETATM    2  N5  LIG X 999      43.266 131.680  14.492  1.00  0.00    -0.167 NA
HETATM    3  N6  LIG X 999      42.888 131.623  13.323  1.00  0.00     0.068 N 
ENDROOT
BRANCH   1   4
HETATM    4  C11 LIG X 999      45.003 132.145  16.009  1.00  0.00     0.179 C 
HETATM    5  C10 LIG X 999      46.011 131.232  15.331  1.00  0.00    -0.024 A 
HETATM    6  C5  LIG X 999      46.622 130.156  16.023  1.00  0.00    -0.049 A 
HETATM    7  C9  LIG X 999      46.282 131.411  13.964  1.00  0.00     0.010 A 
HETATM    8  C4  LIG X 999      46.471 129.987  17.517  1.00  0.00     0.051 C 
HETATM    9  C6  LIG X 999      47.499 129.303  15.335  1.00  0.00     0.007 A 
HETATM   10  C3  LIG X 999      45.222 130.695  18.069  1.00  0.00     0.068 C 
HETATM   11  C12 LIG X 999      45.159 132.135  17.537  1.00  0.00     0.048 C 
HETATM   12  C7  LIG X 999      47.749 129.490  13.974  1.00  0.00     0.001 A 
HETATM   13  C8  LIG X 999      47.144 130.544  13.290  1.00  0.00     0.001 A 
BRANCH  10  14
HETATM   14  C2  LIG X 999      45.207 130.696  19.583  1.00  0.00     0.172 C 
HETATM   15  O1  LIG X 999      46.037 129.992  20.219  1.00  0.00    -0.291 OA
BRANCH  14  16
HETATM   16  C1  LIG X 999      44.289 131.558  20.348  1.00  0.00     0.190 C 
HETATM   17  N1  LIG X 999      43.503 131.061  21.250  1.00  0.00    -0.165 NA
BRANCH  17  18
HETATM   18  N2  LIG X 999      42.615 131.866  21.979  1.00  0.00    -0.177 N 
HETATM   19  H2  LIG X 999      41.915 132.471  21.494  1.00  0.00     0.214 HD
HETATM   20  N3  LIG X 999      42.652 131.851  23.247  1.00  0.00    -0.031 N 
ENDBRANCH  17  18
ENDBRANCH  14  16
ENDBRANCH  10  14
ENDBRANCH   1   4
TORSDOF 4
