REMARK VINA RESULT:      -8.5      0.000      0.000
REMARK  1 active torsions:
REMARK  status: ('A' for Active; 'I' for Inactive)
REMARK    1  A    between atoms: C2_5  and  C3_6 
ROOT
HETATM    1  C3  LIG X 999      44.374 131.416  17.346  1.00  0.00     0.030 A 
HETATM    2  C4  LIG X 999      43.112 131.824  16.884  1.00  0.00     0.017 A 
HETATM    3  C5  LIG X 999      42.102 132.176  17.777  1.00  0.00     0.002 A 
HETATM    4  C6  LIG X 999      42.326 132.124  19.150  1.00  0.00     0.012 A 
HETATM    5  C7  LIG X 999      43.562 131.690  19.646  1.00  0.00    -0.025 A 
HETATM    6  C8  LIG X 999      43.768 131.613  21.033  1.00  0.00     0.012 A 
HETATM    7  C9  LIG X 999      44.978 131.143  21.541  1.00  0.00     0.001 A 
HETATM    8  C10 LIG X 999      45.988 130.732  20.673  1.00  0.00     0.001 A 
HETATM    9  C11 LIG X 999      45.803 130.806  19.290  1.00  0.00     0.013 A 
HETATM   10  C12 LIG X 999      44.600 131.311  18.748  1.00  0.00    -0.011 A 
ENDROOT
BRANCH   1  11
HETATM   11  C2  LIG X 999      45.414 131.146  16.326  1.00  0.00     0.203 A 
HETATM   12  O1  LIG X 999      45.857 129.940  16.033  1.00  0.00    -0.255 OA
HETATM   13  C1  LIG X 999      46.718 130.129  15.066  1.00  0.00     0.262 A 
HETATM   14  N1  LIG X 999      47.387 129.181  14.494  1.00  0.00    -0.260 NA
HETATM   15  N3  LIG X 999      46.816 131.429  14.745  1.00  0.00    -0.238 N 
HETATM   16  H1  LIG X 999      48.063 129.384  13.726  1.00  0.00     0.190 HD
HETATM   17  N2  LIG X 999      45.985 132.084  15.536  1.00  0.00    -0.145 NA
HETATM   18  H9  LIG X 999      47.419 131.865  14.011  1.00  0.00     0.193 HD
ENDBRANCH   1  11
TORSDOF 1
