REMARK VINA RESULT:      -8.4      2.854      6.304
REMARK  4 active torsions:
REMARK  status: ('A' for Active; 'I' for Inactive)
REMARK    1  A    between atoms: O1_2  and  C1_3 
REMARK    2  A    between atoms: C1_3  and  C14_17 
REMARK    3  A    between atoms: N1_4  and  C2_5 
REMARK    4  A    between atoms: C2_5  and  C3_6 
ROOT
HETATM    1  C3  LIG X 999      44.475 131.428  18.127  1.00  0.00    -0.033 A 
HETATM    2  C4  LIG X 999      45.446 130.505  18.548  1.00  0.00     0.010 A 
HETATM    3  C5  LIG X 999      46.331 129.934  17.630  1.00  0.00     0.013 A 
HETATM    4  C6  LIG X 999      46.265 130.284  16.275  1.00  0.00    -0.026 A 
HETATM    5  C7  LIG X 999      47.150 129.717  15.344  1.00  0.00     0.012 A 
HETATM    6  C8  LIG X 999      47.076 130.076  13.996  1.00  0.00     0.001 A 
HETATM    7  C9  LIG X 999      46.121 131.003  13.566  1.00  0.00     0.001 A 
HETATM    8  C10 LIG X 999      45.235 131.575  14.483  1.00  0.00     0.012 A 
HETATM    9  C11 LIG X 999      45.297 131.222  15.840  1.00  0.00    -0.025 A 
HETATM   10  C12 LIG X 999      44.413 131.790  16.768  1.00  0.00     0.021 A 
ENDROOT
BRANCH   1  11
HETATM   11  C2  LIG X 999      43.538 132.056  19.135  1.00  0.00     0.139 C 
HETATM   12  C13 LIG X 999      42.087 131.931  18.654  1.00  0.00     0.039 C 
BRANCH  11  13
HETATM   13  N1  LIG X 999      43.706 131.403  20.434  1.00  0.00    -0.261 NA
HETATM   14  C1  LIG X 999      42.975 131.646  21.481  1.00  0.00     0.132 C 
BRANCH  14  15
HETATM   15  O1  LIG X 999      41.962 132.604  21.434  1.00  0.00    -0.348 OA
HETATM   16  H1  LIG X 999      42.147 133.548  21.116  1.00  0.00     0.219 HD
ENDBRANCH  14  15
BRANCH  14  17
HETATM   17  C14 LIG X 999      43.253 130.914  22.759  1.00  0.00     0.081 C 
HETATM   18  C15 LIG X 999      44.397 129.925  22.572  1.00  0.00     0.013 C 
ENDBRANCH  14  17
ENDBRANCH  11  13
ENDBRANCH   1  11
TORSDOF 4
