REMARK VINA RESULT:      -5.7      3.031      4.662
REMARK  5 active torsions:
REMARK  status: ('A' for Active; 'I' for Inactive)
REMARK    1  A    between atoms: N1_1  and  C1_2 
REMARK    2  A    between atoms: C1_2  and  C2_3 
REMARK    3  A    between atoms: C2_3  and  C3_4 
REMARK    4  A    between atoms: C3_4  and  O1_5 
REMARK    5  A    between atoms: O1_5  and  C4_6 
ROOT
HETATM    1  C4  LIG X 999      43.892 131.599  20.882  1.00  0.00     0.069 A 
HETATM    2  C5  LIG X 999      42.713 132.047  20.255  1.00  0.00     0.037 A 
HETATM    3  C6  LIG X 999      42.612 132.053  18.861  1.00  0.00     0.015 A 
HETATM    4  C7  LIG X 999      43.682 131.610  18.073  1.00  0.00    -0.026 A 
HETATM    5  C8  LIG X 999      43.590 131.611  16.672  1.00  0.00     0.012 A 
HETATM    6  C9  LIG X 999      44.667 131.167  15.898  1.00  0.00     0.001 A 
HETATM    7  C10 LIG X 999      45.839 130.721  16.514  1.00  0.00     0.001 A 
HETATM    8  C11 LIG X 999      45.944 130.715  17.907  1.00  0.00     0.012 A 
HETATM    9  C12 LIG X 999      44.871 131.158  18.697  1.00  0.00    -0.023 A 
HETATM   10  C13 LIG X 999      44.963 131.156  20.096  1.00  0.00     0.049 A 
ENDROOT
BRANCH   1  11
HETATM   11  O1  LIG X 999      44.038 131.576  22.277  1.00  0.00    -0.351 OA
BRANCH  11  12
HETATM   12  C3  LIG X 999      42.956 131.641  23.204  1.00  0.00     0.177 C 
BRANCH  12  13
HETATM   13  C2  LIG X 999      42.977 130.418  24.124  1.00  0.00     0.056 C 
BRANCH  13  14
HETATM   14  C1  LIG X 999      42.353 129.170  23.486  1.00  0.00     0.269 C 
BRANCH  14  15
HETATM   15  N1  LIG X 999      42.803 127.955  24.161  1.00  0.00     0.078 N 
HETATM   16  H1  LIG X 999      42.255 127.847  25.044  1.00  0.00     0.312 HD
HETATM   17  H2  LIG X 999      42.544 127.141  23.559  1.00  0.00     0.312 HD
ENDBRANCH  14  15
ENDBRANCH  13  14
ENDBRANCH  12  13
ENDBRANCH  11  12
ENDBRANCH   1  11
TORSDOF 5
