REMARK VINA RESULT:      -4.2      5.372      8.322
REMARK  4 active torsions:
REMARK  status: ('A' for Active; 'I' for Inactive)
REMARK    1  A    between atoms: C3_3  and  C4_4 
REMARK    2  A    between atoms: C5_7  and  N3_8 
REMARK    3  A    between atoms: C8_14  and  C9_15 
REMARK    4  A    between atoms: C10_16  and  C11_17 
ROOT
HETATM    1  N3  LIG X 999      50.477 123.386  18.799  1.00  0.00    -0.023 NA
HETATM    2  N4  LIG X 999      51.346 123.992  18.172  1.00  0.00    -0.158 NA
HETATM    3  N5  LIG X 999      52.215 124.597  17.547  1.00  0.00     0.068 N 
ENDROOT
BRANCH   1   4
HETATM    4  C5  LIG X 999      49.998 123.882  20.047  1.00  0.00     0.326 A 
HETATM    5  N2  LIG X 999      50.801 124.318  21.033  1.00  0.00    -0.099 NA
HETATM    6  N1  LIG X 999      49.996 124.691  22.015  1.00  0.00    -0.124 NA
HETATM    7  C4  LIG X 999      48.735 124.464  21.589  1.00  0.00     0.184 A 
HETATM    8  O1  LIG X 999      48.731 123.968  20.373  1.00  0.00    -0.255 OA
BRANCH   7   9
HETATM    9  C3  LIG X 999      47.495 124.775  22.403  1.00  0.00     0.054 C 
HETATM   10  C2  LIG X 999      47.915 124.890  23.861  1.00  0.00    -0.008 C 
HETATM   11  C1  LIG X 999      48.023 123.796  24.625  1.00  0.00    -0.003 C 
HETATM   12  C15 LIG X 999      47.619 122.474  24.107  1.00  0.00    -0.004 C 
HETATM   13  C14 LIG X 999      46.923 122.376  22.967  1.00  0.00    -0.021 C 
HETATM   14  C13 LIG X 999      46.439 123.622  22.256  1.00  0.00     0.030 C 
HETATM   15  C12 LIG X 999      45.061 124.014  22.836  1.00  0.00     0.027 C 
HETATM   16  C8  LIG X 999      44.551 125.332  22.238  1.00  0.00     0.066 C 
HETATM   17  C7  LIG X 999      45.560 126.458  22.501  1.00  0.00     0.019 C 
HETATM   18  C6  LIG X 999      46.919 126.117  21.883  1.00  0.00     0.024 C 
BRANCH  16  19
HETATM   19  C9  LIG X 999      43.248 125.679  22.823  1.00  0.00    -0.090 C 
HETATM   20  C10 LIG X 999      42.179 125.964  23.304  1.00  0.00     0.005 C 
BRANCH  20  21
HETATM   21  C11 LIG X 999      40.907 126.304  23.875  1.00  0.00     0.258 C 
HETATM   22  O2  LIG X 999      40.225 125.422  24.460  1.00  0.00    -0.637 OA
HETATM   23  O3  LIG X 999      40.431 127.604  23.784  1.00  0.00    -0.637 OA
ENDBRANCH  20  21
ENDBRANCH  16  19
ENDBRANCH   7   9
ENDBRANCH   1   4
TORSDOF 4
