REMARK VINA RESULT:      -8.1      0.000      0.000
REMARK  5 active torsions:
REMARK  status: ('A' for Active; 'I' for Inactive)
REMARK    1  A    between atoms: C6_6  and  C7_7 
REMARK    2  A    between atoms: C7_7  and  N1_8 
REMARK    3  A    between atoms: N4_11  and  C8_12 
REMARK    4  A    between atoms: C8_12  and  C9_13 
REMARK    5  A    between atoms: C9_13  and  N5_14 
ROOT
HETATM    1  N1  LIG X 999      45.621 130.657  19.571  1.00  0.00    -0.052 NA
HETATM    2  N2  LIG X 999      46.064 131.390  20.456  1.00  0.00    -0.160 NA
HETATM    3  N3  LIG X 999      46.507 132.120  21.341  1.00  0.00     0.068 N 
ENDROOT
BRANCH   1   4
HETATM    4  C7  LIG X 999      44.925 131.173  18.423  1.00  0.00     0.191 C 
HETATM    5  N4  LIG X 999      43.709 131.621  18.546  1.00  0.00    -0.267 NA
BRANCH   4   6
HETATM    6  C6  LIG X 999      45.562 131.211  17.084  1.00  0.00     0.015 A 
HETATM    7  C5  LIG X 999      46.307 130.117  16.612  1.00  0.00     0.027 A 
HETATM    8  C4  LIG X 999      46.898 130.154  15.340  1.00  0.00    -0.025 A 
HETATM    9  C3  LIG X 999      47.649 129.066  14.867  1.00  0.00     0.012 A 
HETATM   10  C12 LIG X 999      46.735 131.298  14.523  1.00  0.00    -0.026 A 
HETATM   11  C2  LIG X 999      48.233 129.114  13.598  1.00  0.00     0.001 A 
HETATM   12  C1  LIG X 999      48.073 130.246  12.794  1.00  0.00     0.001 A 
HETATM   13  C13 LIG X 999      47.326 131.334  13.251  1.00  0.00     0.012 A 
HETATM   14  C11 LIG X 999      45.978 132.382  14.991  1.00  0.00     0.013 A 
HETATM   15  C10 LIG X 999      45.393 132.335  16.259  1.00  0.00     0.016 A 
ENDBRANCH   4   6
BRANCH   5  16
HETATM   16  C8  LIG X 999      42.949 131.678  19.795  1.00  0.00     0.181 C 
BRANCH  16  17
HETATM   17  C9  LIG X 999      41.735 132.602  19.661  1.00  0.00     0.288 C 
BRANCH  17  18
HETATM   18  N5  LIG X 999      41.536 133.010  18.273  1.00  0.00     0.079 N 
HETATM   19  H9  LIG X 999      42.300 132.579  17.703  1.00  0.00     0.312 HD
HETATM   20  H10 LIG X 999      41.678 134.044  18.212  1.00  0.00     0.312 HD
ENDBRANCH  17  18
ENDBRANCH  16  17
ENDBRANCH   5  16
ENDBRANCH   1   4
TORSDOF 5
