REMARK VINA RESULT:      -6.6      3.084      5.225
REMARK  1 active torsions:
REMARK  status: ('A' for Active; 'I' for Inactive)
REMARK    1  A    between atoms: C8_8  and  N1_9 
ROOT
HETATM    1  N1  LIG X 999      44.324 131.418  22.734  1.00  0.00    -0.072 NA
HETATM    2  N2  LIG X 999      44.351 130.476  23.528  1.00  0.00    -0.162 NA
HETATM    3  N3  LIG X 999      44.370 129.539  24.325  1.00  0.00     0.068 N 
ENDROOT
BRANCH   1   4
HETATM    4  C8  LIG X 999      44.565 131.256  21.329  1.00  0.00     0.104 A 
HETATM    5  C7  LIG X 999      45.774 130.617  20.937  1.00  0.00     0.038 A 
HETATM    6  C6  LIG X 999      46.116 130.458  19.576  1.00  0.00     0.035 A 
HETATM    7  C5  LIG X 999      45.231 130.941  18.617  1.00  0.00     0.073 A 
HETATM    8  C4  LIG X 999      44.061 131.529  19.002  1.00  0.00     0.021 A 
HETATM    9  N4  LIG X 999      45.345 130.863  17.192  1.00  0.00    -0.209 NA
HETATM   10  C3  LIG X 999      43.314 131.872  17.922  1.00  0.00     0.047 A 
HETATM   11  C9  LIG X 999      43.659 131.700  20.321  1.00  0.00     0.009 A 
HETATM   12  C2  LIG X 999      42.047 132.427  18.078  1.00  0.00     0.018 A 
HETATM   13  C11 LIG X 999      44.109 131.464  16.769  1.00  0.00     0.278 A 
HETATM   14  C1  LIG X 999      41.573 132.614  19.396  1.00  0.00     0.002 A 
HETATM   15  C10 LIG X 999      42.365 132.245  20.515  1.00  0.00     0.015 A 
HETATM   16  O1  LIG X 999      43.774 131.601  15.563  1.00  0.00    -0.265 OA
ENDBRANCH   1   4
TORSDOF 1
