REMARK VINA RESULT:      -5.6      5.198      8.684
REMARK  4 active torsions:
REMARK  status: ('A' for Active; 'I' for Inactive)
REMARK       I    between atoms: N1_1  and  C1_2 
REMARK    1  A    between atoms: C1_2  and  C2_4 
REMARK    2  A    between atoms: C11_13  and  O2_14 
REMARK    3  A    between atoms: O2_14  and  C12_15 
REMARK    4  A    between atoms: C12_15  and  C13_17 
ROOT
HETATM    1  C2  LIG X 999      44.000 124.384  23.481  1.00  0.00     0.068 A 
HETATM    2  C3  LIG X 999      43.108 123.307  23.311  1.00  0.00     0.032 A 
HETATM    3  C4  LIG X 999      41.728 123.480  23.482  1.00  0.00    -0.025 A 
HETATM    4  C5  LIG X 999      40.844 122.401  23.312  1.00  0.00     0.012 A 
HETATM    5  C6  LIG X 999      39.470 122.586  23.477  1.00  0.00     0.001 A 
HETATM    6  C7  LIG X 999      38.965 123.846  23.810  1.00  0.00     0.001 A 
HETATM    7  C8  LIG X 999      39.835 124.927  23.981  1.00  0.00     0.012 A 
HETATM    8  C9  LIG X 999      41.218 124.752  23.822  1.00  0.00    -0.023 A 
HETATM    9  C10 LIG X 999      42.098 125.828  23.990  1.00  0.00     0.050 A 
HETATM   10  C11 LIG X 999      43.486 125.654  23.839  1.00  0.00     0.096 A 
ENDROOT
BRANCH  10  11
HETATM   11  O2  LIG X 999      44.360 126.744  23.986  1.00  0.00    -0.274 OA
BRANCH  11  12
HETATM   12  C12 LIG X 999      44.683 127.668  22.981  1.00  0.00     0.298 C 
HETATM   13  O3  LIG X 999      45.420 127.329  22.015  1.00  0.00    -0.259 OA
BRANCH  12  14
HETATM   14  C13 LIG X 999      44.103 129.029  23.027  1.00  0.00     0.039 A 
HETATM   15  C14 LIG X 999      44.539 130.017  22.126  1.00  0.00     0.017 A 
HETATM   16  C15 LIG X 999      43.992 131.303  22.168  1.00  0.00     0.001 A 
HETATM   17  C16 LIG X 999      43.005 131.616  23.106  1.00  0.00     0.000 A 
HETATM   18  C17 LIG X 999      42.564 130.643  24.005  1.00  0.00     0.001 A 
HETATM   19  C18 LIG X 999      43.107 129.355  23.967  1.00  0.00     0.017 A 
ENDBRANCH  12  14
ENDBRANCH  11  12
ENDBRANCH  10  11
BRANCH   1  20
HETATM   20  C1  LIG X 999      45.458 124.147  23.290  1.00  0.00     0.273 C 
HETATM   21  N1  LIG X 999      46.417 124.618  24.235  1.00  0.00    -0.263 NA
HETATM   22  H1  LIG X 999      47.438 124.447  24.098  1.00  0.00     0.190 HD
HETATM   23  O1  LIG X 999      45.868 123.510  22.281  1.00  0.00    -0.266 OA
ENDBRANCH   1  20
TORSDOF 4
