REMARK VINA RESULT:      -4.2      1.778      6.975
REMARK  5 active torsions:
REMARK  status: ('A' for Active; 'I' for Inactive)
REMARK    1  A    between atoms: C3_3  and  C4_4 
REMARK    2  A    between atoms: C4_4  and  S1_5 
REMARK    3  A    between atoms: S1_5  and  C5_6 
REMARK    4  A    between atoms: C6_7  and  N1_8 
REMARK    5  A    between atoms: C10_12  and  N2_13 
ROOT
HETATM    1  C1  LIG X 999      48.713 129.580  12.973  1.00  0.00     0.112 C 
HETATM    2  C2  LIG X 999      47.655 129.494  13.978  1.00  0.00    -0.110 C 
HETATM    3  C3  LIG X 999      46.780 129.431  14.805  1.00  0.00    -0.097 C 
ENDROOT
BRANCH   3   4
HETATM    4  C4  LIG X 999      45.713 129.363  15.806  1.00  0.00     0.173 C 
BRANCH   4   5
HETATM    5  S1  LIG X 999      46.202 130.254  17.322  1.00  0.00    -0.115 SA
BRANCH   5   6
HETATM    6  C5  LIG X 999      44.612 131.100  17.533  1.00  0.00     0.038 A 
HETATM    7  C6  LIG X 999      43.880 131.499  16.392  1.00  0.00     0.043 A 
HETATM    8  C7  LIG X 999      42.645 132.132  16.548  1.00  0.00     0.031 A 
HETATM    9  C8  LIG X 999      42.120 132.381  17.812  1.00  0.00     0.017 A 
HETATM   10  C9  LIG X 999      42.817 132.000  18.973  1.00  0.00     0.002 A 
HETATM   11  C10 LIG X 999      42.293 132.249  20.277  1.00  0.00     0.045 A 
HETATM   12  C14 LIG X 999      44.097 131.371  18.828  1.00  0.00    -0.004 A 
HETATM   13  C11 LIG X 999      43.076 131.892  21.384  1.00  0.00     0.003 A 
HETATM   14  C12 LIG X 999      44.294 131.310  21.240  1.00  0.00    -0.021 A 
HETATM   15  C18 LIG X 999      42.762 132.060  22.825  1.00  0.00     0.278 C 
HETATM   16  C13 LIG X 999      44.831 131.034  19.989  1.00  0.00     0.023 A 
HETATM   17  C15 LIG X 999      44.916 131.048  22.556  1.00  0.00     0.276 C 
HETATM   18  N3  LIG X 999      43.866 131.375  23.569  1.00  0.00    -0.067 N 
HETATM   19  C16 LIG X 999      43.360 130.131  24.197  1.00  0.00     0.272 C 
HETATM   20  C17 LIG X 999      44.413 132.259  24.625  1.00  0.00     0.272 C 
BRANCH   7  21
HETATM   21  N1  LIG X 999      44.379 131.289  15.063  1.00  0.00    -0.398 N 
HETATM   22  H6  LIG X 999      45.332 130.890  14.913  1.00  0.00     0.156 HD
HETATM   23  H7  LIG X 999      43.818 131.508  14.211  1.00  0.00     0.156 HD
ENDBRANCH   7  21
BRANCH  11  24
HETATM   24  N2  LIG X 999      40.997 132.831  20.492  1.00  0.00    -0.398 N 
HETATM   25  H10 LIG X 999      40.454 132.692  21.370  1.00  0.00     0.156 HD
HETATM   26  H11 LIG X 999      40.600 133.515  19.811  1.00  0.00     0.156 HD
ENDBRANCH  11  24
ENDBRANCH   5   6
ENDBRANCH   4   5
ENDBRANCH   3   4
TORSDOF 5
