REMARK VINA RESULT:      -4.8      2.638      5.734
REMARK  5 active torsions:
REMARK  status: ('A' for Active; 'I' for Inactive)
REMARK    1  A    between atoms: O1_2  and  C1_3 
REMARK    2  A    between atoms: C1_3  and  O4_19 
REMARK       I    between atoms: N1_4  and  C2_5 
REMARK    3  A    between atoms: C2_5  and  C3_7 
REMARK    4  A    between atoms: C4_8  and  O3_9 
REMARK    5  A    between atoms: O4_19  and  C13_20 
ROOT
HETATM    1  C3  LIG X 999      43.932 129.587  23.052  1.00  0.00     0.068 A 
HETATM    2  C4  LIG X 999      42.684 129.112  23.501  1.00  0.00     0.082 A 
HETATM    3  C5  LIG X 999      42.456 127.732  23.607  1.00  0.00     0.049 A 
HETATM    4  C6  LIG X 999      43.470 126.818  23.291  1.00  0.00    -0.023 A 
HETATM    5  C7  LIG X 999      43.247 125.436  23.399  1.00  0.00     0.012 A 
HETATM    6  C8  LIG X 999      44.267 124.534  23.085  1.00  0.00     0.001 A 
HETATM    7  C9  LIG X 999      45.515 125.002  22.663  1.00  0.00     0.001 A 
HETATM    8  C10 LIG X 999      45.750 126.376  22.553  1.00  0.00     0.012 A 
HETATM    9  C11 LIG X 999      44.732 127.292  22.864  1.00  0.00    -0.025 A 
HETATM   10  C12 LIG X 999      44.956 128.672  22.753  1.00  0.00     0.032 A 
ENDROOT
BRANCH   1  11
HETATM   11  C2  LIG X 999      44.199 131.040  22.921  1.00  0.00     0.283 C 
HETATM   12  N1  LIG X 999      44.372 131.678  21.648  1.00  0.00    -0.162 NA
HETATM   13  C1  LIG X 999      44.954 131.154  20.608  1.00  0.00     0.289 C 
HETATM   14  O2  LIG X 999      44.241 131.750  23.961  1.00  0.00    -0.265 OA
BRANCH  13  15
HETATM   15  O1  LIG X 999      45.552 129.898  20.688  1.00  0.00    -0.325 OA
HETATM   16  H1  LIG X 999      45.998 129.488  19.877  1.00  0.00     0.221 HD
ENDBRANCH  13  15
BRANCH  13  17
HETATM   17  O4  LIG X 999      45.017 131.852  19.394  1.00  0.00    -0.294 OA
BRANCH  17  18
HETATM   18  C13 LIG X 999      44.446 131.418  18.154  1.00  0.00     0.224 C 
HETATM   19 CL1  LIG X 999      45.373 132.038  16.758  1.00  0.00    -0.095 Cl
HETATM   20  C14 LIG X 999      42.973 131.807  18.052  1.00  0.00     0.057 C 
ENDBRANCH  17  18
ENDBRANCH  13  17
ENDBRANCH   1  11
BRANCH   2  21
HETATM   21  O3  LIG X 999      41.676 130.008  23.859  1.00  0.00    -0.360 OA
HETATM   22  H2  LIG X 999      40.724 129.702  24.022  1.00  0.00     0.217 HD
ENDBRANCH   2  21
TORSDOF 5
