REMARK VINA RESULT:      -4.2      1.403      4.648
REMARK  3 active torsions:
REMARK  status: ('A' for Active; 'I' for Inactive)
REMARK    1  A    between atoms: C5_5  and  N1_6 
REMARK    2  A    between atoms: C6_9  and  N4_10 
REMARK    3  A    between atoms: C8_15  and  N7_16 
ROOT
HETATM    1  N1  LIG X 999      42.267 129.465  24.552  1.00  0.00    -0.069 NA
HETATM    2  N2  LIG X 999      42.375 130.454  23.827  1.00  0.00    -0.162 NA
HETATM    3  N3  LIG X 999      42.486 131.444  23.104  1.00  0.00     0.068 N 
ENDROOT
BRANCH   1   4
HETATM    4  C5  LIG X 999      42.404 128.127  24.044  1.00  0.00     0.137 C 
HETATM    5  C4  LIG X 999      41.268 127.287  24.013  1.00  0.00     0.011 A 
HETATM    6  C3  LIG X 999      39.992 127.792  24.341  1.00  0.00     0.015 A 
HETATM    7  C9  LIG X 999      41.403 125.918  23.655  1.00  0.00     0.010 A 
HETATM    8  C2  LIG X 999      38.865 126.974  24.276  1.00  0.00     0.001 A 
HETATM    9  C1  LIG X 999      38.987 125.647  23.875  1.00  0.00     0.001 A 
HETATM   10  C10 LIG X 999      40.240 125.121  23.559  1.00  0.00     0.015 A 
HETATM   11  C8  LIG X 999      42.690 125.394  23.373  1.00  0.00     0.128 C 
HETATM   12  C7  LIG X 999      43.792 126.260  23.314  1.00  0.00     0.100 C 
HETATM   13  C6  LIG X 999      43.655 127.624  23.608  1.00  0.00     0.149 C 
HETATM   14 CL1  LIG X 999      45.375 125.624  22.857  1.00  0.00    -0.079 Cl
BRANCH  11  15
HETATM   15  N7  LIG X 999      42.915 123.997  23.129  1.00  0.00    -0.070 NA
HETATM   16  N8  LIG X 999      42.834 123.509  22.000  1.00  0.00    -0.162 NA
HETATM   17  N9  LIG X 999      42.750 123.020  20.875  1.00  0.00     0.068 N 
ENDBRANCH  11  15
BRANCH  13  18
HETATM   18  N4  LIG X 999      44.795 128.475  23.413  1.00  0.00    -0.068 NA
HETATM   19  N5  LIG X 999      44.962 129.119  22.375  1.00  0.00    -0.162 NA
HETATM   20  N6  LIG X 999      45.134 129.759  21.338  1.00  0.00     0.068 N 
ENDBRANCH  13  18
ENDBRANCH   1   4
TORSDOF 3
