REMARK VINA RESULT:      -6.2      3.205      5.408
REMARK  3 active torsions:
REMARK  status: ('A' for Active; 'I' for Inactive)
REMARK    1  A    between atoms: C3_3  and  O1_4 
REMARK    2  A    between atoms: O1_4  and  C4_5 
REMARK    3  A    between atoms: C5_7  and  C6_8 
ROOT
HETATM    1  C1  LIG X 999      43.875 131.394  16.699  1.00  0.00     0.014 C 
HETATM    2  C2  LIG X 999      43.303 131.722  17.709  1.00  0.00    -0.091 C 
HETATM    3  C3  LIG X 999      42.612 132.119  18.936  1.00  0.00     0.270 C 
ENDROOT
BRANCH   3   4
HETATM    4  O1  LIG X 999      43.191 131.435  20.039  1.00  0.00    -0.317 OA
BRANCH   4   5
HETATM    5  C4  LIG X 999      44.459 131.750  20.535  1.00  0.00     0.217 C 
HETATM    6  O2  LIG X 999      45.352 132.482  19.759  1.00  0.00    -0.164 OA
HETATM    7  C5  LIG X 999      44.823 131.362  21.760  1.00  0.00     0.079 C 
BRANCH   7   8
HETATM    8  C6  LIG X 999      43.915 130.620  22.663  1.00  0.00    -0.020 A 
HETATM    9  C7  LIG X 999      42.945 131.361  23.356  1.00  0.00     0.012 A 
HETATM   10  C8  LIG X 999      42.023 130.727  24.187  1.00  0.00     0.002 A 
HETATM   11  C9  LIG X 999      42.057 129.344  24.350  1.00  0.00     0.012 A 
HETATM   12  C10 LIG X 999      43.036 128.580  23.699  1.00  0.00    -0.025 A 
HETATM   13  C11 LIG X 999      43.082 127.189  23.889  1.00  0.00     0.012 A 
HETATM   14  C15 LIG X 999      43.989 129.215  22.856  1.00  0.00    -0.015 A 
HETATM   15  C12 LIG X 999      44.073 126.428  23.269  1.00  0.00     0.001 A 
HETATM   16  C13 LIG X 999      45.032 127.045  22.466  1.00  0.00     0.001 A 
HETATM   17  C14 LIG X 999      45.000 128.427  22.265  1.00  0.00     0.013 A 
ENDBRANCH   7   8
ENDBRANCH   4   5
ENDBRANCH   3   4
TORSDOF 3
