REMARK VINA RESULT:      -4.8      2.915      3.913
REMARK  6 active torsions:
REMARK  status: ('A' for Active; 'I' for Inactive)
REMARK    1  A    between atoms: C8_8  and  O1_9 
REMARK    2  A    between atoms: O1_9  and  C9_10 
REMARK    3  A    between atoms: C9_10  and  C10_11 
REMARK    4  A    between atoms: C10_11  and  C11_12 
REMARK    5  A    between atoms: C11_12  and  N1_13 
REMARK    6  A    between atoms: C13_18  and  N4_19 
ROOT
HETATM    1  N1  LIG X 999      44.720 131.373  20.090  1.00  0.00    -0.116 NA
HETATM    2  N2  LIG X 999      43.693 131.697  19.491  1.00  0.00    -0.168 NA
HETATM    3  N3  LIG X 999      42.668 132.021  18.893  1.00  0.00     0.068 N 
ENDROOT
BRANCH   1   4
HETATM    4  C11 LIG X 999      44.790 131.425  21.544  1.00  0.00     0.191 C 
BRANCH   4   5
HETATM    5  C10 LIG X 999      43.738 130.503  22.169  1.00  0.00     0.051 C 
BRANCH   5   6
HETATM    6  C9  LIG X 999      44.369 129.554  23.188  1.00  0.00     0.170 C 
BRANCH   6   7
HETATM    7  O1  LIG X 999      43.399 128.614  23.604  1.00  0.00    -0.384 OA
BRANCH   7   8
HETATM    8  C8  LIG X 999      43.677 127.331  23.065  1.00  0.00     0.146 C 
HETATM    9  C7  LIG X 999      45.187 127.219  22.795  1.00  0.00     0.072 C 
HETATM   10  C5  LIG X 999      45.658 125.800  22.568  1.00  0.00    -0.047 A 
HETATM   11  C4  LIG X 999      44.896 124.685  22.996  1.00  0.00    -0.023 A 
HETATM   12  C6  LIG X 999      46.941 125.597  22.035  1.00  0.00     0.008 A 
HETATM   13  C3  LIG X 999      45.432 123.392  22.856  1.00  0.00     0.010 A 
HETATM   14  C13 LIG X 999      43.483 124.846  23.517  1.00  0.00     0.199 C 
HETATM   15  C2  LIG X 999      46.703 123.206  22.311  1.00  0.00     0.001 A 
HETATM   16  C1  LIG X 999      47.456 124.306  21.900  1.00  0.00     0.001 A 
HETATM   17  C12 LIG X 999      43.253 126.260  24.083  1.00  0.00     0.143 C 
HETATM   18 CL1  LIG X 999      41.537 126.476  24.554  1.00  0.00    -0.120 Cl
BRANCH  14  19
HETATM   19  N4  LIG X 999      42.525 124.576  22.446  1.00  0.00    -0.104 NA
HETATM   20  N5  LIG X 999      41.978 123.477  22.335  1.00  0.00    -0.167 NA
HETATM   21  N6  LIG X 999      41.432 122.382  22.224  1.00  0.00     0.068 N 
ENDBRANCH  14  19
ENDBRANCH   7   8
ENDBRANCH   6   7
ENDBRANCH   5   6
ENDBRANCH   4   5
ENDBRANCH   1   4
TORSDOF 6
