REMARK VINA RESULT:      -7.2      2.330      3.260
REMARK  1 active torsions:
REMARK  status: ('A' for Active; 'I' for Inactive)
REMARK    1  A    between atoms: C11_13  and  N2_14 
ROOT
HETATM    1  N2  LIG X 999      46.164 130.468  16.775  1.00  0.00    -0.053 NA
HETATM    2  N3  LIG X 999      46.199 131.288  15.857  1.00  0.00    -0.160 NA
HETATM    3  N4  LIG X 999      46.241 132.099  14.934  1.00  0.00     0.068 N 
ENDROOT
BRANCH   1   4
HETATM    4  C11 LIG X 999      45.508 130.728  18.022  1.00  0.00     0.175 A 
HETATM    5  C10 LIG X 999      44.249 131.307  18.218  1.00  0.00     0.026 A 
HETATM    6  C5  LIG X 999      44.089 131.333  19.565  1.00  0.00     0.017 A 
HETATM    7  C9  LIG X 999      43.239 131.805  17.387  1.00  0.00     0.016 A 
HETATM    8  C4  LIG X 999      45.184 130.805  20.161  1.00  0.00     0.046 A 
HETATM    9  C6  LIG X 999      42.982 131.825  20.219  1.00  0.00     0.005 A 
HETATM   10  C3  LIG X 999      45.272 130.712  21.630  1.00  0.00     0.033 A 
HETATM   11  N5  LIG X 999      46.075 130.423  19.221  1.00  0.00    -0.337 N 
HETATM   12  C2  LIG X 999      44.233 131.169  22.366  1.00  0.00     0.034 A 
HETATM   13  C1  LIG X 999      43.016 131.758  21.704  1.00  0.00     0.059 A 
HETATM   14  N1  LIG X 999      42.021 132.195  22.408  1.00  0.00    -0.300 NA
HETATM   15  H1  LIG X 999      42.026 132.156  23.452  1.00  0.00     0.187 HD
HETATM   16  H7  LIG X 999      47.008 129.984  19.384  1.00  0.00     0.167 HD
HETATM   17  C7  LIG X 999      41.941 132.337  19.419  1.00  0.00     0.015 A 
HETATM   18  C8  LIG X 999      42.074 132.325  18.004  1.00  0.00     0.002 A 
ENDBRANCH   1   4
TORSDOF 1
