REMARK VINA RESULT:      -5.2      7.223      8.966
REMARK  1 active torsions:
REMARK  status: ('A' for Active; 'I' for Inactive)
REMARK    1  A    between atoms: C4_4  and  N1_5 
ROOT
HETATM    1  C1  LIG X 999      40.148 127.637  24.166  1.00  0.00     0.049 C 
HETATM    2  C2  LIG X 999      41.429 126.887  23.894  1.00  0.00    -0.045 C 
HETATM    3  C3  LIG X 999      42.604 127.656  23.885  1.00  0.00     0.057 C 
HETATM    4  C4  LIG X 999      43.789 127.124  23.386  1.00  0.00     0.122 C 
HETATM    5  N2  LIG X 999      43.797 125.870  22.875  1.00  0.00    -0.231 NA
HETATM    6  C5  LIG X 999      42.701 125.068  22.901  1.00  0.00     0.070 C 
HETATM    7  C6  LIG X 999      42.782 123.816  22.292  1.00  0.00     0.033 C 
HETATM    8  C7  LIG X 999      41.687 122.963  22.284  1.00  0.00     0.014 C 
HETATM    9  C8  LIG X 999      40.524 123.301  22.981  1.00  0.00    -0.025 C 
HETATM   10  C9  LIG X 999      39.471 122.375  23.047  1.00  0.00     0.012 C 
HETATM   11  C10 LIG X 999      38.357 122.631  23.842  1.00  0.00     0.001 C 
HETATM   12  C11 LIG X 999      38.305 123.791  24.609  1.00  0.00     0.001 C 
HETATM   13  C12 LIG X 999      39.339 124.728  24.543  1.00  0.00     0.013 C 
HETATM   14  C13 LIG X 999      40.432 124.550  23.664  1.00  0.00    -0.013 C 
HETATM   15  C14 LIG X 999      41.493 125.507  23.513  1.00  0.00     0.010 C 
ENDROOT
BRANCH   4  16
HETATM   16  N1  LIG X 999      44.980 127.911  23.348  1.00  0.00    -0.384 N 
HETATM   17  H5  LIG X 999      45.059 128.793  23.901  1.00  0.00     0.157 HD
HETATM   18  H6  LIG X 999      45.793 127.608  22.767  1.00  0.00     0.157 HD
ENDBRANCH   4  16
TORSDOF 1
