REMARK VINA RESULT:      -6.2      8.413      9.646
REMARK  2 active torsions:
REMARK  status: ('A' for Active; 'I' for Inactive)
REMARK    1  A    between atoms: C2_5  and  C3_6 
REMARK    2  A    between atoms: N3_18  and  C13_19 
ROOT
HETATM    1  H1  LIG X 999      44.462 121.836  20.474  1.00  0.00     0.190 HD
HETATM    2  N1  LIG X 999      45.102 122.375  21.099  1.00  0.00    -0.260 NA
HETATM    3  C1  LIG X 999      44.640 123.276  21.904  1.00  0.00     0.268 A 
HETATM    4  O1  LIG X 999      43.365 123.575  22.018  1.00  0.00    -0.257 OA
HETATM    5  C2  LIG X 999      43.315 124.489  22.966  1.00  0.00     0.177 A 
HETATM    6  N2  LIG X 999      44.552 124.769  23.430  1.00  0.00    -0.269 N 
HETATM    7  H9  LIG X 999      44.819 125.481  24.146  1.00  0.00     0.190 HD
HETATM    8  N3  LIG X 999      45.393 124.005  22.752  1.00  0.00    -0.212 N 
ENDROOT
BRANCH   5   9
HETATM    9  C3  LIG X 999      42.072 125.153  23.410  1.00  0.00     0.028 A 
HETATM   10  C4  LIG X 999      42.096 126.550  23.546  1.00  0.00     0.017 A 
HETATM   11  C5  LIG X 999      40.987 127.240  24.033  1.00  0.00     0.002 A 
HETATM   12  C6  LIG X 999      39.830 126.549  24.389  1.00  0.00     0.012 A 
HETATM   13  C7  LIG X 999      39.762 125.158  24.232  1.00  0.00    -0.025 A 
HETATM   14  C8  LIG X 999      38.581 124.474  24.561  1.00  0.00     0.012 A 
HETATM   15  C12 LIG X 999      40.880 124.443  23.722  1.00  0.00    -0.011 A 
HETATM   16  C9  LIG X 999      38.488 123.096  24.368  1.00  0.00     0.001 A 
HETATM   17  C10 LIG X 999      39.566 122.391  23.833  1.00  0.00     0.001 A 
HETATM   18  C11 LIG X 999      40.749 123.055  23.503  1.00  0.00     0.013 A 
ENDBRANCH   5   9
BRANCH   8  19
HETATM   19  C13 LIG X 999      46.816 123.971  22.958  1.00  0.00     0.105 A 
HETATM   20  C14 LIG X 999      47.394 122.888  23.636  1.00  0.00     0.054 A 
HETATM   21  C15 LIG X 999      48.776 122.857  23.837  1.00  0.00     0.122 A 
HETATM   22  N4  LIG X 999      49.552 123.878  23.391  1.00  0.00    -0.230 NA
HETATM   23  C16 LIG X 999      49.020 124.950  22.745  1.00  0.00     0.251 A 
HETATM   24  F1  LIG X 999      49.830 125.955  22.332  1.00  0.00    -0.181 F 
HETATM   25  C17 LIG X 999      47.642 125.021  22.520  1.00  0.00     0.202 A 
HETATM   26  F2  LIG X 999      47.118 126.123  21.928  1.00  0.00    -0.199 F 
ENDBRANCH   8  19
TORSDOF 2
