REMARK VINA RESULT:      -7.6      1.371      2.529
REMARK  1 active torsions:
REMARK  status: ('A' for Active; 'I' for Inactive)
REMARK    1  A    between atoms: C12_13  and  N2_14 
ROOT
HETATM    1  C1  LIG X 999      46.443 131.913  15.072  1.00  0.00     0.272 C 
HETATM    2  N1  LIG X 999      45.584 130.844  15.635  1.00  0.00    -0.067 N 
HETATM    3  C2  LIG X 999      45.564 129.699  14.697  1.00  0.00     0.272 C 
HETATM    4  C3  LIG X 999      44.201 131.365  15.864  1.00  0.00     0.276 C 
HETATM    5  C4  LIG X 999      44.052 131.471  17.330  1.00  0.00    -0.021 A 
HETATM    6  C5  LIG X 999      42.983 132.018  18.029  1.00  0.00     0.022 A 
HETATM    7  C6  LIG X 999      43.015 132.008  19.434  1.00  0.00    -0.023 A 
HETATM    8  C7  LIG X 999      41.941 132.552  20.157  1.00  0.00     0.012 A 
HETATM    9  C8  LIG X 999      41.949 132.532  21.551  1.00  0.00     0.001 A 
HETATM   10  C9  LIG X 999      43.022 131.965  22.237  1.00  0.00     0.001 A 
HETATM   11  C10 LIG X 999      44.102 131.419  21.538  1.00  0.00     0.014 A 
HETATM   12  C11 LIG X 999      44.129 131.438  20.126  1.00  0.00     0.001 A 
HETATM   13  C12 LIG X 999      45.213 130.894  19.373  1.00  0.00     0.045 A 
HETATM   14  C13 LIG X 999      45.126 130.931  17.970  1.00  0.00     0.003 A 
HETATM   15  C14 LIG X 999      46.103 130.421  16.975  1.00  0.00     0.278 C 
ENDROOT
BRANCH  13  16
HETATM   16  N2  LIG X 999      46.379 130.327  19.993  1.00  0.00    -0.398 N 
HETATM   17  H14 LIG X 999      46.378 129.398  20.461  1.00  0.00     0.156 HD
HETATM   18  H15 LIG X 999      47.265 130.875  20.065  1.00  0.00     0.156 HD
ENDBRANCH  13  16
TORSDOF 1
