REMARK VINA RESULT:      -8.9      0.000      0.000
REMARK  4 active torsions:
REMARK  status: ('A' for Active; 'I' for Inactive)
REMARK    1  A    between atoms: O1_2  and  C1_3 
REMARK    2  A    between atoms: C1_3  and  C14_17 
REMARK    3  A    between atoms: N1_4  and  C2_5 
REMARK    4  A    between atoms: C2_5  and  C3_6 
ROOT
HETATM    1  C3  LIG X 999      44.498 130.971  16.643  1.00  0.00    -0.033 A 
HETATM    2  C4  LIG X 999      45.652 130.595  17.349  1.00  0.00     0.010 A 
HETATM    3  C5  LIG X 999      45.726 130.765  18.734  1.00  0.00     0.013 A 
HETATM    4  C6  LIG X 999      44.641 131.306  19.437  1.00  0.00    -0.026 A 
HETATM    5  C7  LIG X 999      44.706 131.480  20.829  1.00  0.00     0.012 A 
HETATM    6  C8  LIG X 999      43.616 132.018  21.520  1.00  0.00     0.001 A 
HETATM    7  C9  LIG X 999      42.457 132.384  20.829  1.00  0.00     0.001 A 
HETATM    8  C10 LIG X 999      42.381 132.216  19.444  1.00  0.00     0.012 A 
HETATM    9  C11 LIG X 999      43.468 131.679  18.738  1.00  0.00    -0.025 A 
HETATM   10  C12 LIG X 999      43.403 131.505  17.348  1.00  0.00     0.021 A 
ENDROOT
BRANCH   1  11
HETATM   11  C2  LIG X 999      44.422 130.761  15.147  1.00  0.00     0.139 C 
HETATM   12  C13 LIG X 999      43.556 131.851  14.505  1.00  0.00     0.039 C 
BRANCH  11  13
HETATM   13  N1  LIG X 999      45.772 130.778  14.580  1.00  0.00    -0.261 NA
HETATM   14  C1  LIG X 999      46.527 129.728  14.444  1.00  0.00     0.132 C 
BRANCH  14  15
HETATM   15  O1  LIG X 999      46.088 128.476  14.875  1.00  0.00    -0.348 OA
HETATM   16  H1  LIG X 999      46.637 127.922  15.522  1.00  0.00     0.219 HD
ENDBRANCH  14  15
BRANCH  14  17
HETATM   17  C14 LIG X 999      47.896 129.878  13.854  1.00  0.00     0.081 C 
HETATM   18  C15 LIG X 999      47.929 131.035  12.863  1.00  0.00     0.013 C 
ENDBRANCH  14  17
ENDBRANCH  11  13
ENDBRANCH   1  11
TORSDOF 4
