REMARK VINA RESULT:      -4.1      2.486      7.009
REMARK  5 active torsions:
REMARK  status: ('A' for Active; 'I' for Inactive)
REMARK    1  A    between atoms: O1_2  and  C1_3 
REMARK    2  A    between atoms: C1_3  and  C15_22 
REMARK    3  A    between atoms: N1_4  and  C2_5 
REMARK    4  A    between atoms: C3_6  and  O2_7 
REMARK    5  A    between atoms: O2_7  and  C4_8 
REMARK       I    between atoms: C4_8  and  N2_10 
ROOT
HETATM    1  C2  LIG X 999      44.220 126.005  23.098  1.00  0.00     0.104 A 
HETATM    2  C3  LIG X 999      44.825 127.151  22.544  1.00  0.00     0.110 A 
HETATM    3  C7  LIG X 999      46.148 127.085  22.077  1.00  0.00     0.041 A 
HETATM    4  C8  LIG X 999      46.868 125.893  22.156  1.00  0.00     0.015 A 
HETATM    5  C9  LIG X 999      46.274 124.742  22.687  1.00  0.00    -0.024 A 
HETATM    6  C10 LIG X 999      46.995 123.539  22.751  1.00  0.00     0.012 A 
HETATM    7  C11 LIG X 999      46.400 122.389  23.272  1.00  0.00     0.001 A 
HETATM    8  C12 LIG X 999      45.083 122.428  23.731  1.00  0.00     0.001 A 
HETATM    9  C13 LIG X 999      44.352 123.617  23.675  1.00  0.00     0.014 A 
HETATM   10  C14 LIG X 999      44.935 124.788  23.152  1.00  0.00     0.006 A 
ENDROOT
BRANCH   1  11
HETATM   11  N1  LIG X 999      42.851 126.055  23.534  1.00  0.00    -0.221 NA
HETATM   12  C1  LIG X 999      41.849 125.448  22.964  1.00  0.00     0.176 C 
BRANCH  12  13
HETATM   13  O1  LIG X 999      41.994 124.752  21.760  1.00  0.00    -0.344 OA
HETATM   14  H1  LIG X 999      42.123 125.213  20.868  1.00  0.00     0.219 HD
ENDBRANCH  12  13
BRANCH  12  15
HETATM   15  C15 LIG X 999      40.520 125.512  23.587  1.00  0.00     0.053 A 
HETATM   16  C16 LIG X 999      39.914 126.607  24.176  1.00  0.00     0.156 A 
HETATM   17  N3  LIG X 999      38.695 126.248  24.625  1.00  0.00    -0.185 NA
HETATM   18  N4  LIG X 999      38.530 124.963  24.348  1.00  0.00    -0.285 N 
HETATM   19  C17 LIG X 999      37.306 124.224  24.625  1.00  0.00     0.179 C 
HETATM   20  C18 LIG X 999      39.611 124.483  23.707  1.00  0.00     0.129 A 
ENDBRANCH  12  15
ENDBRANCH   1  11
BRANCH   2  21
HETATM   21  O2  LIG X 999      44.064 128.324  22.425  1.00  0.00    -0.254 OA
BRANCH  21  22
HETATM   22  C4  LIG X 999      44.406 129.574  22.961  1.00  0.00     0.461 C 
HETATM   23  O3  LIG X 999      44.634 129.703  24.195  1.00  0.00    -0.230 OA
HETATM   24  N2  LIG X 999      44.415 130.736  22.110  1.00  0.00     0.009 N 
HETATM   25  H2  LIG X 999      44.716 131.573  22.662  1.00  0.00     0.292 HD
HETATM   26  C5  LIG X 999      43.060 130.985  21.592  1.00  0.00     0.282 C 
HETATM   27  C6  LIG X 999      45.368 130.543  21.006  1.00  0.00     0.282 C 
ENDBRANCH  21  22
ENDBRANCH   2  21
TORSDOF 5
