REMARK VINA RESULT:      -3.9      3.133      5.134
REMARK  6 active torsions:
REMARK  status: ('A' for Active; 'I' for Inactive)
REMARK    1  A    between atoms: S1_2  and  C1_3 
REMARK    2  A    between atoms: C1_3  and  N2_14 
REMARK    3  A    between atoms: N1_4  and  C2_5 
REMARK    4  A    between atoms: C3_6  and  C4_7 
REMARK    5  A    between atoms: C4_7  and  O2_9 
REMARK    6  A    between atoms: N2_14  and  C8_16 
ROOT
HETATM    1  C1  LIG X 999      43.134 131.985  18.682  1.00  0.00     0.164 C 
HETATM    2  N1  LIG X 999      43.049 131.807  19.969  1.00  0.00    -0.224 NA
ENDROOT
BRANCH   1   3
HETATM    3  S1  LIG X 999      41.684 131.697  17.680  1.00  0.00    -0.105 SA
HETATM    4  H1  LIG X 999      40.910 132.576  18.459  1.00  0.00     0.110 HD
ENDBRANCH   1   3
BRANCH   1   5
HETATM    5  N2  LIG X 999      44.342 132.425  18.044  1.00  0.00    -0.336 N 
HETATM    6  H7  LIG X 999      44.711 133.366  18.310  1.00  0.00     0.168 HD
BRANCH   5   7
HETATM    7  C8  LIG X 999      45.144 131.594  17.185  1.00  0.00     0.034 A 
HETATM    8  C9  LIG X 999      45.427 130.256  17.517  1.00  0.00     0.030 A 
HETATM    9  C10 LIG X 999      46.187 129.458  16.658  1.00  0.00     0.014 A 
HETATM   10  C11 LIG X 999      46.688 129.986  15.462  1.00  0.00    -0.026 A 
HETATM   11  C12 LIG X 999      47.448 129.192  14.590  1.00  0.00     0.012 A 
HETATM   12  C16 LIG X 999      46.425 131.337  15.129  1.00  0.00    -0.024 A 
HETATM   13  C13 LIG X 999      47.943 129.731  13.400  1.00  0.00     0.001 A 
HETATM   14  C14 LIG X 999      47.684 131.066  13.072  1.00  0.00     0.001 A 
HETATM   15  C15 LIG X 999      46.928 131.868  13.931  1.00  0.00     0.012 A 
HETATM   16  C17 LIG X 999      45.662 132.132  15.997  1.00  0.00     0.041 A 
ENDBRANCH   5   7
ENDBRANCH   1   5
BRANCH   2  17
HETATM   17  C2  LIG X 999      44.133 131.870  20.910  1.00  0.00     0.083 A 
HETATM   18  C3  LIG X 999      44.000 131.477  22.240  1.00  0.00     0.108 A 
HETATM   19  S2  LIG X 999      45.496 131.657  22.988  1.00  0.00    -0.093 SA
HETATM   20  C6  LIG X 999      46.329 132.208  21.635  1.00  0.00     0.053 A 
HETATM   21  C7  LIG X 999      45.441 132.260  20.570  1.00  0.00     0.040 A 
BRANCH  18  22
HETATM   22  C4  LIG X 999      42.771 131.027  22.912  1.00  0.00     0.302 C 
HETATM   23  O1  LIG X 999      41.991 131.878  23.418  1.00  0.00    -0.259 OA
BRANCH  22  24
HETATM   24  O2  LIG X 999      42.470 129.664  22.980  1.00  0.00    -0.322 OA
HETATM   25  C5  LIG X 999      41.852 129.069  24.114  1.00  0.00     0.213 C 
ENDBRANCH  22  24
ENDBRANCH  18  22
ENDBRANCH   2  17
TORSDOF 6
