REMARK VINA RESULT:      -5.7      3.867      7.950
REMARK  2 active torsions:
REMARK  status: ('A' for Active; 'I' for Inactive)
REMARK    1  A    between atoms: C9_10  and  N2_11 
REMARK       I    between atoms: N2_11  and  C10_12 
REMARK    2  A    between atoms: C10_12  and  C11_14 
ROOT
HETATM    1  C11 LIG X 999      43.816 128.076  24.606  1.00  0.00     0.280 C 
HETATM    2 CL1  LIG X 999      42.497 126.877  24.619  1.00  0.00    -0.099 Cl
HETATM    3  C12 LIG X 999      45.108 127.383  24.616  1.00  0.00     0.089 C 
HETATM    4  N3  LIG X 999      46.128 126.837  24.625  1.00  0.00    -0.195 NA
ENDROOT
BRANCH   1   5
HETATM    5  C10 LIG X 999      43.709 128.952  23.395  1.00  0.00     0.254 C 
HETATM    6  N2  LIG X 999      44.887 129.534  22.811  1.00  0.00    -0.325 N 
HETATM    7  H12 LIG X 999      45.763 129.537  23.380  1.00  0.00     0.169 HD
HETATM    8  O1  LIG X 999      42.566 129.218  22.929  1.00  0.00    -0.270 OA
BRANCH   6   9
HETATM    9  C9  LIG X 999      44.906 130.210  21.542  1.00  0.00     0.035 A 
HETATM   10  C8  LIG X 999      44.408 131.519  21.456  1.00  0.00     0.030 A 
HETATM   11  C7  LIG X 999      44.429 132.214  20.244  1.00  0.00     0.014 A 
HETATM   12  C6  LIG X 999      44.965 131.614  19.097  1.00  0.00    -0.025 A 
HETATM   13  C5  LIG X 999      44.994 132.307  17.872  1.00  0.00     0.021 A 
HETATM   14  C14 LIG X 999      45.494 130.295  19.178  1.00  0.00    -0.023 A 
HETATM   15  C4  LIG X 999      45.542 131.671  16.757  1.00  0.00    -0.024 A 
HETATM   16  C3  LIG X 999      45.698 132.211  15.389  1.00  0.00     0.276 C 
HETATM   17  C16 LIG X 999      46.052 130.410  16.834  1.00  0.00    -0.024 A 
HETATM   18  N1  LIG X 999      46.220 131.076  14.564  1.00  0.00    -0.067 N 
HETATM   19  C1  LIG X 999      47.398 131.503  13.774  1.00  0.00     0.272 C 
HETATM   20  C2  LIG X 999      45.168 130.595  13.638  1.00  0.00     0.272 C 
HETATM   21  C17 LIG X 999      46.595 129.990  15.525  1.00  0.00     0.276 C 
HETATM   22  C15 LIG X 999      46.049 129.693  18.031  1.00  0.00     0.021 A 
HETATM   23  C13 LIG X 999      45.467 129.609  20.401  1.00  0.00     0.042 A 
ENDBRANCH   6   9
ENDBRANCH   1   5
TORSDOF 2
