REMARK VINA RESULT:      -6.1      1.908      2.685
REMARK  5 active torsions:
REMARK  status: ('A' for Active; 'I' for Inactive)
REMARK    1  A    between atoms: N1_1  and  C1_2 
REMARK    2  A    between atoms: C1_2  and  C2_3 
REMARK    3  A    between atoms: C2_3  and  C3_4 
REMARK    4  A    between atoms: C3_4  and  O1_5 
REMARK    5  A    between atoms: O1_5  and  C4_6 
ROOT
HETATM    1  C4  LIG X 999      44.074 131.124  16.437  1.00  0.00     0.069 A 
HETATM    2  C5  LIG X 999      43.761 131.843  15.267  1.00  0.00     0.037 A 
HETATM    3  C6  LIG X 999      44.616 131.804  14.162  1.00  0.00     0.015 A 
HETATM    4  C7  LIG X 999      45.794 131.047  14.207  1.00  0.00    -0.026 A 
HETATM    5  C8  LIG X 999      46.659 131.002  13.102  1.00  0.00     0.012 A 
HETATM    6  C9  LIG X 999      47.832 130.242  13.160  1.00  0.00     0.001 A 
HETATM    7  C10 LIG X 999      48.149 129.527  14.318  1.00  0.00     0.001 A 
HETATM    8  C11 LIG X 999      47.296 129.564  15.425  1.00  0.00     0.012 A 
HETATM    9  C12 LIG X 999      46.116 130.322  15.379  1.00  0.00    -0.023 A 
HETATM   10  C13 LIG X 999      45.251 130.367  16.483  1.00  0.00     0.049 A 
ENDROOT
BRANCH   1  11
HETATM   11  O1  LIG X 999      43.246 131.133  17.569  1.00  0.00    -0.351 OA
BRANCH  11  12
HETATM   12  C3  LIG X 999      43.549 131.813  18.785  1.00  0.00     0.177 C 
BRANCH  12  13
HETATM   13  C2  LIG X 999      45.055 131.766  19.054  1.00  0.00     0.056 C 
BRANCH  13  14
HETATM   14  C1  LIG X 999      45.399 131.464  20.518  1.00  0.00     0.269 C 
BRANCH  14  15
HETATM   15  N1  LIG X 999      46.088 130.181  20.640  1.00  0.00     0.078 N 
HETATM   16  H1  LIG X 999      45.406 129.419  20.423  1.00  0.00     0.312 HD
HETATM   17  H2  LIG X 999      46.817 130.138  19.893  1.00  0.00     0.312 HD
ENDBRANCH  14  15
ENDBRANCH  13  14
ENDBRANCH  12  13
ENDBRANCH  11  12
ENDBRANCH   1  11
TORSDOF 5
