REMARK VINA RESULT:      -4.2      1.814      5.799
REMARK  4 active torsions:
REMARK  status: ('A' for Active; 'I' for Inactive)
REMARK    1  A    between atoms: O1_2  and  C1_3 
REMARK    2  A    between atoms: C1_3  and  O2_4 
REMARK    3  A    between atoms: O2_4  and  C2_5 
REMARK    4  A    between atoms: C5_8  and  N1_9 
ROOT
HETATM    1  N1  LIG X 999      44.945 131.289  16.024  1.00  0.00    -0.205 NA
HETATM    2  C6  LIG X 999      45.678 130.644  15.206  1.00  0.00     0.337 C 
HETATM    3  O3  LIG X 999      46.391 130.018  14.412  1.00  0.00    -0.260 OA
ENDROOT
BRANCH   1   4
HETATM    4  C5  LIG X 999      44.945 131.084  17.450  1.00  0.00     0.072 A 
HETATM    5  C4  LIG X 999      46.016 130.434  18.091  1.00  0.00     0.035 A 
HETATM    6  C3  LIG X 999      46.009 130.241  19.470  1.00  0.00     0.040 A 
HETATM    7  C2  LIG X 999      44.942 130.702  20.254  1.00  0.00     0.091 A 
HETATM    8  C12 LIG X 999      43.850 131.338  19.630  1.00  0.00     0.010 A 
HETATM    9  C7  LIG X 999      43.852 131.536  18.223  1.00  0.00     0.006 A 
HETATM   10  C11 LIG X 999      42.754 131.789  20.391  1.00  0.00     0.015 A 
HETATM   11  C8  LIG X 999      42.753 132.182  17.620  1.00  0.00     0.014 A 
HETATM   12  C9  LIG X 999      41.677 132.621  18.392  1.00  0.00     0.001 A 
HETATM   13  C10 LIG X 999      41.678 132.425  19.773  1.00  0.00     0.001 A 
BRANCH   7  14
HETATM   14  O2  LIG X 999      44.925 130.495  21.643  1.00  0.00    -0.273 OA
BRANCH  14  15
HETATM   15  C1  LIG X 999      44.862 131.511  22.610  1.00  0.00     0.265 C 
HETATM   16  N2  LIG X 999      44.039 131.399  23.621  1.00  0.00    -0.350 N 
HETATM   17  C13 LIG X 999      43.202 130.199  23.755  1.00  0.00     0.153 C 
HETATM   18  C14 LIG X 999      43.954 132.469  24.624  1.00  0.00     0.153 C 
BRANCH  15  19
HETATM   19  O1  LIG X 999      45.644 132.662  22.471  1.00  0.00    -0.327 OA
HETATM   20  H1  LIG X 999      46.196 132.836  21.640  1.00  0.00     0.221 HD
ENDBRANCH  15  19
ENDBRANCH  14  15
ENDBRANCH   7  14
ENDBRANCH   1   4
TORSDOF 4
