REMARK VINA RESULT:      -6.2      4.710      6.735
REMARK  2 active torsions:
REMARK  status: ('A' for Active; 'I' for Inactive)
REMARK    1  A    between atoms: C1_1  and  N1_14 
REMARK    2  A    between atoms: C2_2  and  C3_4 
ROOT
HETATM    1  C3  LIG X 999      44.329 131.311  20.970  1.00  0.00     0.003 A 
HETATM    2  C4  LIG X 999      45.565 130.647  20.833  1.00  0.00     0.015 A 
HETATM    3  C5  LIG X 999      46.098 130.387  19.568  1.00  0.00     0.013 A 
HETATM    4  C6  LIG X 999      45.406 130.776  18.415  1.00  0.00    -0.026 A 
HETATM    5  C7  LIG X 999      45.934 130.519  17.140  1.00  0.00     0.012 A 
HETATM    6  C8  LIG X 999      45.231 130.910  15.998  1.00  0.00     0.001 A 
HETATM    7  C9  LIG X 999      43.997 131.556  16.118  1.00  0.00     0.001 A 
HETATM    8  C10 LIG X 999      43.460 131.817  17.381  1.00  0.00     0.012 A 
HETATM    9  C11 LIG X 999      44.157 131.431  18.538  1.00  0.00    -0.025 A 
HETATM   10  C12 LIG X 999      43.627 131.688  19.811  1.00  0.00     0.026 A 
ENDROOT
BRANCH   1  11
HETATM   11  C2  LIG X 999      43.734 131.588  22.303  1.00  0.00     0.132 C 
HETATM   12  C1  LIG X 999      42.415 131.491  22.528  1.00  0.00     0.121 C 
HETATM   13  O1  LIG X 999      44.583 131.934  23.351  1.00  0.00    -0.190 OA
BRANCH  12  14
HETATM   14  N1  LIG X 999      41.852 131.765  23.814  1.00  0.00    -0.406 N 
HETATM   15  H9  LIG X 999      41.838 131.051  24.576  1.00  0.00     0.155 HD
HETATM   16  H10 LIG X 999      41.445 132.706  24.006  1.00  0.00     0.155 HD
ENDBRANCH  12  14
ENDBRANCH   1  11
TORSDOF 2
