REMARK VINA RESULT:      -6.8      0.000      0.000
REMARK  5 active torsions:
REMARK  status: ('A' for Active; 'I' for Inactive)
REMARK    1  A    between atoms: O1_2  and  C1_3 
REMARK    2  A    between atoms: C1_3  and  O4_19 
REMARK       I    between atoms: N1_4  and  C2_5 
REMARK    3  A    between atoms: C2_5  and  C3_7 
REMARK    4  A    between atoms: C4_8  and  O3_9 
REMARK    5  A    between atoms: O4_19  and  C13_20 
ROOT
HETATM    1  C3  LIG X 999      43.956 131.454  21.893  1.00  0.00     0.068 A 
HETATM    2  C4  LIG X 999      42.768 132.021  21.388  1.00  0.00     0.082 A 
HETATM    3  C5  LIG X 999      42.590 132.157  20.003  1.00  0.00     0.049 A 
HETATM    4  C6  LIG X 999      43.576 131.712  19.112  1.00  0.00    -0.023 A 
HETATM    5  C7  LIG X 999      43.399 131.843  17.725  1.00  0.00     0.012 A 
HETATM    6  C8  LIG X 999      44.387 131.392  16.847  1.00  0.00     0.001 A 
HETATM    7  C9  LIG X 999      45.556 130.806  17.343  1.00  0.00     0.001 A 
HETATM    8  C10 LIG X 999      45.742 130.668  18.721  1.00  0.00     0.012 A 
HETATM    9  C11 LIG X 999      44.757 131.119  19.614  1.00  0.00    -0.025 A 
HETATM   10  C12 LIG X 999      44.936 130.990  20.999  1.00  0.00     0.032 A 
ENDROOT
BRANCH   1  11
HETATM   11  C2  LIG X 999      44.176 131.305  23.351  1.00  0.00     0.283 C 
HETATM   12  N1  LIG X 999      44.048 130.043  24.022  1.00  0.00    -0.162 NA
HETATM   13  C1  LIG X 999      43.183 129.115  23.736  1.00  0.00     0.289 C 
HETATM   14  O2  LIG X 999      44.524 132.313  24.023  1.00  0.00    -0.265 OA
BRANCH  13  15
HETATM   15  O1  LIG X 999      42.216 129.325  22.755  1.00  0.00    -0.325 OA
HETATM   16  H1  LIG X 999      42.429 129.165  21.779  1.00  0.00     0.221 HD
ENDBRANCH  13  15
BRANCH  13  17
HETATM   17  O4  LIG X 999      43.185 127.894  24.427  1.00  0.00    -0.294 OA
BRANCH  17  18
HETATM   18  C13 LIG X 999      43.670 126.649  23.912  1.00  0.00     0.224 C 
HETATM   19 CL1  LIG X 999      44.851 126.906  22.595  1.00  0.00    -0.095 Cl
HETATM   20  C14 LIG X 999      42.523 125.750  23.454  1.00  0.00     0.057 C 
ENDBRANCH  17  18
ENDBRANCH  13  17
ENDBRANCH   1  11
BRANCH   2  21
HETATM   21  O3  LIG X 999      41.759 132.434  22.258  1.00  0.00    -0.360 OA
HETATM   22  H2  LIG X 999      40.791 132.493  21.962  1.00  0.00     0.217 HD
ENDBRANCH   2  21
TORSDOF 5
