REMARK VINA RESULT:      -6.6      1.803      2.433
REMARK  1 active torsions:
REMARK  status: ('A' for Active; 'I' for Inactive)
REMARK    1  A    between atoms: C8_8  and  N1_9 
ROOT
HETATM    1  N1  LIG X 999      43.929 131.410  16.279  1.00  0.00    -0.072 NA
HETATM    2  N2  LIG X 999      45.034 131.778  15.876  1.00  0.00    -0.162 NA
HETATM    3  N3  LIG X 999      46.132 132.149  15.464  1.00  0.00     0.068 N 
ENDROOT
BRANCH   1   4
HETATM    4  C8  LIG X 999      43.481 131.633  17.624  1.00  0.00     0.104 A 
HETATM    5  C7  LIG X 999      42.187 132.197  17.803  1.00  0.00     0.038 A 
HETATM    6  C6  LIG X 999      41.685 132.494  19.089  1.00  0.00     0.035 A 
HETATM    7  C5  LIG X 999      42.491 132.216  20.189  1.00  0.00     0.073 A 
HETATM    8  C4  LIG X 999      43.720 131.651  20.008  1.00  0.00     0.021 A 
HETATM    9  N4  LIG X 999      42.184 132.397  21.576  1.00  0.00    -0.209 NA
HETATM   10  C3  LIG X 999      44.317 131.402  21.202  1.00  0.00     0.047 A 
HETATM   11  C9  LIG X 999      44.264 131.319  18.774  1.00  0.00     0.009 A 
HETATM   12  C2  LIG X 999      45.553 130.765  21.263  1.00  0.00     0.018 A 
HETATM   13  C11 LIG X 999      43.365 131.870  22.204  1.00  0.00     0.278 A 
HETATM   14  C1  LIG X 999      46.154 130.387  20.040  1.00  0.00     0.002 A 
HETATM   15  C10 LIG X 999      45.513 130.651  18.801  1.00  0.00     0.015 A 
HETATM   16  O1  LIG X 999      43.532 131.819  23.451  1.00  0.00    -0.265 OA
ENDBRANCH   1   4
TORSDOF 1
