REMARK VINA RESULT:      -6.8      2.724      5.133
REMARK  2 active torsions:
REMARK  status: ('A' for Active; 'I' for Inactive)
REMARK    1  A    between atoms: N1_1  and  C1_2 
REMARK    2  A    between atoms: C2_5  and  C3_6 
ROOT
HETATM    1  C3  LIG X 999      44.813 131.115  16.928  1.00  0.00     0.028 A 
HETATM    2  C4  LIG X 999      43.569 131.695  16.624  1.00  0.00     0.017 A 
HETATM    3  C5  LIG X 999      43.199 131.946  15.303  1.00  0.00     0.002 A 
HETATM    4  C6  LIG X 999      44.062 131.623  14.259  1.00  0.00     0.012 A 
HETATM    5  C7  LIG X 999      45.301 131.025  14.525  1.00  0.00    -0.025 A 
HETATM    6  C8  LIG X 999      46.152 130.686  13.462  1.00  0.00     0.012 A 
HETATM    7  C9  LIG X 999      47.374 130.061  13.712  1.00  0.00     0.001 A 
HETATM    8  C10 LIG X 999      47.750 129.758  15.019  1.00  0.00     0.001 A 
HETATM    9  C11 LIG X 999      46.917 130.091  16.089  1.00  0.00     0.013 A 
HETATM   10  C12 LIG X 999      45.687 130.751  15.866  1.00  0.00    -0.011 A 
ENDROOT
BRANCH   1  11
HETATM   11  C2  LIG X 999      45.169 130.949  18.358  1.00  0.00     0.178 A 
HETATM   12  N3  LIG X 999      46.039 130.036  18.832  1.00  0.00    -0.252 N 
HETATM   13  N2  LIG X 999      46.082 130.162  20.148  1.00  0.00    -0.128 NA
HETATM   14  H3  LIG X 999      46.601 129.348  18.284  1.00  0.00     0.191 HD
HETATM   15  C1  LIG X 999      45.219 131.158  20.428  1.00  0.00     0.263 A 
HETATM   16  O1  LIG X 999      44.654 131.644  19.347  1.00  0.00    -0.258 OA
BRANCH  15  17
HETATM   17  N1  LIG X 999      44.952 131.628  21.746  1.00  0.00    -0.362 N 
HETATM   18  H1  LIG X 999      44.266 132.398  21.903  1.00  0.00     0.159 HD
HETATM   19  H2  LIG X 999      45.442 131.201  22.563  1.00  0.00     0.159 HD
ENDBRANCH  15  17
ENDBRANCH   1  11
TORSDOF 2
