MODEL 1
REMARK VINA RESULT:      -5.3      0.000      0.000
REMARK  5 active torsions:
REMARK  status: ('A' for Active; 'I' for Inactive)
REMARK    1  A    between atoms: C3_3  and  O1_4 
REMARK    2  A    between atoms: O1_4  and  C4_5 
REMARK    3  A    between atoms: C5_6  and  C6_7 
REMARK    4  A    between atoms: C12_14  and  N1_15 
REMARK    5  A    between atoms: C15_21  and  N3_22 
ROOT
HETATM    1  C1  LIG X 999      45.457 130.699  20.800  1.00  0.00     0.014 C 
HETATM    2  C2  LIG X 999      44.642 130.494  21.664  1.00  0.00    -0.091 C 
HETATM    3  C3  LIG X 999      43.653 130.244  22.713  1.00  0.00     0.268 C 
ENDROOT
BRANCH   3   4
HETATM    4  O1  LIG X 999      44.169 129.275  23.620  1.00  0.00    -0.339 OA
BRANCH   4   5
HETATM    5  C4  LIG X 999      44.205 127.891  23.384  1.00  0.00     0.085 A 
HETATM    6  C5  LIG X 999      43.023 127.117  23.618  1.00  0.00     0.050 A 
HETATM    7  C7  LIG X 999      43.100 125.735  23.371  1.00  0.00     0.044 A 
HETATM    8  C8  LIG X 999      44.253 125.180  22.930  1.00  0.00     0.021 A 
HETATM    9  C15 LIG X 999      42.177 124.583  23.465  1.00  0.00     0.198 A 
HETATM   10  C9  LIG X 999      44.087 123.846  22.764  1.00  0.00     0.071 A 
HETATM   11  C13 LIG X 999      45.427 125.864  22.684  1.00  0.00     0.006 A 
HETATM   12  C10 LIG X 999      45.140 123.054  22.316  1.00  0.00     0.035 A 
HETATM   13  N2  LIG X 999      42.756 123.465  23.108  1.00  0.00    -0.225 NA
HETATM   14  C11 LIG X 999      46.372 123.690  22.044  1.00  0.00     0.032 A 
HETATM   15  C12 LIG X 999      46.534 125.095  22.223  1.00  0.00     0.037 A 
HETATM   16  C14 LIG X 999      45.400 127.256  22.918  1.00  0.00     0.052 A 
BRANCH   6  17
HETATM   17  C6  LIG X 999      41.762 127.725  24.100  1.00  0.00     0.273 C 
HETATM   18  O2  LIG X 999      40.825 128.015  23.310  1.00  0.00    -0.301 OA
ENDBRANCH   6  17
BRANCH  15  19
HETATM   19  N1  LIG X 999      47.806 125.689  21.932  1.00  0.00    -0.398 N 
HETATM   20  H7  LIG X 999      48.261 125.528  21.007  1.00  0.00     0.156 HD
HETATM   21  H8  LIG X 999      48.316 126.289  22.614  1.00  0.00     0.156 HD
ENDBRANCH  15  19
BRANCH   9  22
HETATM   22  N3  LIG X 999      40.815 124.652  23.890  1.00  0.00    -0.051 NA
HETATM   23  N4  LIG X 999      40.027 123.735  23.657  1.00  0.00    -0.160 NA
HETATM   24  N5  LIG X 999      39.238 122.820  23.424  1.00  0.00     0.068 N 
ENDBRANCH   9  22
ENDBRANCH   4   5
ENDBRANCH   3   4
TORSDOF 5
ENDMDL
MODEL 2
REMARK VINA RESULT:      -5.3      1.970      4.509
REMARK  5 active torsions:
REMARK  status: ('A' for Active; 'I' for Inactive)
REMARK    1  A    between atoms: C3_3  and  O1_4 
REMARK    2  A    between atoms: O1_4  and  C4_5 
REMARK    3  A    between atoms: C5_6  and  C6_7 
REMARK    4  A    between atoms: C12_14  and  N1_15 
REMARK    5  A    between atoms: C15_21  and  N3_22 
ROOT
HETATM    1  C1  LIG X 999      44.737 131.018  21.222  1.00  0.00     0.014 C 
HETATM    2  C2  LIG X 999      43.892 130.972  22.079  1.00  0.00    -0.091 C 
HETATM    3  C3  LIG X 999      42.865 130.917  23.120  1.00  0.00     0.268 C 
ENDROOT
BRANCH   3   4
HETATM    4  O1  LIG X 999      43.121 129.803  23.970  1.00  0.00    -0.339 OA
BRANCH   4   5
HETATM    5  C4  LIG X 999      42.526 128.537  23.840  1.00  0.00     0.085 A 
HETATM    6  C5  LIG X 999      43.356 127.407  23.550  1.00  0.00     0.050 A 
HETATM    7  C7  LIG X 999      42.723 126.159  23.427  1.00  0.00     0.044 A 
HETATM    8  C8  LIG X 999      41.382 126.051  23.582  1.00  0.00     0.021 A 
HETATM    9  C15 LIG X 999      43.149 124.771  23.146  1.00  0.00     0.198 A 
HETATM   10  C9  LIG X 999      41.003 124.761  23.420  1.00  0.00     0.071 A 
HETATM   11  C13 LIG X 999      40.523 127.096  23.861  1.00  0.00     0.006 A 
HETATM   12  C10 LIG X 999      39.663 124.399  23.532  1.00  0.00     0.035 A 
HETATM   13  N2  LIG X 999      42.137 123.942  23.141  1.00  0.00    -0.225 NA
HETATM   14  C11 LIG X 999      38.728 125.420  23.818  1.00  0.00     0.032 A 
HETATM   15  C12 LIG X 999      39.141 126.774  23.985  1.00  0.00     0.037 A 
HETATM   16  C14 LIG X 999      41.113 128.371  23.993  1.00  0.00     0.052 A 
BRANCH   6  17
HETATM   17  C6  LIG X 999      44.822 127.526  23.382  1.00  0.00     0.273 C 
HETATM   18  O2  LIG X 999      45.349 127.648  22.244  1.00  0.00    -0.301 OA
ENDBRANCH   6  17
BRANCH  15  19
HETATM   19  N1  LIG X 999      38.150 127.770  24.274  1.00  0.00    -0.398 N 
HETATM   20  H7  LIG X 999      37.412 127.995  23.572  1.00  0.00     0.156 HD
HETATM   21  H8  LIG X 999      38.126 128.295  25.173  1.00  0.00     0.156 HD
ENDBRANCH  15  19
BRANCH   9  22
HETATM   22  N3  LIG X 999      44.495 124.355  22.907  1.00  0.00    -0.051 NA
HETATM   23  N4  LIG X 999      44.744 123.365  22.220  1.00  0.00    -0.160 NA
HETATM   24  N5  LIG X 999      44.995 122.375  21.533  1.00  0.00     0.068 N 
ENDBRANCH   9  22
ENDBRANCH   4   5
ENDBRANCH   3   4
TORSDOF 5
ENDMDL
MODEL 3
REMARK VINA RESULT:      -4.9      3.053      5.863
REMARK  5 active torsions:
REMARK  status: ('A' for Active; 'I' for Inactive)
REMARK    1  A    between atoms: C3_3  and  O1_4 
REMARK    2  A    between atoms: O1_4  and  C4_5 
REMARK    3  A    between atoms: C5_6  and  C6_7 
REMARK    4  A    between atoms: C12_14  and  N1_15 
REMARK    5  A    between atoms: C15_21  and  N3_22 
ROOT
HETATM    1  C1  LIG X 999      47.775 123.853  21.324  1.00  0.00     0.014 C 
HETATM    2  C2  LIG X 999      46.674 123.472  21.629  1.00  0.00    -0.091 C 
HETATM    3  C3  LIG X 999      45.336 123.008  21.999  1.00  0.00     0.268 C 
ENDROOT
BRANCH   3   4
HETATM    4  O1  LIG X 999      44.937 123.650  23.206  1.00  0.00    -0.339 OA
BRANCH   4   5
HETATM    5  C4  LIG X 999      43.792 124.452  23.351  1.00  0.00     0.085 A 
HETATM    6  C5  LIG X 999      43.943 125.876  23.383  1.00  0.00     0.050 A 
HETATM    7  C7  LIG X 999      42.774 126.642  23.531  1.00  0.00     0.044 A 
HETATM    8  C8  LIG X 999      41.566 126.039  23.634  1.00  0.00     0.021 A 
HETATM    9  C15 LIG X 999      42.448 128.082  23.613  1.00  0.00     0.198 A 
HETATM   10  C9  LIG X 999      40.596 126.975  23.766  1.00  0.00     0.071 A 
HETATM   11  C13 LIG X 999      41.348 124.676  23.611  1.00  0.00     0.006 A 
HETATM   12  C10 LIG X 999      39.262 126.596  23.891  1.00  0.00     0.035 A 
HETATM   13  N2  LIG X 999      41.162 128.284  23.752  1.00  0.00    -0.225 NA
HETATM   14  C11 LIG X 999      38.967 125.214  23.875  1.00  0.00     0.032 A 
HETATM   15  C12 LIG X 999      39.998 124.239  23.736  1.00  0.00     0.037 A 
HETATM   16  C14 LIG X 999      42.493 123.863  23.466  1.00  0.00     0.052 A 
BRANCH   6  17
HETATM   17  C6  LIG X 999      45.264 126.534  23.269  1.00  0.00     0.273 C 
HETATM   18  O2  LIG X 999      45.735 126.879  22.153  1.00  0.00    -0.301 OA
ENDBRANCH   6  17
BRANCH  15  19
HETATM   19  N1  LIG X 999      39.642 122.850  23.726  1.00  0.00    -0.398 N 
HETATM   20  H7  LIG X 999      38.797 122.529  23.205  1.00  0.00     0.156 HD
HETATM   21  H8  LIG X 999      40.197 122.124  24.225  1.00  0.00     0.156 HD
ENDBRANCH  15  19
BRANCH   9  22
HETATM   22  N3  LIG X 999      43.399 129.147  23.550  1.00  0.00    -0.051 NA
HETATM   23  N4  LIG X 999      43.267 130.074  22.750  1.00  0.00    -0.160 NA
HETATM   24  N5  LIG X 999      43.137 131.000  21.951  1.00  0.00     0.068 N 
ENDBRANCH   9  22
ENDBRANCH   4   5
ENDBRANCH   3   4
TORSDOF 5
ENDMDL
MODEL 4
REMARK VINA RESULT:      -4.7      2.769      5.444
REMARK  5 active torsions:
REMARK  status: ('A' for Active; 'I' for Inactive)
REMARK    1  A    between atoms: C3_3  and  O1_4 
REMARK    2  A    between atoms: O1_4  and  C4_5 
REMARK    3  A    between atoms: C5_6  and  C6_7 
REMARK    4  A    between atoms: C12_14  and  N1_15 
REMARK    5  A    between atoms: C15_21  and  N3_22 
ROOT
HETATM    1  C1  LIG X 999      36.993 127.609  24.506  1.00  0.00     0.014 C 
HETATM    2  C2  LIG X 999      37.638 126.633  24.219  1.00  0.00    -0.091 C 
HETATM    3  C3  LIG X 999      38.421 125.446  23.871  1.00  0.00     0.268 C 
ENDROOT
BRANCH   3   4
HETATM    4  O1  LIG X 999      39.628 125.446  24.625  1.00  0.00    -0.339 OA
BRANCH   4   5
HETATM    5  C4  LIG X 999      40.869 125.912  24.158  1.00  0.00     0.085 A 
HETATM    6  C5  LIG X 999      41.854 124.960  23.739  1.00  0.00     0.050 A 
HETATM    7  C7  LIG X 999      43.082 125.466  23.280  1.00  0.00     0.044 A 
HETATM    8  C8  LIG X 999      43.303 126.801  23.241  1.00  0.00     0.021 A 
HETATM    9  C15 LIG X 999      44.345 124.893  22.766  1.00  0.00     0.198 A 
HETATM   10  C9  LIG X 999      44.547 127.047  22.766  1.00  0.00     0.071 A 
HETATM   11  C13 LIG X 999      42.402 127.773  23.629  1.00  0.00     0.006 A 
HETATM   12  C10 LIG X 999      45.007 128.354  22.635  1.00  0.00     0.035 A 
HETATM   13  N2  LIG X 999      45.213 125.823  22.461  1.00  0.00    -0.225 NA
HETATM   14  C11 LIG X 999      44.135 129.400  23.013  1.00  0.00     0.032 A 
HETATM   15  C12 LIG X 999      42.828 129.127  23.513  1.00  0.00     0.037 A 
HETATM   16  C14 LIG X 999      41.153 127.314  24.100  1.00  0.00     0.052 A 
BRANCH   6  17
HETATM   17  C6  LIG X 999      41.610 123.501  23.780  1.00  0.00     0.273 C 
HETATM   18  O2  LIG X 999      41.034 122.901  22.834  1.00  0.00    -0.301 OA
ENDBRANCH   6  17
BRANCH  15  19
HETATM   19  N1  LIG X 999      41.984 130.226  23.882  1.00  0.00    -0.398 N 
HETATM   20  H7  LIG X 999      42.205 131.191  23.555  1.00  0.00     0.156 HD
HETATM   21  H8  LIG X 999      41.137 130.109  24.478  1.00  0.00     0.156 HD
ENDBRANCH  15  19
BRANCH   9  22
HETATM   22  N3  LIG X 999      44.613 123.498  22.610  1.00  0.00    -0.051 NA
HETATM   23  N4  LIG X 999      45.667 123.103  22.111  1.00  0.00    -0.160 NA
HETATM   24  N5  LIG X 999      46.720 122.707  21.613  1.00  0.00     0.068 N 
ENDBRANCH   9  22
ENDBRANCH   4   5
ENDBRANCH   3   4
TORSDOF 5
ENDMDL
MODEL 5
REMARK VINA RESULT:      -4.7      2.596      4.575
REMARK  5 active torsions:
REMARK  status: ('A' for Active; 'I' for Inactive)
REMARK    1  A    between atoms: C3_3  and  O1_4 
REMARK    2  A    between atoms: O1_4  and  C4_5 
REMARK    3  A    between atoms: C5_6  and  C6_7 
REMARK    4  A    between atoms: C12_14  and  N1_15 
REMARK    5  A    between atoms: C15_21  and  N3_22 
ROOT
HETATM    1  C1  LIG X 999      48.347 123.356  20.500  1.00  0.00     0.014 C 
HETATM    2  C2  LIG X 999      48.040 124.218  21.284  1.00  0.00    -0.091 C 
HETATM    3  C3  LIG X 999      47.668 125.266  22.235  1.00  0.00     0.268 C 
ENDROOT
BRANCH   3   4
HETATM    4  O1  LIG X 999      46.669 124.762  23.116  1.00  0.00    -0.339 OA
BRANCH   4   5
HETATM    5  C4  LIG X 999      45.372 125.286  23.247  1.00  0.00     0.085 A 
HETATM    6  C5  LIG X 999      44.254 124.392  23.188  1.00  0.00     0.050 A 
HETATM    7  C7  LIG X 999      42.973 124.955  23.322  1.00  0.00     0.044 A 
HETATM    8  C8  LIG X 999      42.824 126.289  23.499  1.00  0.00     0.021 A 
HETATM    9  C15 LIG X 999      41.583 124.450  23.326  1.00  0.00     0.198 A 
HETATM   10  C9  LIG X 999      41.509 126.594  23.603  1.00  0.00     0.071 A 
HETATM   11  C13 LIG X 999      43.854 127.206  23.565  1.00  0.00     0.006 A 
HETATM   12  C10 LIG X 999      41.103 127.913  23.789  1.00  0.00     0.035 A 
HETATM   13  N2  LIG X 999      40.715 125.415  23.491  1.00  0.00    -0.225 NA
HETATM   14  C11 LIG X 999      42.107 128.905  23.867  1.00  0.00     0.032 A 
HETATM   15  C12 LIG X 999      43.488 128.570  23.756  1.00  0.00     0.037 A 
HETATM   16  C14 LIG X 999      45.161 126.689  23.435  1.00  0.00     0.052 A 
BRANCH   6  17
HETATM   17  C6  LIG X 999      44.418 122.933  22.995  1.00  0.00     0.273 C 
HETATM   18  O2  LIG X 999      44.641 122.439  21.858  1.00  0.00    -0.301 OA
ENDBRANCH   6  17
BRANCH  15  19
HETATM   19  N1  LIG X 999      44.464 129.616  23.841  1.00  0.00    -0.398 N 
HETATM   20  H7  LIG X 999      45.331 129.574  23.262  1.00  0.00     0.156 HD
HETATM   21  H8  LIG X 999      44.352 130.440  24.468  1.00  0.00     0.156 HD
ENDBRANCH  15  19
BRANCH   9  22
HETATM   22  N3  LIG X 999      41.204 123.081  23.171  1.00  0.00    -0.051 NA
HETATM   23  N4  LIG X 999      40.027 122.731  23.264  1.00  0.00    -0.160 NA
HETATM   24  N5  LIG X 999      38.851 122.380  23.356  1.00  0.00     0.068 N 
ENDBRANCH   9  22
ENDBRANCH   4   5
ENDBRANCH   3   4
TORSDOF 5
ENDMDL
MODEL 6
REMARK VINA RESULT:      -4.5      3.023      5.004
REMARK  5 active torsions:
REMARK  status: ('A' for Active; 'I' for Inactive)
REMARK    1  A    between atoms: C3_3  and  O1_4 
REMARK    2  A    between atoms: O1_4  and  C4_5 
REMARK    3  A    between atoms: C5_6  and  C6_7 
REMARK    4  A    between atoms: C12_14  and  N1_15 
REMARK    5  A    between atoms: C15_21  and  N3_22 
ROOT
HETATM    1  C1  LIG X 999      37.522 126.509  24.141  1.00  0.00     0.014 C 
HETATM    2  C2  LIG X 999      38.361 125.669  23.936  1.00  0.00    -0.091 C 
HETATM    3  C3  LIG X 999      39.379 124.648  23.687  1.00  0.00     0.268 C 
ENDROOT
BRANCH   3   4
HETATM    4  O1  LIG X 999      40.520 124.920  24.494  1.00  0.00    -0.339 OA
BRANCH   4   5
HETATM    5  C4  LIG X 999      41.785 125.285  24.004  1.00  0.00     0.085 A 
HETATM    6  C5  LIG X 999      42.130 126.674  23.943  1.00  0.00     0.050 A 
HETATM    7  C7  LIG X 999      43.404 126.998  23.446  1.00  0.00     0.044 A 
HETATM    8  C8  LIG X 999      44.255 126.023  23.049  1.00  0.00     0.021 A 
HETATM    9  C15 LIG X 999      44.169 128.241  23.206  1.00  0.00     0.198 A 
HETATM   10  C9  LIG X 999      45.413 126.573  22.613  1.00  0.00     0.071 A 
HETATM   11  C13 LIG X 999      43.989 124.668  23.081  1.00  0.00     0.006 A 
HETATM   12  C10 LIG X 999      46.448 125.765  22.150  1.00  0.00     0.035 A 
HETATM   13  N2  LIG X 999      45.356 127.994  22.714  1.00  0.00    -0.225 NA
HETATM   14  C11 LIG X 999      46.243 124.367  22.155  1.00  0.00     0.032 A 
HETATM   15  C12 LIG X 999      45.019 123.800  22.617  1.00  0.00     0.037 A 
HETATM   16  C14 LIG X 999      42.720 124.292  23.572  1.00  0.00     0.052 A 
BRANCH   6  17
HETATM   17  C6  LIG X 999      41.199 127.740  24.378  1.00  0.00     0.273 C 
HETATM   18  O2  LIG X 999      40.478 128.363  23.554  1.00  0.00    -0.301 OA
ENDBRANCH   6  17
BRANCH  15  19
HETATM   19  N1  LIG X 999      44.865 122.375  22.600  1.00  0.00    -0.398 N 
HETATM   20  H7  LIG X 999      43.939 121.944  22.814  1.00  0.00     0.156 HD
HETATM   21  H8  LIG X 999      45.650 121.727  22.379  1.00  0.00     0.156 HD
ENDBRANCH  15  19
BRANCH   9  22
HETATM   22  N3  LIG X 999      43.697 129.563  23.471  1.00  0.00    -0.051 NA
HETATM   23  N4  LIG X 999      43.591 130.395  22.570  1.00  0.00    -0.160 NA
HETATM   24  N5  LIG X 999      43.486 131.228  21.670  1.00  0.00     0.068 N 
ENDBRANCH   9  22
ENDBRANCH   4   5
ENDBRANCH   3   4
TORSDOF 5
ENDMDL
MODEL 7
REMARK VINA RESULT:      -3.8      3.476      4.755
REMARK  5 active torsions:
REMARK  status: ('A' for Active; 'I' for Inactive)
REMARK    1  A    between atoms: C3_3  and  O1_4 
REMARK    2  A    between atoms: O1_4  and  C4_5 
REMARK    3  A    between atoms: C5_6  and  C6_7 
REMARK    4  A    between atoms: C12_14  and  N1_15 
REMARK    5  A    between atoms: C15_21  and  N3_22 
ROOT
HETATM    1  C1  LIG X 999      46.023 130.077  16.598  1.00  0.00     0.014 C 
HETATM    2  C2  LIG X 999      45.725 130.520  17.678  1.00  0.00    -0.091 C 
HETATM    3  C3  LIG X 999      45.364 131.059  18.990  1.00  0.00     0.268 C 
ENDROOT
BRANCH   3   4
HETATM    4  O1  LIG X 999      46.100 130.370  19.996  1.00  0.00    -0.339 OA
BRANCH   4   5
HETATM    5  C4  LIG X 999      45.531 129.594  21.020  1.00  0.00     0.085 A 
HETATM    6  C5  LIG X 999      44.500 130.169  21.833  1.00  0.00     0.050 A 
HETATM    7  C7  LIG X 999      43.957 129.362  22.848  1.00  0.00     0.044 A 
HETATM    8  C8  LIG X 999      44.403 128.096  23.030  1.00  0.00     0.021 A 
HETATM    9  C15 LIG X 999      42.920 129.516  23.890  1.00  0.00     0.198 A 
HETATM   10  C9  LIG X 999      43.735 127.518  24.057  1.00  0.00     0.071 A 
HETATM   11  C13 LIG X 999      45.390 127.481  22.286  1.00  0.00     0.006 A 
HETATM   12  C10 LIG X 999      44.021 126.210  24.438  1.00  0.00     0.035 A 
HETATM   13  N2  LIG X 999      42.785 128.429  24.607  1.00  0.00    -0.225 NA
HETATM   14  C11 LIG X 999      45.021 125.519  23.718  1.00  0.00     0.032 A 
HETATM   15  C12 LIG X 999      45.717 126.140  22.638  1.00  0.00     0.037 A 
HETATM   16  C14 LIG X 999      45.967 128.252  21.255  1.00  0.00     0.052 A 
BRANCH   6  17
HETATM   17  C6  LIG X 999      44.014 131.552  21.631  1.00  0.00     0.273 C 
HETATM   18  O2  LIG X 999      42.922 131.790  21.049  1.00  0.00    -0.301 OA
ENDBRANCH   6  17
BRANCH  15  19
HETATM   19  N1  LIG X 999      46.723 125.393  21.942  1.00  0.00    -0.398 N 
HETATM   20  H7  LIG X 999      47.734 125.578  22.123  1.00  0.00     0.156 HD
HETATM   21  H8  LIG X 999      46.493 124.654  21.245  1.00  0.00     0.156 HD
ENDBRANCH  15  19
BRANCH   9  22
HETATM   22  N3  LIG X 999      42.142 130.694  24.111  1.00  0.00    -0.051 NA
HETATM   23  N4  LIG X 999      42.677 131.772  24.368  1.00  0.00    -0.160 NA
HETATM   24  N5  LIG X 999      43.211 132.851  24.625  1.00  0.00     0.068 N 
ENDBRANCH   9  22
ENDBRANCH   4   5
ENDBRANCH   3   4
TORSDOF 5
ENDMDL
MODEL 8
REMARK VINA RESULT:      -3.7      2.614      4.947
REMARK  5 active torsions:
REMARK  status: ('A' for Active; 'I' for Inactive)
REMARK    1  A    between atoms: C3_3  and  O1_4 
REMARK    2  A    between atoms: O1_4  and  C4_5 
REMARK    3  A    between atoms: C5_6  and  C6_7 
REMARK    4  A    between atoms: C12_14  and  N1_15 
REMARK    5  A    between atoms: C15_21  and  N3_22 
ROOT
HETATM    1  C1  LIG X 999      43.583 131.632  18.952  1.00  0.00     0.014 C 
HETATM    2  C2  LIG X 999      43.067 131.869  20.015  1.00  0.00    -0.091 C 
HETATM    3  C3  LIG X 999      42.440 132.156  21.305  1.00  0.00     0.268 C 
ENDROOT
BRANCH   3   4
HETATM    4  O1  LIG X 999      43.204 131.547  22.341  1.00  0.00    -0.339 OA
BRANCH   4   5
HETATM    5  C4  LIG X 999      43.153 130.185  22.685  1.00  0.00     0.085 A 
HETATM    6  C5  LIG X 999      44.287 129.356  22.404  1.00  0.00     0.050 A 
HETATM    7  C7  LIG X 999      44.196 128.000  22.761  1.00  0.00     0.044 A 
HETATM    8  C8  LIG X 999      43.075 127.518  23.348  1.00  0.00     0.021 A 
HETATM    9  C15 LIG X 999      45.075 126.814  22.672  1.00  0.00     0.198 A 
HETATM   10  C9  LIG X 999      43.220 126.196  23.600  1.00  0.00     0.071 A 
HETATM   11  C13 LIG X 999      41.948 128.258  23.647  1.00  0.00     0.006 A 
HETATM   12  C10 LIG X 999      42.193 125.475  24.202  1.00  0.00     0.035 A 
HETATM   13  N2  LIG X 999      44.502 125.746  23.166  1.00  0.00    -0.225 NA
HETATM   14  C11 LIG X 999      41.009 126.170  24.536  1.00  0.00     0.032 A 
HETATM   15  C12 LIG X 999      40.869 127.563  24.265  1.00  0.00     0.037 A 
HETATM   16  C14 LIG X 999      41.990 129.627  23.305  1.00  0.00     0.052 A 
BRANCH   6  17
HETATM   17  C6  LIG X 999      45.513 129.884  21.763  1.00  0.00     0.273 C 
HETATM   18  O2  LIG X 999      45.738 129.721  20.535  1.00  0.00    -0.301 OA
ENDBRANCH   6  17
BRANCH  15  19
HETATM   19  N1  LIG X 999      39.646 128.220  24.625  1.00  0.00    -0.398 N 
HETATM   20  H7  LIG X 999      39.080 127.872  25.430  1.00  0.00     0.156 HD
HETATM   21  H8  LIG X 999      39.281 129.049  24.112  1.00  0.00     0.156 HD
ENDBRANCH  15  19
BRANCH   9  22
HETATM   22  N3  LIG X 999      46.392 126.804  22.120  1.00  0.00    -0.051 NA
HETATM   23  N4  LIG X 999      47.095 125.795  22.164  1.00  0.00    -0.160 NA
HETATM   24  N5  LIG X 999      47.799 124.786  22.207  1.00  0.00     0.068 N 
ENDBRANCH   9  22
ENDBRANCH   4   5
ENDBRANCH   3   4
TORSDOF 5
ENDMDL
MODEL 9
REMARK VINA RESULT:      -3.2      4.112      5.729
REMARK  5 active torsions:
REMARK  status: ('A' for Active; 'I' for Inactive)
REMARK    1  A    between atoms: C3_3  and  O1_4 
REMARK    2  A    between atoms: O1_4  and  C4_5 
REMARK    3  A    between atoms: C5_6  and  C6_7 
REMARK    4  A    between atoms: C12_14  and  N1_15 
REMARK    5  A    between atoms: C15_21  and  N3_22 
ROOT
HETATM    1  C1  LIG X 999      45.697 131.955  16.024  1.00  0.00     0.014 C 
HETATM    2  C2  LIG X 999      45.751 131.043  16.809  1.00  0.00    -0.091 C 
HETATM    3  C3  LIG X 999      45.818 129.935  17.763  1.00  0.00     0.268 C 
ENDROOT
BRANCH   3   4
HETATM    4  O1  LIG X 999      46.158 130.446  19.048  1.00  0.00    -0.339 OA
BRANCH   4   5
HETATM    5  C4  LIG X 999      45.560 130.049  20.257  1.00  0.00     0.085 A 
HETATM    6  C5  LIG X 999      44.663 130.950  20.915  1.00  0.00     0.050 A 
HETATM    7  C7  LIG X 999      44.086 130.516  22.121  1.00  0.00     0.044 A 
HETATM    8  C8  LIG X 999      44.380 129.292  22.621  1.00  0.00     0.021 A 
HETATM    9  C15 LIG X 999      43.143 131.076  23.113  1.00  0.00     0.198 A 
HETATM   10  C9  LIG X 999      43.710 129.098  23.782  1.00  0.00     0.071 A 
HETATM   11  C13 LIG X 999      45.234 128.375  22.041  1.00  0.00     0.006 A 
HETATM   12  C10 LIG X 999      43.852 127.906  24.488  1.00  0.00     0.035 A 
HETATM   13  N2  LIG X 999      42.918 130.241  24.096  1.00  0.00    -0.225 NA
HETATM   14  C11 LIG X 999      44.711 126.922  23.950  1.00  0.00     0.032 A 
HETATM   15  C12 LIG X 999      45.411 127.140  22.727  1.00  0.00     0.037 A 
HETATM   16  C14 LIG X 999      45.839 128.766  20.827  1.00  0.00     0.052 A 
BRANCH   6  17
HETATM   17  C6  LIG X 999      44.342 132.287  20.367  1.00  0.00     0.273 C 
HETATM   18  O2  LIG X 999      43.684 132.424  19.301  1.00  0.00    -0.301 OA
ENDBRANCH   6  17
BRANCH  15  19
HETATM   19  N1  LIG X 999      46.271 126.107  22.227  1.00  0.00    -0.398 N 
HETATM   20  H7  LIG X 999      47.267 126.058  22.533  1.00  0.00     0.156 HD
HETATM   21  H8  LIG X 999      45.945 125.381  21.554  1.00  0.00     0.156 HD
ENDBRANCH  15  19
BRANCH   9  22
HETATM   22  N3  LIG X 999      42.535 132.366  23.034  1.00  0.00    -0.051 NA
HETATM   23  N4  LIG X 999      41.817 132.676  22.083  1.00  0.00    -0.160 NA
HETATM   24  N5  LIG X 999      41.099 132.987  21.133  1.00  0.00     0.068 N 
ENDBRANCH   9  22
ENDBRANCH   4   5
ENDBRANCH   3   4
TORSDOF 5
ENDMDL
