REMARK VINA RESULT:      -5.7      0.000      0.000
REMARK  2 active torsions:
REMARK  status: ('A' for Active; 'I' for Inactive)
REMARK    1  A    between atoms: C9_10  and  N2_11 
REMARK       I    between atoms: N2_11  and  C10_12 
REMARK    2  A    between atoms: C10_12  and  C11_14 
ROOT
HETATM    1  C11 LIG X 999      42.847 131.774  23.608  1.00  0.00     0.282 C 
HETATM    2 CL1  LIG X 999      42.135 130.496  24.625  1.00  0.00    -0.099 Cl
HETATM    3  C12 LIG X 999      44.153 132.159  24.152  1.00  0.00     0.089 C 
HETATM    4  N3  LIG X 999      45.183 132.464  24.581  1.00  0.00    -0.195 NA
ENDROOT
BRANCH   1   5
HETATM    5  C10 LIG X 999      43.001 131.287  22.202  1.00  0.00     0.276 C 
HETATM    6  N2  LIG X 999      42.699 132.163  21.107  1.00  0.00    -0.212 NA
HETATM    7  O1  LIG X 999      43.331 130.088  21.993  1.00  0.00    -0.268 OA
BRANCH   6   8
HETATM    8  C9  LIG X 999      43.025 131.948  19.726  1.00  0.00     0.061 A 
HETATM    9  C8  LIG X 999      42.052 132.226  18.759  1.00  0.00     0.032 A 
HETATM   10  C7  LIG X 999      42.325 132.051  17.400  1.00  0.00     0.014 A 
HETATM   11  C6  LIG X 999      43.587 131.610  16.986  1.00  0.00    -0.025 A 
HETATM   12  C5  LIG X 999      43.873 131.429  15.618  1.00  0.00     0.021 A 
HETATM   13  C14 LIG X 999      44.593 131.347  17.959  1.00  0.00    -0.023 A 
HETATM   14  C4  LIG X 999      45.149 131.002  15.252  1.00  0.00    -0.024 A 
HETATM   15  C3  LIG X 999      45.660 130.728  13.891  1.00  0.00     0.276 C 
HETATM   16  C16 LIG X 999      46.113 130.755  16.183  1.00  0.00    -0.024 A 
HETATM   17  N1  LIG X 999      47.118 130.431  14.059  1.00  0.00    -0.067 N 
HETATM   18  C1  LIG X 999      47.482 129.184  13.351  1.00  0.00     0.272 C 
HETATM   19  C2  LIG X 999      47.929 131.547  13.517  1.00  0.00     0.272 C 
HETATM   20  C17 LIG X 999      47.357 130.292  15.531  1.00  0.00     0.276 C 
HETATM   21  C15 LIG X 999      45.869 130.914  17.547  1.00  0.00     0.021 A 
HETATM   22  C13 LIG X 999      44.304 131.527  19.321  1.00  0.00     0.044 A 
ENDBRANCH   6   8
ENDBRANCH   1   5
TORSDOF 2
