REMARK VINA RESULT:      -8.1      1.843      5.931
REMARK  4 active torsions:
REMARK  status: ('A' for Active; 'I' for Inactive)
REMARK    1  A    between atoms: C3_3  and  O1_4 
REMARK    2  A    between atoms: O1_4  and  C4_5 
REMARK    3  A    between atoms: C4_5  and  O2_6 
REMARK    4  A    between atoms: C5_8  and  C6_9 
ROOT
HETATM    1  C1  LIG X 999      47.186 130.999  13.350  1.00  0.00     0.014 C 
HETATM    2  C2  LIG X 999      46.144 131.018  13.955  1.00  0.00    -0.091 C 
HETATM    3  C3  LIG X 999      44.881 131.040  14.694  1.00  0.00     0.270 C 
ENDROOT
BRANCH   3   4
HETATM    4  O1  LIG X 999      44.968 130.138  15.788  1.00  0.00    -0.319 OA
BRANCH   4   5
HETATM    5  C4  LIG X 999      46.028 130.126  16.706  1.00  0.00     0.179 C 
HETATM    6  C5  LIG X 999      45.845 130.605  17.939  1.00  0.00     0.075 C 
BRANCH   5   7
HETATM    7  O2  LIG X 999      47.285 129.630  16.357  1.00  0.00    -0.341 OA
HETATM    8  H4  LIG X 999      47.624 128.733  16.678  1.00  0.00     0.220 HD
ENDBRANCH   5   7
BRANCH   6   9
HETATM    9  C6  LIG X 999      44.563 131.191  18.387  1.00  0.00    -0.021 A 
HETATM   10  C7  LIG X 999      43.662 131.610  17.396  1.00  0.00     0.012 A 
HETATM   11  C8  LIG X 999      42.412 132.125  17.741  1.00  0.00     0.002 A 
HETATM   12  C9  LIG X 999      42.044 132.240  19.080  1.00  0.00     0.012 A 
HETATM   13  C10 LIG X 999      42.935 131.862  20.093  1.00  0.00    -0.025 A 
HETATM   14  C11 LIG X 999      42.567 132.005  21.441  1.00  0.00     0.012 A 
HETATM   15  C15 LIG X 999      44.216 131.345  19.757  1.00  0.00    -0.015 A 
HETATM   16  C12 LIG X 999      43.462 131.661  22.454  1.00  0.00     0.001 A 
HETATM   17  C13 LIG X 999      44.732 131.183  22.135  1.00  0.00     0.001 A 
HETATM   18  C14 LIG X 999      45.114 131.031  20.800  1.00  0.00     0.013 A 
ENDBRANCH   6   9
ENDBRANCH   4   5
ENDBRANCH   3   4
TORSDOF 4
