REMARK VINA RESULT:      -3.1      4.639      7.259
REMARK  4 active torsions:
REMARK  status: ('A' for Active; 'I' for Inactive)
REMARK    1  A    between atoms: C3_3  and  O1_4 
REMARK    2  A    between atoms: O1_4  and  C4_5 
REMARK    3  A    between atoms: C9_12  and  N2_13 
REMARK    4  A    between atoms: C11_17  and  C12_18 
ROOT
HETATM    1  C1  LIG X 999      46.145 131.825  15.291  1.00  0.00     0.014 C 
HETATM    2  C2  LIG X 999      45.927 130.909  16.045  1.00  0.00    -0.091 C 
HETATM    3  C3  LIG X 999      45.664 129.796  16.963  1.00  0.00     0.268 C 
ENDROOT
BRANCH   3   4
HETATM    4  O1  LIG X 999      45.930 130.186  18.309  1.00  0.00    -0.339 OA
BRANCH   4   5
HETATM    5  C4  LIG X 999      44.983 130.678  19.227  1.00  0.00     0.085 A 
HETATM    6  C5  LIG X 999      43.921 131.536  18.799  1.00  0.00     0.052 A 
HETATM    7  C6  LIG X 999      42.985 132.020  19.728  1.00  0.00     0.008 A 
HETATM    8  C7  LIG X 999      43.142 131.636  21.036  1.00  0.00     0.018 A 
HETATM    9  C15 LIG X 999      41.829 132.913  19.438  1.00  0.00     0.059 A 
HETATM   10  C8  LIG X 999      42.336 132.003  22.061  1.00  0.00     0.046 A 
HETATM   11  C10 LIG X 999      44.131 130.825  21.496  1.00  0.00     0.042 A 
HETATM   12  N1  LIG X 999      42.771 131.444  23.208  1.00  0.00    -0.337 N 
HETATM   13  C13 LIG X 999      41.175 132.883  21.835  1.00  0.00     0.033 A 
HETATM   14  H5  LIG X 999      42.345 131.549  24.155  1.00  0.00     0.167 HD
HETATM   15  C9  LIG X 999      43.874 130.719  22.868  1.00  0.00     0.176 A 
HETATM   16  C14 LIG X 999      40.936 133.317  20.577  1.00  0.00     0.034 A 
HETATM   17  C11 LIG X 999      45.098 130.309  20.609  1.00  0.00     0.050 A 
HETATM   18  N5  LIG X 999      41.600 133.327  18.234  1.00  0.00    -0.300 NA
HETATM   19  H9  LIG X 999      40.794 133.953  18.010  1.00  0.00     0.187 HD
BRANCH  15  20
HETATM   20  N2  LIG X 999      44.641 129.959  23.803  1.00  0.00    -0.053 NA
HETATM   21  N3  LIG X 999      44.263 128.853  24.191  1.00  0.00    -0.160 NA
HETATM   22  N4  LIG X 999      43.887 127.748  24.579  1.00  0.00     0.068 N 
ENDBRANCH  15  20
BRANCH  17  23
HETATM   23  C12 LIG X 999      46.185 129.424  21.094  1.00  0.00     0.273 C 
HETATM   24  O2  LIG X 999      45.972 128.217  21.384  1.00  0.00    -0.301 OA
ENDBRANCH  17  23
ENDBRANCH   4   5
ENDBRANCH   3   4
TORSDOF 4
