REMARK VINA RESULT:      -4.2      2.857      5.850
REMARK  6 active torsions:
REMARK  status: ('A' for Active; 'I' for Inactive)
REMARK    1  A    between atoms: C8_8  and  O1_9 
REMARK    2  A    between atoms: O1_9  and  C9_10 
REMARK    3  A    between atoms: C9_10  and  C10_11 
REMARK    4  A    between atoms: C10_11  and  C11_12 
REMARK    5  A    between atoms: C11_12  and  N1_13 
REMARK    6  A    between atoms: C13_18  and  N4_19 
ROOT
HETATM    1  N1  LIG X 999      47.339 123.660  21.720  1.00  0.00    -0.116 NA
HETATM    2  N2  LIG X 999      48.049 123.486  20.729  1.00  0.00    -0.168 NA
HETATM    3  N3  LIG X 999      48.757 123.312  19.739  1.00  0.00     0.068 N 
ENDROOT
BRANCH   1   4
HETATM    4  C11 LIG X 999      47.865 123.431  23.057  1.00  0.00     0.191 C 
BRANCH   4   5
HETATM    5  C10 LIG X 999      46.952 124.096  24.089  1.00  0.00     0.051 C 
BRANCH   5   6
HETATM    6  C9  LIG X 999      45.523 123.558  24.011  1.00  0.00     0.170 C 
BRANCH   6   7
HETATM    7  O1  LIG X 999      44.609 124.611  24.242  1.00  0.00    -0.384 OA
BRANCH   7   8
HETATM    8  C8  LIG X 999      44.454 125.414  23.082  1.00  0.00     0.146 C 
HETATM    9  C7  LIG X 999      43.430 124.770  22.137  1.00  0.00     0.072 C 
HETATM   10  C5  LIG X 999      42.031 124.795  22.703  1.00  0.00    -0.047 A 
HETATM   11  C4  LIG X 999      41.637 125.757  23.666  1.00  0.00    -0.023 A 
HETATM   12  C6  LIG X 999      41.084 123.888  22.200  1.00  0.00     0.008 A 
HETATM   13  C3  LIG X 999      40.317 125.731  24.155  1.00  0.00     0.010 A 
HETATM   14  C13 LIG X 999      42.633 126.731  24.276  1.00  0.00     0.199 C 
HETATM   15  C2  LIG X 999      39.391 124.811  23.657  1.00  0.00     0.001 A 
HETATM   16  C1  LIG X 999      39.772 123.896  22.677  1.00  0.00     0.001 A 
HETATM   17  C12 LIG X 999      43.957 126.808  23.487  1.00  0.00     0.143 C 
HETATM   18 CL1  LIG X 999      45.206 127.636  24.463  1.00  0.00    -0.120 Cl
BRANCH  14  19
HETATM   19  N4  LIG X 999      42.044 128.067  24.338  1.00  0.00    -0.104 NA
HETATM   20  N5  LIG X 999      42.399 128.957  23.564  1.00  0.00    -0.167 NA
HETATM   21  N6  LIG X 999      42.755 129.846  22.791  1.00  0.00     0.068 N 
ENDBRANCH  14  19
ENDBRANCH   7   8
ENDBRANCH   6   7
ENDBRANCH   5   6
ENDBRANCH   4   5
ENDBRANCH   1   4
TORSDOF 6
