REMARK VINA RESULT:      -7.0      1.827      3.102
REMARK  1 active torsions:
REMARK  status: ('A' for Active; 'I' for Inactive)
REMARK    1  A    between atoms: C5_8  and  O1_9 
ROOT
HETATM    1  H1  LIG X 999      42.563 132.060  15.285  1.00  0.00     0.187 HD
HETATM    2  N1  LIG X 999      43.503 131.615  15.351  1.00  0.00    -0.300 NA
HETATM    3  C1  LIG X 999      44.099 131.376  16.477  1.00  0.00     0.059 A 
HETATM    4  C2  LIG X 999      45.454 130.730  16.472  1.00  0.00     0.034 A 
HETATM    5  C3  LIG X 999      46.110 130.464  17.624  1.00  0.00     0.035 A 
HETATM    6  C4  LIG X 999      45.462 130.822  18.897  1.00  0.00     0.071 A 
HETATM    7  N2  LIG X 999      45.919 130.655  20.161  1.00  0.00    -0.224 NA
HETATM    8  C5  LIG X 999      44.924 131.160  20.947  1.00  0.00     0.174 A 
HETATM    9  C6  LIG X 999      43.870 131.632  20.181  1.00  0.00     0.030 A 
HETATM   10  C7  LIG X 999      42.643 132.228  20.471  1.00  0.00     0.017 A 
HETATM   11  C8  LIG X 999      41.815 132.578  19.377  1.00  0.00     0.002 A 
HETATM   12  C9  LIG X 999      42.230 132.327  18.039  1.00  0.00     0.015 A 
HETATM   13  C10 LIG X 999      43.484 131.721  17.796  1.00  0.00     0.005 A 
HETATM   14  C11 LIG X 999      44.240 131.404  18.904  1.00  0.00     0.020 A 
ENDROOT
BRANCH   8  15
HETATM   15  O1  LIG X 999      44.978 131.190  22.336  1.00  0.00    -0.344 OA
HETATM   16  H4  LIG X 999      44.576 131.963  22.850  1.00  0.00     0.219 HD
ENDBRANCH   8  15
TORSDOF 1
