REMARK VINA RESULT:      -8.9      0.000      0.000
REMARK  4 active torsions:
REMARK  status: ('A' for Active; 'I' for Inactive)
REMARK    1  A    between atoms: C3_3  and  O1_4 
REMARK    2  A    between atoms: O1_4  and  C4_5 
REMARK    3  A    between atoms: C4_5  and  O2_6 
REMARK    4  A    between atoms: C5_8  and  C6_9 
ROOT
HETATM    1  C1  LIG X 999      44.297 130.642  22.350  1.00  0.00     0.014 C 
HETATM    2  C2  LIG X 999      44.428 131.306  21.352  1.00  0.00    -0.091 C 
HETATM    3  C3  LIG X 999      44.583 132.110  20.140  1.00  0.00     0.270 C 
ENDROOT
BRANCH   3   4
HETATM    4  O1  LIG X 999      44.086 131.377  19.029  1.00  0.00    -0.319 OA
BRANCH   4   5
HETATM    5  C4  LIG X 999      43.134 131.876  18.128  1.00  0.00     0.179 C 
HETATM    6  C5  LIG X 999      43.337 131.782  16.809  1.00  0.00     0.075 C 
BRANCH   5   7
HETATM    7  O2  LIG X 999      41.972 132.504  18.579  1.00  0.00    -0.341 OA
HETATM    8  H4  LIG X 999      41.875 133.510  18.612  1.00  0.00     0.220 HD
ENDBRANCH   5   7
BRANCH   6   9
HETATM    9  C6  LIG X 999      44.519 131.140  16.191  1.00  0.00    -0.031 A 
HETATM   10  C7  LIG X 999      45.175 130.116  16.891  1.00  0.00     0.012 A 
HETATM   11  C8  LIG X 999      46.304 129.495  16.352  1.00  0.00     0.013 A 
HETATM   12  C9  LIG X 999      46.808 129.901  15.108  1.00  0.00    -0.026 A 
HETATM   13  C10 LIG X 999      47.940 129.283  14.557  1.00  0.00     0.012 A 
HETATM   14  C14 LIG X 999      46.171 130.952  14.405  1.00  0.00    -0.025 A 
HETATM   15  C11 LIG X 999      48.438 129.704  13.321  1.00  0.00     0.001 A 
HETATM   16  C12 LIG X 999      47.812 130.744  12.627  1.00  0.00     0.001 A 
HETATM   17  C13 LIG X 999      46.683 131.367  13.166  1.00  0.00     0.012 A 
HETATM   18  C15 LIG X 999      45.038 131.570  14.955  1.00  0.00     0.024 A 
ENDBRANCH   6   9
ENDBRANCH   4   5
ENDBRANCH   3   4
TORSDOF 4
