REMARK VINA RESULT:      -6.0      4.630      6.957
REMARK  5 active torsions:
REMARK  status: ('A' for Active; 'I' for Inactive)
REMARK    1  A    between atoms: C3_3  and  O1_4 
REMARK    2  A    between atoms: O1_4  and  C4_5 
REMARK    3  A    between atoms: C5_6  and  C6_7 
REMARK    4  A    between atoms: C6_7  and  O2_8 
REMARK    5  A    between atoms: C10_13  and  N1_14 
ROOT
HETATM    1  C1  LIG X 999      45.726 126.849  23.753  1.00  0.00     0.014 C 
HETATM    2  C2  LIG X 999      44.982 127.763  24.005  1.00  0.00    -0.091 C 
HETATM    3  C3  LIG X 999      44.079 128.873  24.312  1.00  0.00     0.268 C 
ENDROOT
BRANCH   3   4
HETATM    4  O1  LIG X 999      44.616 130.075  23.770  1.00  0.00    -0.339 OA
BRANCH   4   5
HETATM    5  C4  LIG X 999      44.414 130.518  22.453  1.00  0.00     0.079 A 
HETATM    6  C5  LIG X 999      43.337 131.388  22.188  1.00  0.00    -0.001 A 
HETATM    7  C7  LIG X 999      43.095 131.822  20.875  1.00  0.00     0.024 A 
HETATM    8  C8  LIG X 999      43.931 131.421  19.825  1.00  0.00    -0.023 A 
HETATM    9  C9  LIG X 999      43.695 131.863  18.513  1.00  0.00     0.046 A 
HETATM   10  C13 LIG X 999      45.022 130.562  20.089  1.00  0.00    -0.023 A 
HETATM   11  C10 LIG X 999      44.539 131.457  17.463  1.00  0.00     0.094 A 
HETATM   12  C11 LIG X 999      45.617 130.607  17.735  1.00  0.00     0.035 A 
HETATM   13  C12 LIG X 999      45.859 130.161  19.037  1.00  0.00     0.014 A 
HETATM   14  C14 LIG X 999      45.256 130.116  21.397  1.00  0.00     0.049 A 
BRANCH   6  15
HETATM   15  C6  LIG X 999      42.407 131.813  23.295  1.00  0.00     0.205 C 
BRANCH  15  16
HETATM   16  O2  LIG X 999      41.667 130.713  23.751  1.00  0.00    -0.396 OA
HETATM   17  H6  LIG X 999      42.274 129.929  23.713  1.00  0.00     0.209 HD
ENDBRANCH  15  16
ENDBRANCH   6  15
BRANCH  11  18
HETATM   18  N1  LIG X 999      44.326 131.889  16.112  1.00  0.00    -0.073 NA
HETATM   19  N2  LIG X 999      45.133 131.655  15.210  1.00  0.00    -0.162 NA
HETATM   20  N3  LIG X 999      45.937 131.422  14.310  1.00  0.00     0.068 N 
ENDBRANCH  11  18
ENDBRANCH   4   5
ENDBRANCH   3   4
TORSDOF 5
