REMARK VINA RESULT:      -3.7      3.021      6.257
REMARK  4 active torsions:
REMARK  status: ('A' for Active; 'I' for Inactive)
REMARK    1  A    between atoms: C4_4  and  N1_5 
REMARK    2  A    between atoms: C7_10  and  S1_11 
REMARK    3  A    between atoms: S1_11  and  C8_12 
REMARK    4  A    between atoms: C8_12  and  C9_13 
ROOT
HETATM    1  N1  LIG X 999      42.492 130.066  23.775  1.00  0.00    -0.071 NA
HETATM    2  N2  LIG X 999      42.592 131.216  24.198  1.00  0.00    -0.162 NA
HETATM    3  N3  LIG X 999      42.683 132.373  24.608  1.00  0.00     0.068 N 
ENDROOT
BRANCH   1   4
HETATM    4  C4  LIG X 999      43.541 129.394  23.049  1.00  0.00     0.108 A 
HETATM    5  C3  LIG X 999      44.258 130.008  22.002  1.00  0.00     0.008 A 
HETATM    6  C2  LIG X 999      45.218 129.330  21.312  1.00  0.00    -0.021 A 
HETATM    7  C15 LIG X 999      44.175 131.401  21.483  1.00  0.00     0.278 C 
HETATM    8  C1  LIG X 999      45.566 128.024  21.630  1.00  0.00     0.018 A 
HETATM    9  C18 LIG X 999      45.819 130.186  20.266  1.00  0.00     0.276 C 
HETATM   10  C6  LIG X 999      44.944 127.389  22.724  1.00  0.00    -0.035 A 
HETATM   11  C5  LIG X 999      43.882 128.061  23.404  1.00  0.00    -0.018 A 
HETATM   12  C7  LIG X 999      45.338 125.962  23.074  1.00  0.00     0.081 C 
HETATM   13  C14 LIG X 999      43.156 127.404  24.560  1.00  0.00     0.042 C 
HETATM   14  C13 LIG X 999      43.354 125.888  24.625  1.00  0.00     0.006 C 
HETATM   15  C12 LIG X 999      44.828 125.538  24.457  1.00  0.00     0.020 C 
HETATM   16  N4  LIG X 999      45.359 131.568  20.587  1.00  0.00    -0.067 N 
HETATM   17  C16 LIG X 999      46.433 132.302  21.298  1.00  0.00     0.272 C 
HETATM   18  C17 LIG X 999      44.996 132.305  19.356  1.00  0.00     0.272 C 
BRANCH  12  19
HETATM   19  S1  LIG X 999      47.168 125.761  23.079  1.00  0.00    -0.147 SA
BRANCH  19  20
HETATM   20  C8  LIG X 999      47.206 123.985  22.666  1.00  0.00     0.168 C 
BRANCH  20  21
HETATM   21  C9  LIG X 999      48.065 123.752  21.502  1.00  0.00    -0.097 C 
HETATM   22  C10 LIG X 999      48.777 123.557  20.547  1.00  0.00    -0.110 C 
HETATM   23  C11 LIG X 999      49.639 123.320  19.389  1.00  0.00     0.112 C 
ENDBRANCH  20  21
ENDBRANCH  19  20
ENDBRANCH  12  19
ENDBRANCH   1   4
TORSDOF 4
