REMARK VINA RESULT:      -4.8      2.772      6.065
REMARK  4 active torsions:
REMARK  status: ('A' for Active; 'I' for Inactive)
REMARK    1  A    between atoms: C4_4  and  N1_5 
REMARK    2  A    between atoms: C7_10  and  S1_11 
REMARK    3  A    between atoms: S1_11  and  C8_12 
REMARK    4  A    between atoms: C8_12  and  C9_13 
ROOT
HETATM    1  N1  LIG X 999      41.288 127.445  24.625  1.00  0.00    -0.071 NA
HETATM    2  N2  LIG X 999      40.186 127.344  24.084  1.00  0.00    -0.162 NA
HETATM    3  N3  LIG X 999      39.079 127.250  23.555  1.00  0.00     0.068 N 
ENDROOT
BRANCH   1   4
HETATM    4  C4  LIG X 999      42.539 127.376  23.916  1.00  0.00     0.108 A 
HETATM    5  C3  LIG X 999      43.146 128.587  23.564  1.00  0.00     0.008 A 
HETATM    6  C2  LIG X 999      44.295 128.631  22.843  1.00  0.00    -0.021 A 
HETATM    7  C15 LIG X 999      42.664 129.961  23.843  1.00  0.00     0.278 C 
HETATM    8  C1  LIG X 999      44.958 127.474  22.464  1.00  0.00     0.018 A 
HETATM    9  C18 LIG X 999      44.697 130.027  22.570  1.00  0.00     0.276 C 
HETATM   10  C6  LIG X 999      44.448 126.224  22.862  1.00  0.00    -0.035 A 
HETATM   11  C5  LIG X 999      43.205 126.157  23.571  1.00  0.00    -0.018 A 
HETATM   12  C7  LIG X 999      45.267 124.983  22.568  1.00  0.00     0.081 C 
HETATM   13  C14 LIG X 999      42.555 124.813  23.851  1.00  0.00     0.042 C 
HETATM   14  C13 LIG X 999      43.468 123.598  23.653  1.00  0.00     0.006 C 
HETATM   15  C12 LIG X 999      44.357 123.760  22.421  1.00  0.00     0.020 C 
HETATM   16  N4  LIG X 999      43.591 130.880  23.109  1.00  0.00    -0.067 N 
HETATM   17  C16 LIG X 999      42.872 131.545  21.995  1.00  0.00     0.272 C 
HETATM   18  C17 LIG X 999      44.128 131.915  24.020  1.00  0.00     0.272 C 
BRANCH  12  19
HETATM   19  S1  LIG X 999      46.496 124.668  23.907  1.00  0.00    -0.147 SA
BRANCH  19  20
HETATM   20  C8  LIG X 999      47.082 123.020  23.385  1.00  0.00     0.168 C 
BRANCH  20  21
HETATM   21  C9  LIG X 999      47.807 123.139  22.119  1.00  0.00    -0.097 C 
HETATM   22  C10 LIG X 999      48.402 123.217  21.073  1.00  0.00    -0.110 C 
HETATM   23  C11 LIG X 999      49.122 123.293  19.803  1.00  0.00     0.112 C 
ENDBRANCH  20  21
ENDBRANCH  19  20
ENDBRANCH  12  19
ENDBRANCH   1   4
TORSDOF 4
