REMARK VINA RESULT:      -6.4      5.114      6.673
REMARK  3 active torsions:
REMARK  status: ('A' for Active; 'I' for Inactive)
REMARK    1  A    between atoms: C6_6  and  C7_7 
REMARK    2  A    between atoms: C7_7  and  C8_9 
REMARK    3  A    between atoms: C8_9  and  N1_10 
ROOT
HETATM    1  N1  LIG X 999      43.384 131.143  24.064  1.00  0.00    -0.108 NA
HETATM    2  N2  LIG X 999      43.114 129.942  24.027  1.00  0.00    -0.167 NA
HETATM    3  N3  LIG X 999      42.844 128.742  23.989  1.00  0.00     0.068 N 
ENDROOT
BRANCH   1   4
HETATM    4  C8  LIG X 999      44.248 131.750  23.058  1.00  0.00     0.272 C 
BRANCH   4   5
HETATM    5  C7  LIG X 999      43.553 131.856  21.723  1.00  0.00     0.181 C 
HETATM    6  O1  LIG X 999      42.388 132.338  21.676  1.00  0.00    -0.290 OA
BRANCH   5   7
HETATM    7  C6  LIG X 999      44.227 131.457  20.459  1.00  0.00     0.012 A 
HETATM    8  C5  LIG X 999      43.632 131.763  19.220  1.00  0.00     0.027 A 
HETATM    9  C4  LIG X 999      44.254 131.395  18.016  1.00  0.00    -0.025 A 
HETATM   10  C3  LIG X 999      43.658 131.696  16.782  1.00  0.00     0.012 A 
HETATM   11  C11 LIG X 999      45.494 130.714  18.046  1.00  0.00    -0.026 A 
HETATM   12  C2  LIG X 999      44.286 131.326  15.589  1.00  0.00     0.001 A 
HETATM   13  C1  LIG X 999      45.511 130.654  15.620  1.00  0.00     0.001 A 
HETATM   14  C12 LIG X 999      46.115 130.348  16.842  1.00  0.00     0.012 A 
HETATM   15  C10 LIG X 999      46.089 130.416  19.279  1.00  0.00     0.013 A 
HETATM   16  C9  LIG X 999      45.464 130.784  20.472  1.00  0.00     0.016 A 
ENDBRANCH   5   7
ENDBRANCH   4   5
ENDBRANCH   1   4
TORSDOF 3
