REMARK VINA RESULT:      -6.2      2.771      5.804
REMARK  1 active torsions:
REMARK  status: ('A' for Active; 'I' for Inactive)
REMARK    1  A    between atoms: C8_8  and  N1_9 
ROOT
HETATM    1  N1  LIG X 999      42.587 132.297  18.431  1.00  0.00    -0.072 NA
HETATM    2  N2  LIG X 999      42.388 132.431  19.640  1.00  0.00    -0.162 NA
HETATM    3  N3  LIG X 999      42.179 132.563  20.845  1.00  0.00     0.068 N 
ENDROOT
BRANCH   1   4
HETATM    4  C8  LIG X 999      43.737 131.618  17.905  1.00  0.00     0.104 A 
HETATM    5  C7  LIG X 999      44.657 131.060  18.836  1.00  0.00     0.038 A 
HETATM    6  C6  LIG X 999      45.839 130.418  18.408  1.00  0.00     0.035 A 
HETATM    7  C5  LIG X 999      46.084 130.336  17.040  1.00  0.00     0.073 A 
HETATM    8  C4  LIG X 999      45.182 130.850  16.154  1.00  0.00     0.021 A 
HETATM    9  N4  LIG X 999      47.185 129.707  16.377  1.00  0.00    -0.209 NA
HETATM   10  C3  LIG X 999      45.573 130.614  14.876  1.00  0.00     0.047 A 
HETATM   11  C9  LIG X 999      43.995 131.478  16.509  1.00  0.00     0.009 A 
HETATM   12  C2  LIG X 999      44.770 130.992  13.803  1.00  0.00     0.018 A 
HETATM   13  C11 LIG X 999      46.838 129.897  14.994  1.00  0.00     0.278 A 
HETATM   14  C1  LIG X 999      43.541 131.624  14.098  1.00  0.00     0.002 A 
HETATM   15  C10 LIG X 999      43.145 131.859  15.441  1.00  0.00     0.015 A 
HETATM   16  O1  LIG X 999      47.538 129.484  14.033  1.00  0.00    -0.265 OA
ENDBRANCH   1   4
TORSDOF 1
