REMARK VINA RESULT:      -7.1      2.265      8.287
REMARK  8 active torsions:
REMARK  status: ('A' for Active; 'I' for Inactive)
REMARK    1  A    between atoms: O1_2  and  C1_3 
REMARK    2  A    between atoms: C1_3  and  N1_4 
REMARK    3  A    between atoms: N1_4  and  C2_5 
REMARK    4  A    between atoms: C2_5  and  C3_6 
REMARK    5  A    between atoms: C3_6  and  C4_7 
REMARK    6  A    between atoms: C4_7  and  O2_8 
REMARK    7  A    between atoms: O2_8  and  C5_9 
REMARK    8  A    between atoms: C15_19  and  C16_20 
ROOT
HETATM    1  C4  LIG X 999      45.312 131.033  18.107  1.00  0.00     0.177 C 
ENDROOT
BRANCH   1   2
HETATM    2  C3  LIG X 999      45.340 131.884  16.826  1.00  0.00     0.048 C 
BRANCH   2   3
HETATM    3  C2  LIG X 999      44.315 131.429  15.781  1.00  0.00     0.154 C 
BRANCH   3   4
HETATM    4  N1  LIG X 999      44.978 130.660  14.738  1.00  0.00    -0.267 NA
BRANCH   4   5
HETATM    5  C1  LIG X 999      45.587 129.388  14.971  1.00  0.00     0.153 C 
HETATM    6  C15 LIG X 999      46.855 129.164  14.599  1.00  0.00     0.034 C 
BRANCH   5   7
HETATM    7  O1  LIG X 999      44.848 128.376  15.586  1.00  0.00    -0.345 OA
HETATM    8  H1  LIG X 999      44.598 127.522  15.100  1.00  0.00     0.219 HD
ENDBRANCH   5   7
BRANCH   6   9
HETATM    9  C16 LIG X 999      47.727 130.230  13.976  1.00  0.00     0.004 C 
HETATM   10  C17 LIG X 999      46.921 131.069  12.980  1.00  0.00     0.013 C 
HETATM   11  C18 LIG X 999      48.938 129.593  13.289  1.00  0.00     0.013 C 
ENDBRANCH   6   9
ENDBRANCH   4   5
ENDBRANCH   3   4
ENDBRANCH   2   3
ENDBRANCH   1   2
BRANCH   1  12
HETATM   12  O2  LIG X 999      45.157 131.829  19.284  1.00  0.00    -0.351 OA
BRANCH  12  13
HETATM   13  C5  LIG X 999      44.470 131.453  20.449  1.00  0.00     0.069 A 
HETATM   14  C6  LIG X 999      43.302 132.106  20.889  1.00  0.00     0.037 A 
HETATM   15  C7  LIG X 999      42.631 131.662  22.032  1.00  0.00     0.015 A 
HETATM   16  C8  LIG X 999      43.121 130.568  22.759  1.00  0.00    -0.026 A 
HETATM   17  C9  LIG X 999      42.442 130.100  23.893  1.00  0.00     0.012 A 
HETATM   18  C13 LIG X 999      44.309 129.925  22.338  1.00  0.00    -0.023 A 
HETATM   19  C10 LIG X 999      42.937 129.001  24.603  1.00  0.00     0.001 A 
HETATM   20  C11 LIG X 999      44.111 128.367  24.189  1.00  0.00     0.001 A 
HETATM   21  C12 LIG X 999      44.797 128.826  23.061  1.00  0.00     0.012 A 
HETATM   22  C14 LIG X 999      44.975 130.378  21.190  1.00  0.00     0.049 A 
ENDBRANCH  12  13
ENDBRANCH   1  12
TORSDOF 8
