MODEL 1
REMARK VINA RESULT:      -8.6      0.000      0.000
REMARK  3 active torsions:
REMARK  status: ('A' for Active; 'I' for Inactive)
REMARK    1  A    between atoms: C6_6  and  C7_7 
REMARK    2  A    between atoms: C8_8  and  C9_9 
REMARK    3  A    between atoms: C10_12  and  N1_13 
ROOT
HETATM    1  N1  LIG X 999      45.379 129.539  20.988  1.00  0.00    -0.105 NA
HETATM    2  N2  LIG X 999      45.024 129.082  22.075  1.00  0.00    -0.167 NA
HETATM    3  N3  LIG X 999      44.667 128.623  23.160  1.00  0.00     0.068 N 
ENDROOT
BRANCH   1   4
HETATM    4  C10 LIG X 999      45.400 130.978  20.744  1.00  0.00     0.179 C 
HETATM    5  C4  LIG X 999      44.854 131.244  19.357  1.00  0.00    -0.023 A 
HETATM    6  C3  LIG X 999      43.524 131.689  19.153  1.00  0.00    -0.050 A 
HETATM    7  C5  LIG X 999      45.662 130.952  18.244  1.00  0.00     0.030 A 
HETATM    8  C2  LIG X 999      43.051 131.869  17.843  1.00  0.00     0.009 A 
HETATM    9  C13 LIG X 999      42.634 132.088  20.306  1.00  0.00     0.039 C 
HETATM   10  C1  LIG X 999      43.866 131.584  16.746  1.00  0.00     0.021 A 
HETATM   11  C6  LIG X 999      45.172 131.124  16.944  1.00  0.00     0.018 A 
HETATM   12  C12 LIG X 999      43.099 131.505  21.643  1.00  0.00     0.007 C 
HETATM   13  C11 LIG X 999      44.600 131.725  21.828  1.00  0.00     0.035 C 
BRANCH  11  14
HETATM   14  C7  LIG X 999      46.010 130.825  15.813  1.00  0.00    -0.056 C 
HETATM   15  C8  LIG X 999      46.712 130.575  14.866  1.00  0.00     0.010 C 
BRANCH  15  16
HETATM   16  C9  LIG X 999      47.547 130.277  13.737  1.00  0.00     0.258 C 
HETATM   17  O1  LIG X 999      48.270 129.247  13.743  1.00  0.00    -0.637 OA
HETATM   18  O2  LIG X 999      47.557 131.126  12.640  1.00  0.00    -0.637 OA
ENDBRANCH  15  16
ENDBRANCH  11  14
ENDBRANCH   1   4
TORSDOF 3
ENDMDL
