MODEL 1
REMARK VINA RESULT:      -8.2      0.000      0.000
REMARK  3 active torsions:
REMARK  status: ('A' for Active; 'I' for Inactive)
REMARK    1  A    between atoms: C7_9  and  C8_10 
REMARK    2  A    between atoms: C9_13  and  N4_14 
REMARK    3  A    between atoms: N7_23  and  C14_24 
ROOT
HETATM    1  N4  LIG X 999      46.483 129.756  14.072  1.00  0.00    -0.023 NA
HETATM    2  N5  LIG X 999      47.666 129.631  13.757  1.00  0.00    -0.158 NA
HETATM    3  N6  LIG X 999      48.849 129.505  13.442  1.00  0.00     0.068 N 
ENDROOT
BRANCH   1   4
HETATM    4  C9  LIG X 999      46.113 130.495  15.234  1.00  0.00     0.326 A 
HETATM    5  N3  LIG X 999      45.979 131.831  15.256  1.00  0.00    -0.099 NA
HETATM    6  N2  LIG X 999      45.629 132.138  16.496  1.00  0.00    -0.119 NA
HETATM    7  C8  LIG X 999      45.573 130.976  17.179  1.00  0.00     0.205 A 
HETATM    8  O1  LIG X 999      45.861 129.958  16.404  1.00  0.00    -0.252 OA
BRANCH   7   9
HETATM    9  C7  LIG X 999      45.179 130.873  18.599  1.00  0.00     0.032 A 
HETATM   10  C6  LIG X 999      43.982 131.455  19.121  1.00  0.00     0.020 A 
HETATM   11  C1  LIG X 999      42.850 132.103  18.382  1.00  0.00     0.060 A 
HETATM   12  C5  LIG X 999      43.808 131.377  20.490  1.00  0.00     0.019 A 
HETATM   13  N1  LIG X 999      42.780 132.067  17.090  1.00  0.00    -0.299 NA
HETATM   14  C2  LIG X 999      41.725 132.713  19.173  1.00  0.00     0.034 A 
HETATM   15  H1  LIG X 999      41.978 132.484  16.566  1.00  0.00     0.187 HD
HETATM   16  C3  LIG X 999      41.680 132.610  20.517  1.00  0.00     0.033 A 
HETATM   17  C4  LIG X 999      42.765 131.887  21.198  1.00  0.00     0.048 A 
HETATM   18  N7  LIG X 999      42.936 131.617  22.517  1.00  0.00    -0.324 N 
HETATM   19  C13 LIG X 999      44.114 130.940  22.608  1.00  0.00     0.193 A 
HETATM   20  C12 LIG X 999      44.668 130.775  21.350  1.00  0.00     0.032 A 
HETATM   21  O2  LIG X 999      44.670 130.492  23.801  1.00  0.00    -0.171 OA
HETATM   22  C11 LIG X 999      45.825 130.163  20.885  1.00  0.00     0.018 A 
HETATM   23  C10 LIG X 999      46.076 130.212  19.495  1.00  0.00     0.018 A 
BRANCH  18  24
HETATM   24  C14 LIG X 999      42.080 132.041  23.625  1.00  0.00     0.127 C 
HETATM   25  C15 LIG X 999      42.881 132.865  24.625  1.00  0.00     0.027 C 
ENDBRANCH  18  24
ENDBRANCH   7   9
ENDBRANCH   1   4
TORSDOF 3
ENDMDL
MODEL 2
REMARK VINA RESULT:      -7.3      1.626      2.880
REMARK  3 active torsions:
REMARK  status: ('A' for Active; 'I' for Inactive)
REMARK    1  A    between atoms: C7_9  and  C8_10 
REMARK    2  A    between atoms: C9_13  and  N4_14 
REMARK    3  A    between atoms: N7_23  and  C14_24 
ROOT
HETATM    1  N4  LIG X 999      46.871 131.369  13.899  1.00  0.00    -0.023 NA
HETATM    2  N5  LIG X 999      47.640 130.444  13.641  1.00  0.00    -0.158 NA
HETATM    3  N6  LIG X 999      48.408 129.519  13.383  1.00  0.00     0.068 N 
ENDROOT
BRANCH   1   4
HETATM    4  C9  LIG X 999      45.746 131.166  14.752  1.00  0.00     0.326 A 
HETATM    5  N3  LIG X 999      44.762 130.290  14.490  1.00  0.00    -0.099 NA
HETATM    6  N2  LIG X 999      43.912 130.390  15.502  1.00  0.00    -0.119 NA
HETATM    7  C8  LIG X 999      44.411 131.328  16.332  1.00  0.00     0.205 A 
HETATM    8  O1  LIG X 999      45.547 131.803  15.880  1.00  0.00    -0.252 OA
BRANCH   7   9
HETATM    9  C7  LIG X 999      43.782 131.716  17.611  1.00  0.00     0.032 A 
HETATM   10  C6  LIG X 999      44.314 131.350  18.886  1.00  0.00     0.020 A 
HETATM   11  C1  LIG X 999      45.623 130.691  19.206  1.00  0.00     0.060 A 
HETATM   12  C5  LIG X 999      43.551 131.682  19.989  1.00  0.00     0.019 A 
HETATM   13  N1  LIG X 999      46.525 130.505  18.296  1.00  0.00    -0.299 NA
HETATM   14  C2  LIG X 999      45.924 130.337  20.637  1.00  0.00     0.034 A 
HETATM   15  H1  LIG X 999      47.453 130.079  18.514  1.00  0.00     0.187 HD
HETATM   16  C3  LIG X 999      45.081 130.678  21.633  1.00  0.00     0.033 A 
HETATM   17  C4  LIG X 999      43.849 131.405  21.287  1.00  0.00     0.048 A 
HETATM   18  N7  LIG X 999      42.868 131.886  22.091  1.00  0.00    -0.324 N 
HETATM   19  C13 LIG X 999      41.951 132.455  21.260  1.00  0.00     0.193 A 
HETATM   20  C12 LIG X 999      42.367 132.343  19.944  1.00  0.00     0.032 A 
HETATM   21  O2  LIG X 999      40.770 133.051  21.687  1.00  0.00    -0.171 OA
HETATM   22  C11 LIG X 999      41.828 132.753  18.731  1.00  0.00     0.018 A 
HETATM   23  C10 LIG X 999      42.548 132.437  17.557  1.00  0.00     0.018 A 
BRANCH  18  24
HETATM   24  C14 LIG X 999      42.766 131.745  23.543  1.00  0.00     0.127 C 
HETATM   25  C15 LIG X 999      42.369 130.321  23.910  1.00  0.00     0.027 C 
ENDBRANCH  18  24
ENDBRANCH   7   9
ENDBRANCH   1   4
TORSDOF 3
ENDMDL
MODEL 3
REMARK VINA RESULT:      -5.5      7.220      8.286
REMARK  3 active torsions:
REMARK  status: ('A' for Active; 'I' for Inactive)
REMARK    1  A    between atoms: C7_9  and  C8_10 
REMARK    2  A    between atoms: C9_13  and  N4_14 
REMARK    3  A    between atoms: N7_23  and  C14_24 
ROOT
HETATM    1  N4  LIG X 999      50.173 123.947  20.636  1.00  0.00    -0.023 NA
HETATM    2  N5  LIG X 999      50.335 123.790  19.426  1.00  0.00    -0.158 NA
HETATM    3  N6  LIG X 999      50.495 123.635  18.217  1.00  0.00     0.068 N 
ENDROOT
BRANCH   1   4
HETATM    4  C9  LIG X 999      48.972 123.516  21.273  1.00  0.00     0.326 A 
HETATM    5  N3  LIG X 999      48.919 122.503  22.154  1.00  0.00    -0.099 NA
HETATM    6  N2  LIG X 999      47.649 122.408  22.518  1.00  0.00    -0.119 NA
HETATM    7  C8  LIG X 999      46.981 123.363  21.837  1.00  0.00     0.205 A 
HETATM    8  O1  LIG X 999      47.794 124.055  21.075  1.00  0.00    -0.252 OA
BRANCH   7   9
HETATM    9  C7  LIG X 999      45.535 123.622  21.986  1.00  0.00     0.032 A 
HETATM   10  C6  LIG X 999      45.012 124.726  22.729  1.00  0.00     0.020 A 
HETATM   11  C1  LIG X 999      45.747 125.885  23.335  1.00  0.00     0.060 A 
HETATM   12  C5  LIG X 999      43.639 124.771  22.880  1.00  0.00     0.019 A 
HETATM   13  N1  LIG X 999      47.005 126.083  23.104  1.00  0.00    -0.299 NA
HETATM   14  C2  LIG X 999      44.971 126.890  24.143  1.00  0.00     0.034 A 
HETATM   15  H1  LIG X 999      47.518 126.905  23.492  1.00  0.00     0.187 HD
HETATM   16  C3  LIG X 999      43.629 126.810  24.255  1.00  0.00     0.033 A 
HETATM   17  C4  LIG X 999      42.935 125.708  23.569  1.00  0.00     0.048 A 
HETATM   18  N7  LIG X 999      41.611 125.427  23.496  1.00  0.00    -0.324 N 
HETATM   19  C13 LIG X 999      41.513 124.288  22.757  1.00  0.00     0.193 A 
HETATM   20  C12 LIG X 999      42.771 123.869  22.357  1.00  0.00     0.032 A 
HETATM   21  O2  LIG X 999      40.316 123.645  22.461  1.00  0.00    -0.171 OA
HETATM   22  C11 LIG X 999      43.229 122.800  21.596  1.00  0.00     0.018 A 
HETATM   23  C10 LIG X 999      44.624 122.683  21.409  1.00  0.00     0.018 A 
BRANCH  18  24
HETATM   24  C14 LIG X 999      40.516 126.144  24.150  1.00  0.00     0.127 C 
HETATM   25  C15 LIG X 999      40.209 127.434  23.400  1.00  0.00     0.027 C 
ENDBRANCH  18  24
ENDBRANCH   7   9
ENDBRANCH   1   4
TORSDOF 3
ENDMDL
MODEL 4
REMARK VINA RESULT:      -5.3      7.275     10.706
REMARK  3 active torsions:
REMARK  status: ('A' for Active; 'I' for Inactive)
REMARK    1  A    between atoms: C7_9  and  C8_10 
REMARK    2  A    between atoms: C9_13  and  N4_14 
REMARK    3  A    between atoms: N7_23  and  C14_24 
ROOT
HETATM    1  N4  LIG X 999      45.117 127.529  24.240  1.00  0.00    -0.023 NA
HETATM    2  N5  LIG X 999      44.866 128.385  23.393  1.00  0.00    -0.158 NA
HETATM    3  N6  LIG X 999      44.615 129.240  22.545  1.00  0.00     0.068 N 
ENDROOT
BRANCH   1   4
HETATM    4  C9  LIG X 999      45.882 126.373  23.905  1.00  0.00     0.326 A 
HETATM    5  N3  LIG X 999      45.788 125.203  24.558  1.00  0.00    -0.099 NA
HETATM    6  N2  LIG X 999      46.644 124.387  23.960  1.00  0.00    -0.119 NA
HETATM    7  C8  LIG X 999      47.228 125.097  22.974  1.00  0.00     0.205 A 
HETATM    8  O1  LIG X 999      46.756 126.320  22.929  1.00  0.00    -0.252 OA
BRANCH   7   9
HETATM    9  C7  LIG X 999      48.225 124.541  22.037  1.00  0.00     0.032 A 
HETATM   10  C6  LIG X 999      49.598 124.940  22.030  1.00  0.00     0.020 A 
HETATM   11  C1  LIG X 999      50.330 125.814  23.006  1.00  0.00     0.060 A 
HETATM   12  C5  LIG X 999      50.384 124.422  21.018  1.00  0.00     0.019 A 
HETATM   13  N1  LIG X 999      49.776 126.205  24.109  1.00  0.00    -0.299 NA
HETATM   14  C2  LIG X 999      51.771 126.151  22.735  1.00  0.00     0.034 A 
HETATM   15  H1  LIG X 999      50.287 126.784  24.811  1.00  0.00     0.187 HD
HETATM   16  C3  LIG X 999      52.429 125.614  21.687  1.00  0.00     0.033 A 
HETATM   17  C4  LIG X 999      51.700 124.689  20.804  1.00  0.00     0.048 A 
HETATM   18  N7  LIG X 999      52.133 124.000  19.719  1.00  0.00    -0.324 N 
HETATM   19  C13 LIG X 999      51.052 123.310  19.261  1.00  0.00     0.193 A 
HETATM   20  C12 LIG X 999      49.953 123.557  20.066  1.00  0.00     0.032 A 
HETATM   21  O2  LIG X 999      51.065 122.488  18.140  1.00  0.00    -0.171 OA
HETATM   22  C11 LIG X 999      48.637 123.111  20.054  1.00  0.00     0.018 A 
HETATM   23  C10 LIG X 999      47.771 123.608  21.053  1.00  0.00     0.018 A 
BRANCH  18  24
HETATM   24  C14 LIG X 999      53.462 124.052  19.111  1.00  0.00     0.127 C 
HETATM   25  C15 LIG X 999      53.396 124.746  17.756  1.00  0.00     0.027 C 
ENDBRANCH  18  24
ENDBRANCH   7   9
ENDBRANCH   1   4
TORSDOF 3
ENDMDL
