REMARK VINA RESULT:      -6.1      2.286      4.786
REMARK  1 active torsions:
REMARK  status: ('A' for Active; 'I' for Inactive)
REMARK    1  A    between atoms: N1_2  and  C1_3 
ROOT
HETATM    1  C1  LIG X 999      44.590 131.448  15.436  1.00  0.00     0.143 C 
HETATM    2  N2  LIG X 999      43.454 131.866  16.047  1.00  0.00    -0.229 NA
HETATM    3  C2  LIG X 999      43.292 131.807  17.394  1.00  0.00     0.070 C 
HETATM    4  C3  LIG X 999      42.065 132.196  17.930  1.00  0.00     0.033 C 
HETATM    5  C4  LIG X 999      41.846 132.147  19.300  1.00  0.00     0.014 C 
HETATM    6  C5  LIG X 999      42.888 131.813  20.169  1.00  0.00    -0.025 C 
HETATM    7  C6  LIG X 999      42.669 131.874  21.555  1.00  0.00     0.012 C 
HETATM    8  C7  LIG X 999      43.723 131.678  22.442  1.00  0.00     0.001 C 
HETATM    9  C8  LIG X 999      45.008 131.459  21.956  1.00  0.00     0.001 C 
HETATM   10  C9  LIG X 999      45.238 131.381  20.580  1.00  0.00     0.013 C 
HETATM   11  C10 LIG X 999      44.172 131.470  19.654  1.00  0.00    -0.013 C 
HETATM   12  C11 LIG X 999      44.342 131.339  18.234  1.00  0.00     0.010 C 
HETATM   13  C12 LIG X 999      45.469 130.740  17.582  1.00  0.00    -0.045 C 
HETATM   14  C13 LIG X 999      46.467 129.837  18.265  1.00  0.00     0.049 C 
HETATM   15  C14 LIG X 999      45.605 130.868  16.190  1.00  0.00     0.059 C 
ENDROOT
BRANCH   1  16
HETATM   16  N1  LIG X 999      44.711 131.548  14.152  1.00  0.00    -0.282 NA
HETATM   17  H1  LIG X 999      45.261 130.854  13.598  1.00  0.00     0.188 HD
ENDBRANCH   1  16
TORSDOF 1
