REMARK VINA RESULT:      -8.1      0.889      1.252
REMARK  1 active torsions:
REMARK  status: ('A' for Active; 'I' for Inactive)
REMARK    1  A    between atoms: C2_2  and  N1_3 
ROOT
HETATM    1  N1  LIG X 999      42.668 132.183  20.942  1.00  0.00    -0.073 NA
HETATM    2  N2  LIG X 999      42.840 132.014  22.150  1.00  0.00    -0.162 NA
HETATM    3  N3  LIG X 999      43.009 131.846  23.356  1.00  0.00     0.068 N 
ENDROOT
BRANCH   1   4
HETATM    4  C2  LIG X 999      43.595 131.699  19.961  1.00  0.00     0.094 A 
HETATM    5  C1  LIG X 999      44.777 131.028  20.326  1.00  0.00     0.035 A 
HETATM    6  C11 LIG X 999      45.661 130.567  19.346  1.00  0.00     0.014 A 
HETATM    7  C10 LIG X 999      45.377 130.769  17.989  1.00  0.00    -0.024 A 
HETATM    8  C4  LIG X 999      44.191 131.443  17.614  1.00  0.00    -0.024 A 
HETATM    9  C9  LIG X 999      46.259 130.310  16.997  1.00  0.00     0.034 A 
HETATM   10  C3  LIG X 999      43.309 131.903  18.604  1.00  0.00     0.046 A 
HETATM   11  C5  LIG X 999      43.907 131.646  16.254  1.00  0.00     0.014 A 
HETATM   12  C6  LIG X 999      44.792 131.185  15.275  1.00  0.00     0.023 A 
HETATM   13  C7  LIG X 999      45.966 130.518  15.643  1.00  0.00     0.045 A 
HETATM   14  C8  LIG X 999      46.872 130.046  14.629  1.00  0.00     0.099 C 
HETATM   15  N4  LIG X 999      47.601 129.666  13.814  1.00  0.00    -0.191 NA
ENDBRANCH   1   4
TORSDOF 1
