REMARK VINA RESULT:      -7.3      2.864      3.302
REMARK  3 active torsions:
REMARK  status: ('A' for Active; 'I' for Inactive)
REMARK    1  A    between atoms: C1_1  and  C2_6 
REMARK    2  A    between atoms: N1_2  and  N2_3 
REMARK    3  A    between atoms: C2_6  and  C3_8 
ROOT
HETATM    1  C3  LIG X 999      44.630 131.316  18.715  1.00  0.00     0.016 A 
HETATM    2  C4  LIG X 999      43.546 131.816  17.972  1.00  0.00     0.016 A 
HETATM    3  C5  LIG X 999      43.552 131.760  16.576  1.00  0.00     0.013 A 
HETATM    4  C6  LIG X 999      44.649 131.214  15.896  1.00  0.00    -0.026 A 
HETATM    5  C7  LIG X 999      44.664 131.154  14.494  1.00  0.00     0.012 A 
HETATM    6  C8  LIG X 999      45.768 130.613  13.828  1.00  0.00     0.001 A 
HETATM    7  C9  LIG X 999      46.861 130.131  14.554  1.00  0.00     0.001 A 
HETATM    8  C10 LIG X 999      46.858 130.186  15.950  1.00  0.00     0.012 A 
HETATM    9  C11 LIG X 999      45.755 130.724  16.632  1.00  0.00    -0.025 A 
HETATM   10  C12 LIG X 999      45.739 130.784  18.034  1.00  0.00     0.028 A 
ENDROOT
BRANCH   1  11
HETATM   11  C2  LIG X 999      44.605 131.399  20.196  1.00  0.00     0.201 C 
HETATM   12  O1  LIG X 999      43.511 131.232  20.800  1.00  0.00    -0.286 OA
BRANCH  11  13
HETATM   13  C1  LIG X 999      45.813 131.651  21.002  1.00  0.00     0.195 C 
HETATM   14  N1  LIG X 999      46.334 132.838  21.075  1.00  0.00    -0.164 NA
BRANCH  14  15
HETATM   15  N2  LIG X 999      47.503 133.136  21.801  1.00  0.00    -0.177 N 
HETATM   16  H2  LIG X 999      48.042 132.356  22.234  1.00  0.00     0.214 HD
HETATM   17  N3  LIG X 999      47.922 134.329  21.935  1.00  0.00    -0.031 N 
ENDBRANCH  14  15
ENDBRANCH  11  13
ENDBRANCH   1  11
TORSDOF 3
