REMARK VINA RESULT:      -6.7      2.118      6.003
REMARK  2 active torsions:
REMARK  status: ('A' for Active; 'I' for Inactive)
REMARK    1  A    between atoms: C8_9  and  N2_10 
REMARK    2  A    between atoms: C14_16  and  O1_17 
ROOT
HETATM    1  C1  LIG X 999      43.350 132.455  24.599  1.00  0.00     0.287 C 
HETATM    2  N1  LIG X 999      42.979 131.384  23.656  1.00  0.00    -0.002 N 
HETATM    3  C2  LIG X 999      42.077 130.391  24.267  1.00  0.00     0.287 C 
HETATM    4  C3  LIG X 999      42.385 131.942  22.462  1.00  0.00     0.222 A 
HETATM    5  C4  LIG X 999      43.115 131.664  21.393  1.00  0.00     0.003 A 
HETATM    6  C5  LIG X 999      42.892 132.014  20.062  1.00  0.00     0.026 A 
HETATM    7  C6  LIG X 999      43.831 131.590  19.097  1.00  0.00    -0.023 A 
HETATM    8  C7  LIG X 999      43.656 131.915  17.745  1.00  0.00     0.041 A 
HETATM    9  C8  LIG X 999      44.590 131.492  16.787  1.00  0.00     0.026 A 
HETATM   10  C9  LIG X 999      45.705 130.740  17.186  1.00  0.00     0.030 A 
HETATM   11  C10 LIG X 999      45.894 130.407  18.530  1.00  0.00     0.014 A 
HETATM   12  C11 LIG X 999      44.969 130.823  19.497  1.00  0.00    -0.025 A 
HETATM   13  C12 LIG X 999      45.155 130.490  20.855  1.00  0.00     0.029 A 
HETATM   14  C13 LIG X 999      44.203 130.930  21.774  1.00  0.00     0.035 A 
HETATM   15  C14 LIG X 999      44.147 130.754  23.084  1.00  0.00     0.257 A 
ENDROOT
BRANCH   9  16
HETATM   16  N2  LIG X 999      44.406 131.827  15.409  1.00  0.00    -0.399 N 
HETATM   17  H10 LIG X 999      44.886 131.282  14.658  1.00  0.00     0.156 HD
HETATM   18  H11 LIG X 999      43.788 132.621  15.129  1.00  0.00     0.156 HD
ENDBRANCH   9  16
BRANCH  15  19
HETATM   19  O1  LIG X 999      45.099 130.049  23.818  1.00  0.00    -0.340 OA
HETATM   20  H15 LIG X 999      44.868 129.638  24.714  1.00  0.00     0.219 HD
ENDBRANCH  15  19
TORSDOF 2
