REMARK VINA RESULT:      -7.6      0.000      0.000
REMARK  6 active torsions:
REMARK  status: ('A' for Active; 'I' for Inactive)
REMARK    1  A    between atoms: S1_2  and  C1_3 
REMARK    2  A    between atoms: C1_3  and  N2_15 
REMARK    3  A    between atoms: N1_4  and  C2_5 
REMARK    4  A    between atoms: N2_15  and  C12_17 
REMARK    5  A    between atoms: C12_17  and  C13_18 
REMARK    6  A    between atoms: C13_18  and  C14_19 
ROOT
HETATM    1  C2  LIG X 999      44.795 131.121  16.858  1.00  0.00     0.060 A 
HETATM    2  C3  LIG X 999      45.296 129.861  17.204  1.00  0.00     0.032 A 
HETATM    3  C4  LIG X 999      46.278 129.248  16.423  1.00  0.00     0.014 A 
HETATM    4  C5  LIG X 999      46.757 129.881  15.267  1.00  0.00    -0.026 A 
HETATM    5  C6  LIG X 999      47.744 129.275  14.474  1.00  0.00     0.012 A 
HETATM    6  C7  LIG X 999      48.204 129.913  13.318  1.00  0.00     0.001 A 
HETATM    7  C8  LIG X 999      47.683 131.154  12.944  1.00  0.00     0.001 A 
HETATM    8  C9  LIG X 999      46.699 131.767  13.725  1.00  0.00     0.012 A 
HETATM    9  C10 LIG X 999      46.231 131.141  14.890  1.00  0.00    -0.024 A 
HETATM   10  C11 LIG X 999      45.243 131.746  15.682  1.00  0.00     0.044 A 
ENDROOT
BRANCH   1  11
HETATM   11  N1  LIG X 999      43.752 131.697  17.660  1.00  0.00    -0.225 NA
HETATM   12  C1  LIG X 999      43.746 131.826  18.956  1.00  0.00     0.160 C 
BRANCH  12  13
HETATM   13  S1  LIG X 999      42.363 132.692  19.699  1.00  0.00    -0.105 SA
HETATM   14  H1  LIG X 999      43.184 133.264  20.689  1.00  0.00     0.110 HD
ENDBRANCH  12  13
BRANCH  12  15
HETATM   15  N2  LIG X 999      44.763 131.224  19.780  1.00  0.00    -0.369 N 
HETATM   16  H9  LIG X 999      45.377 130.481  19.380  1.00  0.00     0.161 HD
BRANCH  15  17
HETATM   17  C12 LIG X 999      44.873 131.469  21.217  1.00  0.00     0.122 C 
BRANCH  17  18
HETATM   18  C13 LIG X 999      44.584 130.180  21.996  1.00  0.00     0.030 C 
BRANCH  18  19
HETATM   19  C14 LIG X 999      43.186 130.183  22.619  1.00  0.00     0.088 C 
HETATM   20  S2  LIG X 999      42.870 131.701  23.501  1.00  0.00    -0.098 SA
ENDBRANCH  18  19
ENDBRANCH  17  18
ENDBRANCH  15  17
ENDBRANCH  12  15
ENDBRANCH   1  11
TORSDOF 6
