REMARK VINA RESULT:      -7.0      0.000      0.000
REMARK  2 active torsions:
REMARK  status: ('A' for Active; 'I' for Inactive)
REMARK    1  A    between atoms: C9_10  and  N2_11 
REMARK       I    between atoms: N2_11  and  C10_12 
REMARK    2  A    between atoms: C10_12  and  C11_14 
ROOT
HETATM    1  C11 LIG X 999      46.886 130.649  13.327  1.00  0.00     0.282 C 
HETATM    2 CL1  LIG X 999      48.013 131.992  13.015  1.00  0.00    -0.099 Cl
HETATM    3  C12 LIG X 999      47.630 129.498  13.850  1.00  0.00     0.089 C 
HETATM    4  N3  LIG X 999      48.217 128.590  14.264  1.00  0.00    -0.195 NA
ENDROOT
BRANCH   1   5
HETATM    5  C10 LIG X 999      45.842 131.077  14.310  1.00  0.00     0.276 C 
HETATM    6  N2  LIG X 999      46.185 131.224  15.696  1.00  0.00    -0.212 NA
HETATM    7  O1  LIG X 999      44.684 131.362  13.901  1.00  0.00    -0.268 OA
BRANCH   6   8
HETATM    8  C9  LIG X 999      45.272 131.377  16.791  1.00  0.00     0.061 A 
HETATM    9  C8  LIG X 999      43.930 131.755  16.594  1.00  0.00     0.032 A 
HETATM   10  C7  LIG X 999      43.059 131.874  17.681  1.00  0.00     0.014 A 
HETATM   11  C6  LIG X 999      43.510 131.605  18.979  1.00  0.00    -0.025 A 
HETATM   12  C5  LIG X 999      42.638 131.719  20.080  1.00  0.00     0.021 A 
HETATM   13  C14 LIG X 999      44.859 131.198  19.184  1.00  0.00    -0.023 A 
HETATM   14  C4  LIG X 999      43.132 131.437  21.355  1.00  0.00    -0.024 A 
HETATM   15  C3  LIG X 999      42.399 131.469  22.639  1.00  0.00     0.276 C 
HETATM   16  C16 LIG X 999      44.422 131.048  21.551  1.00  0.00    -0.024 A 
HETATM   17  N1  LIG X 999      43.427 131.210  23.697  1.00  0.00    -0.067 N 
HETATM   18  C1  LIG X 999      42.967 130.152  24.625  1.00  0.00     0.272 C 
HETATM   19  C2  LIG X 999      43.683 132.449  24.468  1.00  0.00     0.272 C 
HETATM   20  C17 LIG X 999      44.673 130.784  22.983  1.00  0.00     0.276 C 
HETATM   21  C15 LIG X 999      45.315 130.914  20.485  1.00  0.00     0.021 A 
HETATM   22  C13 LIG X 999      45.721 131.082  18.084  1.00  0.00     0.044 A 
ENDBRANCH   6   8
ENDBRANCH   1   5
TORSDOF 2
