REMARK VINA RESULT:      -5.7      2.489      3.942
REMARK  6 active torsions:
REMARK  status: ('A' for Active; 'I' for Inactive)
REMARK    1  A    between atoms: S1_2  and  C1_3 
REMARK    2  A    between atoms: C1_3  and  N2_15 
REMARK    3  A    between atoms: N1_4  and  C2_5 
REMARK    4  A    between atoms: N2_15  and  C12_18 
REMARK    5  A    between atoms: C13_19  and  C14_20 
REMARK    6  A    between atoms: C14_20  and  O2_22 
ROOT
HETATM    1  C1  LIG X 999      43.057 132.173  19.745  1.00  0.00     0.266 C 
HETATM    2  N1  LIG X 999      43.036 132.002  18.453  1.00  0.00    -0.219 NA
ENDROOT
BRANCH   1   3
HETATM    3  S1  LIG X 999      41.630 132.927  20.523  1.00  0.00    -0.098 SA
HETATM    4  H1  LIG X 999      42.439 133.661  21.410  1.00  0.00     0.110 HD
ENDBRANCH   1   3
BRANCH   1   5
HETATM    5  N2  LIG X 999      44.167 131.739  20.562  1.00  0.00     0.010 N 
HETATM    6  H9  LIG X 999      44.828 132.537  20.703  1.00  0.00     0.293 HD
HETATM    7  H10 LIG X 999      44.680 130.994  20.049  1.00  0.00     0.293 HD
BRANCH   5   8
HETATM    8  C12 LIG X 999      43.707 131.310  21.864  1.00  0.00     0.164 A 
HETATM    9  C13 LIG X 999      44.036 130.087  22.476  1.00  0.00     0.114 A 
HETATM   10  S2  LIG X 999      43.199 130.002  23.933  1.00  0.00    -0.094 SA
HETATM   11  C16 LIG X 999      42.451 131.500  23.836  1.00  0.00     0.053 A 
HETATM   12  C17 LIG X 999      42.840 132.099  22.647  1.00  0.00     0.046 A 
BRANCH   9  13
HETATM   13  C14 LIG X 999      44.957 129.028  22.024  1.00  0.00     0.302 C 
HETATM   14  O1  LIG X 999      45.770 129.235  21.083  1.00  0.00    -0.259 OA
BRANCH  13  15
HETATM   15  O2  LIG X 999      44.950 127.798  22.687  1.00  0.00    -0.322 OA
HETATM   16  C15 LIG X 999      45.618 126.648  22.181  1.00  0.00     0.213 C 
ENDBRANCH  13  15
ENDBRANCH   9  13
ENDBRANCH   5   8
ENDBRANCH   1   5
BRANCH   2  17
HETATM   17  C2  LIG X 999      44.107 131.450  17.680  1.00  0.00     0.060 A 
HETATM   18  C3  LIG X 999      45.076 130.658  18.306  1.00  0.00     0.032 A 
HETATM   19  C4  LIG X 999      46.133 130.119  17.568  1.00  0.00     0.014 A 
HETATM   20  C5  LIG X 999      46.215 130.347  16.187  1.00  0.00    -0.026 A 
HETATM   21  C6  LIG X 999      47.271 129.810  15.434  1.00  0.00     0.012 A 
HETATM   22  C10 LIG X 999      45.220 131.123  15.543  1.00  0.00    -0.024 A 
HETATM   23  C7  LIG X 999      47.334 130.033  14.055  1.00  0.00     0.001 A 
HETATM   24  C8  LIG X 999      46.348 130.793  13.420  1.00  0.00     0.001 A 
HETATM   25  C9  LIG X 999      45.295 131.340  14.159  1.00  0.00     0.012 A 
HETATM   26  C11 LIG X 999      44.171 131.669  16.296  1.00  0.00     0.044 A 
ENDBRANCH   2  17
TORSDOF 6
