REMARK VINA RESULT:      -5.4      0.000      0.000
REMARK  5 active torsions:
REMARK  status: ('A' for Active; 'I' for Inactive)
REMARK    1  A    between atoms: C3_3  and  N1_4 
REMARK    2  A    between atoms: N1_4  and  C6_7 
REMARK    3  A    between atoms: C6_7  and  C7_8 
REMARK    4  A    between atoms: C9_10  and  C10_11 
REMARK    5  A    between atoms: C11_14  and  N4_15 
ROOT
HETATM    1  C1  LIG X 999      46.839 131.387  14.330  1.00  0.00     0.013 C 
HETATM    2  C2  LIG X 999      46.231 131.727  15.314  1.00  0.00    -0.089 C 
HETATM    3  C3  LIG X 999      45.489 132.145  16.520  1.00  0.00     0.329 C 
ENDROOT
BRANCH   3   4
HETATM    4  N1  LIG X 999      44.782 131.019  17.204  1.00  0.00    -0.061 N 
HETATM    5  C4  LIG X 999      45.750 130.250  18.029  1.00  0.00     0.273 C 
HETATM    6  C5  LIG X 999      44.253 130.101  16.164  1.00  0.00     0.273 C 
BRANCH   4   7
HETATM    7  C6  LIG X 999      43.672 131.489  18.097  1.00  0.00     0.275 C 
BRANCH   7   8
HETATM    8  C7  LIG X 999      44.053 131.613  19.560  1.00  0.00    -0.035 C 
HETATM    9  C8  LIG X 999      43.145 131.373  20.529  1.00  0.00     0.001 C 
HETATM   10  C9  LIG X 999      43.574 131.312  21.980  1.00  0.00     0.054 C 
HETATM   11  C12 LIG X 999      42.377 131.590  22.923  1.00  0.00     0.023 C 
HETATM   12  C16 LIG X 999      44.638 132.426  22.217  1.00  0.00     0.028 C 
HETATM   13  C13 LIG X 999      42.826 131.638  24.399  1.00  0.00     0.002 C 
HETATM   14  C14 LIG X 999      43.951 132.663  24.625  1.00  0.00     0.001 C 
HETATM   15  C15 LIG X 999      45.135 132.439  23.671  1.00  0.00     0.010 C 
HETATM   16  C17 LIG X 999      45.743 132.338  21.195  1.00  0.00    -0.020 C 
HETATM   17  C18 LIG X 999      45.439 132.016  19.932  1.00  0.00     0.005 C 
BRANCH  10  18
HETATM   18  C10 LIG X 999      44.105 129.906  22.219  1.00  0.00     0.184 A 
HETATM   19  N2  LIG X 999      45.173 129.364  21.595  1.00  0.00    -0.124 NA
HETATM   20  N3  LIG X 999      45.276 128.117  22.027  1.00  0.00    -0.099 NA
HETATM   21  C11 LIG X 999      44.261 127.945  22.891  1.00  0.00     0.326 A 
HETATM   22  O1  LIG X 999      43.534 129.030  23.014  1.00  0.00    -0.255 OA
BRANCH  21  23
HETATM   23  N4  LIG X 999      44.010 126.724  23.581  1.00  0.00    -0.023 NA
HETATM   24  N5  LIG X 999      43.876 125.668  22.963  1.00  0.00    -0.158 NA
HETATM   25  N6  LIG X 999      43.741 124.613  22.344  1.00  0.00     0.068 N 
ENDBRANCH  21  23
ENDBRANCH  10  18
ENDBRANCH   7   8
ENDBRANCH   4   7
ENDBRANCH   3   4
TORSDOF 5
