REMARK VINA RESULT:      -9.0      3.513      6.801
REMARK  2 active torsions:
REMARK  status: ('A' for Active; 'I' for Inactive)
REMARK    1  A    between atoms: C6_6  and  C7_7 
REMARK    2  A    between atoms: C8_11  and  N3_12 
ROOT
HETATM    1  N3  LIG X 999      42.336 132.506  21.003  1.00  0.00    -0.025 NA
HETATM    2  N4  LIG X 999      42.782 131.815  21.919  1.00  0.00    -0.158 NA
HETATM    3  N5  LIG X 999      43.228 131.127  22.836  1.00  0.00     0.068 N 
ENDROOT
BRANCH   1   4
HETATM    4  C8  LIG X 999      42.678 132.239  19.642  1.00  0.00     0.302 A 
HETATM    5  N2  LIG X 999      41.890 132.499  18.585  1.00  0.00    -0.236 N 
HETATM    6  N1  LIG X 999      42.550 132.115  17.506  1.00  0.00    -0.145 NA
HETATM    7  H5  LIG X 999      40.936 132.923  18.585  1.00  0.00     0.193 HD
HETATM    8  C7  LIG X 999      43.729 131.629  17.951  1.00  0.00     0.202 A 
HETATM    9  O1  LIG X 999      43.812 131.703  19.264  1.00  0.00    -0.253 OA
BRANCH   8  10
HETATM   10  C6  LIG X 999      44.789 131.083  17.081  1.00  0.00     0.020 A 
HETATM   11  C5  LIG X 999      44.961 131.570  15.774  1.00  0.00     0.028 A 
HETATM   12  C4  LIG X 999      45.970 131.049  14.949  1.00  0.00    -0.025 A 
HETATM   13  C3  LIG X 999      46.146 131.531  13.642  1.00  0.00     0.012 A 
HETATM   14  C11 LIG X 999      46.819 130.028  15.438  1.00  0.00    -0.026 A 
HETATM   15  C2  LIG X 999      47.155 131.004  12.830  1.00  0.00     0.001 A 
HETATM   16  C1  LIG X 999      47.993 129.997  13.313  1.00  0.00     0.001 A 
HETATM   17  C12 LIG X 999      47.829 129.508  14.612  1.00  0.00     0.012 A 
HETATM   18  C10 LIG X 999      46.644 129.546  16.743  1.00  0.00     0.013 A 
HETATM   19  C9  LIG X 999      45.637 130.070  17.556  1.00  0.00     0.017 A 
ENDBRANCH   8  10
ENDBRANCH   1   4
TORSDOF 2
