MODEL 1
REMARK VINA RESULT:      -8.0      0.000      0.000
REMARK  1 active torsions:
REMARK  status: ('A' for Active; 'I' for Inactive)
REMARK    1  A    between atoms: C7_7  and  N1_8 
ROOT
HETATM    1  N1  LIG X 999      45.384 131.300  18.137  1.00  0.00    -0.110 NA
HETATM    2  N2  LIG X 999      44.572 131.575  19.020  1.00  0.00    -0.167 NA
HETATM    3  N3  LIG X 999      43.761 131.850  19.904  1.00  0.00     0.068 N 
ENDROOT
BRANCH   1   4
HETATM    4  C7  LIG X 999      45.185 131.753  16.762  1.00  0.00     0.153 C 
HETATM    5  C6  LIG X 999      43.831 131.248  16.245  1.00  0.00     0.031 C 
HETATM    6  C5  LIG X 999      43.587 131.728  14.811  1.00  0.00     0.003 C 
HETATM    7  C4  LIG X 999      44.700 131.249  13.876  1.00  0.00     0.009 C 
HETATM    8  C3  LIG X 999      46.089 131.710  14.365  1.00  0.00     0.018 C 
HETATM    9  C2  LIG X 999      47.157 131.128  13.467  1.00  0.00    -0.021 C 
HETATM   10  C8  LIG X 999      46.347 131.294  15.841  1.00  0.00     0.043 C 
HETATM   11  C1  LIG X 999      47.692 129.929  13.731  1.00  0.00    -0.004 C 
HETATM   12  C10 LIG X 999      47.322 129.198  14.958  1.00  0.00    -0.004 C 
HETATM   13  C9  LIG X 999      46.635 129.807  15.931  1.00  0.00    -0.019 C 
ENDBRANCH   1   4
TORSDOF 1
ENDMDL
MODEL 2
REMARK VINA RESULT:      -5.4      1.693      2.877
REMARK  1 active torsions:
REMARK  status: ('A' for Active; 'I' for Inactive)
REMARK    1  A    between atoms: C7_7  and  N1_8 
ROOT
HETATM    1  N1  LIG X 999      42.714 132.017  17.447  1.00  0.00    -0.110 NA
HETATM    2  N2  LIG X 999      42.146 132.423  18.460  1.00  0.00    -0.167 NA
HETATM    3  N3  LIG X 999      41.577 132.829  19.473  1.00  0.00     0.068 N 
ENDROOT
BRANCH   1   4
HETATM    4  C7  LIG X 999      43.731 130.970  17.519  1.00  0.00     0.153 C 
HETATM    5  C6  LIG X 999      44.824 131.384  18.515  1.00  0.00     0.031 C 
HETATM    6  C5  LIG X 999      45.893 130.293  18.628  1.00  0.00     0.003 C 
HETATM    7  C4  LIG X 999      46.528 130.004  17.264  1.00  0.00     0.009 C 
HETATM    8  C3  LIG X 999      45.466 129.605  16.218  1.00  0.00     0.018 C 
HETATM    9  C2  LIG X 999      46.128 129.430  14.870  1.00  0.00    -0.021 C 
HETATM   10  C8  LIG X 999      44.329 130.662  16.121  1.00  0.00     0.043 C 
HETATM   11  C1  LIG X 999      46.262 130.469  14.035  1.00  0.00    -0.004 C 
HETATM   12  C10 LIG X 999      45.675 131.780  14.371  1.00  0.00    -0.004 C 
HETATM   13  C9  LIG X 999      44.815 131.899  15.389  1.00  0.00    -0.019 C 
ENDBRANCH   1   4
TORSDOF 1
ENDMDL
MODEL 3
REMARK VINA RESULT:      -5.4      2.381      3.408
REMARK  1 active torsions:
REMARK  status: ('A' for Active; 'I' for Inactive)
REMARK    1  A    between atoms: C7_7  and  N1_8 
ROOT
HETATM    1  N1  LIG X 999      45.040 131.498  21.263  1.00  0.00    -0.110 NA
HETATM    2  N2  LIG X 999      44.391 131.346  22.298  1.00  0.00    -0.167 NA
HETATM    3  N3  LIG X 999      43.744 131.193  23.332  1.00  0.00     0.068 N 
ENDROOT
BRANCH   1   4
HETATM    4  C7  LIG X 999      44.415 132.025  20.051  1.00  0.00     0.153 C 
HETATM    5  C6  LIG X 999      42.999 131.449  19.911  1.00  0.00     0.031 C 
HETATM    6  C5  LIG X 999      42.311 132.003  18.659  1.00  0.00     0.003 C 
HETATM    7  C4  LIG X 999      43.120 131.678  17.401  1.00  0.00     0.009 C 
HETATM    8  C3  LIG X 999      44.564 132.215  17.500  1.00  0.00     0.018 C 
HETATM    9  C2  LIG X 999      45.347 131.782  16.281  1.00  0.00    -0.021 C 
HETATM   10  C8  LIG X 999      45.273 131.723  18.794  1.00  0.00     0.043 C 
HETATM   11  C1  LIG X 999      46.002 130.614  16.271  1.00  0.00    -0.004 C 
HETATM   12  C10 LIG X 999      46.058 129.775  17.484  1.00  0.00    -0.004 C 
HETATM   13  C9  LIG X 999      45.658 130.261  18.665  1.00  0.00    -0.019 C 
ENDBRANCH   1   4
TORSDOF 1
ENDMDL
MODEL 4
REMARK VINA RESULT:      -5.3      2.947      5.335
REMARK  1 active torsions:
REMARK  status: ('A' for Active; 'I' for Inactive)
REMARK    1  A    between atoms: C7_7  and  N1_8 
ROOT
HETATM    1  N1  LIG X 999      44.976 131.742  15.438  1.00  0.00    -0.110 NA
HETATM    2  N2  LIG X 999      45.632 131.332  14.481  1.00  0.00    -0.167 NA
HETATM    3  N3  LIG X 999      46.288 130.922  13.524  1.00  0.00     0.068 N 
ENDROOT
BRANCH   1   4
HETATM    4  C7  LIG X 999      45.461 131.588  16.808  1.00  0.00     0.153 C 
HETATM    5  C6  LIG X 999      45.741 130.106  17.091  1.00  0.00     0.031 C 
HETATM    6  C5  LIG X 999      46.273 129.918  18.515  1.00  0.00     0.003 C 
HETATM    7  C4  LIG X 999      45.278 130.456  19.547  1.00  0.00     0.009 C 
HETATM    8  C3  LIG X 999      44.944 131.941  19.293  1.00  0.00     0.018 C 
HETATM    9  C2  LIG X 999      43.886 132.393  20.273  1.00  0.00    -0.021 C 
HETATM   10  C8  LIG X 999      44.459 132.179  17.835  1.00  0.00     0.043 C 
HETATM   11  C1  LIG X 999      42.585 132.264  19.981  1.00  0.00    -0.004 C 
HETATM   12  C10 LIG X 999      42.160 131.773  18.656  1.00  0.00    -0.004 C 
HETATM   13  C9  LIG X 999      43.042 131.667  17.656  1.00  0.00    -0.019 C 
ENDBRANCH   1   4
TORSDOF 1
ENDMDL
