REMARK VINA RESULT:      -4.0      7.335      9.741
REMARK  6 active torsions:
REMARK  status: ('A' for Active; 'I' for Inactive)
REMARK    1  A    between atoms: C8_8  and  O1_9 
REMARK    2  A    between atoms: O1_9  and  C9_10 
REMARK    3  A    between atoms: C9_10  and  C10_11 
REMARK    4  A    between atoms: C10_11  and  C11_12 
REMARK    5  A    between atoms: C11_12  and  N1_13 
REMARK    6  A    between atoms: C13_18  and  N4_19 
ROOT
HETATM    1  N1  LIG X 999      43.502 124.696  23.220  1.00  0.00    -0.116 NA
HETATM    2  N2  LIG X 999      42.868 124.325  22.232  1.00  0.00    -0.168 NA
HETATM    3  N3  LIG X 999      42.234 123.954  21.246  1.00  0.00     0.068 N 
ENDROOT
BRANCH   1   4
HETATM    4  C11 LIG X 999      44.258 125.944  23.203  1.00  0.00     0.191 C 
BRANCH   4   5
HETATM    5  C10 LIG X 999      45.465 125.828  22.267  1.00  0.00     0.051 C 
BRANCH   5   6
HETATM    6  C9  LIG X 999      46.646 125.107  22.922  1.00  0.00     0.170 C 
BRANCH   6   7
HETATM    7  O1  LIG X 999      47.241 124.228  21.989  1.00  0.00    -0.384 OA
BRANCH   7   8
HETATM    8  C8  LIG X 999      48.535 124.676  21.622  1.00  0.00     0.146 C 
HETATM    9  C7  LIG X 999      49.098 125.532  22.768  1.00  0.00     0.072 C 
HETATM   10  C5  LIG X 999      50.584 125.781  22.662  1.00  0.00    -0.047 A 
HETATM   11  C4  LIG X 999      51.424 124.966  21.864  1.00  0.00    -0.023 A 
HETATM   12  C6  LIG X 999      51.157 126.769  23.480  1.00  0.00     0.008 A 
HETATM   13  C3  LIG X 999      52.813 125.176  21.893  1.00  0.00     0.010 A 
HETATM   14  C13 LIG X 999      50.855 123.928  20.915  1.00  0.00     0.199 C 
HETATM   15  C2  LIG X 999      53.366 126.170  22.701  1.00  0.00     0.001 A 
HETATM   16  C1  LIG X 999      52.538 126.967  23.492  1.00  0.00     0.001 A 
HETATM   17  C12 LIG X 999      49.451 123.465  21.343  1.00  0.00     0.143 C 
HETATM   18 CL1  LIG X 999      49.553 122.375  22.763  1.00  0.00    -0.120 Cl
BRANCH  14  19
HETATM   19  N4  LIG X 999      50.785 124.477  19.562  1.00  0.00    -0.104 NA
HETATM   20  N5  LIG X 999      51.647 124.221  18.720  1.00  0.00    -0.167 NA
HETATM   21  N6  LIG X 999      52.507 123.965  17.879  1.00  0.00     0.068 N 
ENDBRANCH  14  19
ENDBRANCH   7   8
ENDBRANCH   6   7
ENDBRANCH   5   6
ENDBRANCH   4   5
ENDBRANCH   1   4
TORSDOF 6
