REMARK VINA RESULT:      -6.6      1.681      2.174
REMARK  7 active torsions:
REMARK  status: ('A' for Active; 'I' for Inactive)
REMARK    1  A    between atoms: C6_6  and  O1_7 
REMARK    2  A    between atoms: O1_7  and  C7_8 
REMARK    3  A    between atoms: C7_8  and  O3_10 
REMARK    4  A    between atoms: O3_10  and  C8_11 
REMARK    5  A    between atoms: C8_11  and  N1_12 
REMARK       I    between atoms: N1_12  and  C9_14 
REMARK    6  A    between atoms: C9_14  and  C10_16 
REMARK    7  A    between atoms: C10_16  and  N2_17 
ROOT
HETATM    1  N2  LIG X 999      44.876 126.105  24.371  1.00  0.00    -0.261 NA
HETATM    2  C11 LIG X 999      45.956 125.559  23.973  1.00  0.00     0.158 C 
HETATM    3  S1  LIG X 999      47.320 124.867  23.467  1.00  0.00    -0.055 SA
ENDROOT
BRANCH   1   4
HETATM    4  C10 LIG X 999      43.800 126.452  23.446  1.00  0.00     0.197 C 
HETATM    5  C12 LIG X 999      43.923 125.606  22.181  1.00  0.00     0.044 C 
BRANCH   4   6
HETATM    6  C9  LIG X 999      43.858 127.919  23.103  1.00  0.00     0.243 C 
HETATM    7  N1  LIG X 999      45.062 128.488  22.569  1.00  0.00    -0.338 N 
HETATM    8  H7  LIG X 999      45.931 127.910  22.532  1.00  0.00     0.164 HD
HETATM    9  O4  LIG X 999      42.835 128.638  23.264  1.00  0.00    -0.271 OA
BRANCH   7  10
HETATM   10  C8  LIG X 999      45.089 129.825  21.984  1.00  0.00     0.306 C 
BRANCH  10  11
HETATM   11  O3  LIG X 999      45.568 129.764  20.642  1.00  0.00    -0.278 OA
BRANCH  11  12
HETATM   12  C7  LIG X 999      45.328 130.768  19.701  1.00  0.00     0.413 C 
HETATM   13  O2  LIG X 999      45.616 131.969  19.962  1.00  0.00    -0.229 OA
BRANCH  12  14
HETATM   14  O1  LIG X 999      44.830 130.407  18.443  1.00  0.00    -0.256 OA
BRANCH  14  15
HETATM   15  C6  LIG X 999      45.416 130.741  17.213  1.00  0.00     0.082 A 
HETATM   16  C5  LIG X 999      46.209 129.782  16.572  1.00  0.00     0.049 A 
HETATM   17  C4  LIG X 999      46.818 130.068  15.342  1.00  0.00    -0.023 A 
HETATM   18  C3  LIG X 999      47.628 129.113  14.705  1.00  0.00     0.012 A 
HETATM   19  C15 LIG X 999      46.616 131.331  14.735  1.00  0.00    -0.026 A 
HETATM   20  C2  LIG X 999      48.231 129.411  13.479  1.00  0.00     0.001 A 
HETATM   21  C1  LIG X 999      48.032 130.658  12.882  1.00  0.00     0.001 A 
HETATM   22  C16 LIG X 999      47.227 131.616  13.505  1.00  0.00     0.012 A 
HETATM   23  C14 LIG X 999      45.803 132.281  15.368  1.00  0.00     0.015 A 
HETATM   24  C13 LIG X 999      45.203 131.987  16.596  1.00  0.00     0.038 A 
ENDBRANCH  14  15
ENDBRANCH  12  14
ENDBRANCH  11  12
ENDBRANCH  10  11
ENDBRANCH   7  10
ENDBRANCH   4   6
ENDBRANCH   1   4
TORSDOF 7
