MODEL 1
REMARK VINA RESULT:      -8.8      0.000      0.000
REMARK  5 active torsions:
REMARK  status: ('A' for Active; 'I' for Inactive)
REMARK    1  A    between atoms: C3_3  and  O1_4 
REMARK    2  A    between atoms: O1_4  and  C4_5 
REMARK    3  A    between atoms: C4_5  and  O2_6 
REMARK    4  A    between atoms: C5_8  and  C6_9 
REMARK    5  A    between atoms: C11_14  and  O3_15 
ROOT
HETATM    1  C1  LIG X 999      45.027 127.586  22.650  1.00  0.00     0.014 C 
HETATM    2  C2  LIG X 999      44.621 128.715  22.768  1.00  0.00    -0.091 C 
HETATM    3  C3  LIG X 999      44.128 130.086  22.908  1.00  0.00     0.270 C 
ENDROOT
BRANCH   3   4
HETATM    4  O1  LIG X 999      44.012 130.672  21.617  1.00  0.00    -0.319 OA
BRANCH   4   5
HETATM    5  C4  LIG X 999      43.048 131.631  21.280  1.00  0.00     0.179 C 
HETATM    6  C5  LIG X 999      42.970 132.103  20.032  1.00  0.00     0.075 C 
BRANCH   5   7
HETATM    7  O2  LIG X 999      42.168 132.139  22.239  1.00  0.00    -0.341 OA
HETATM    8  H4  LIG X 999      41.960 133.126  22.318  1.00  0.00     0.220 HD
ENDBRANCH   5   7
BRANCH   6   9
HETATM    9  C6  LIG X 999      43.833 131.653  18.917  1.00  0.00    -0.031 A 
HETATM   10  C7  LIG X 999      45.091 131.105  19.213  1.00  0.00     0.012 A 
HETATM   11  C8  LIG X 999      45.943 130.682  18.190  1.00  0.00     0.013 A 
HETATM   12  C9  LIG X 999      45.558 130.818  16.849  1.00  0.00    -0.023 A 
HETATM   13  C10 LIG X 999      46.407 130.394  15.815  1.00  0.00     0.049 A 
HETATM   14  C15 LIG X 999      44.305 131.393  16.537  1.00  0.00    -0.025 A 
HETATM   15  C11 LIG X 999      46.026 130.539  14.476  1.00  0.00     0.069 A 
HETATM   16  C13 LIG X 999      44.778 131.115  14.171  1.00  0.00     0.037 A 
HETATM   17  C14 LIG X 999      43.927 131.540  15.195  1.00  0.00     0.015 A 
HETATM   18  C16 LIG X 999      43.456 131.817  17.570  1.00  0.00     0.024 A 
BRANCH  15  19
HETATM   19  O3  LIG X 999      46.913 130.098  13.482  1.00  0.00    -0.356 OA
HETATM   20  C12 LIG X 999      48.222 129.597  13.736  1.00  0.00     0.210 C 
ENDBRANCH  15  19
ENDBRANCH   6   9
ENDBRANCH   4   5
ENDBRANCH   3   4
TORSDOF 5
ENDMDL
MODEL 2
REMARK VINA RESULT:      -8.4      1.592      7.059
REMARK  5 active torsions:
REMARK  status: ('A' for Active; 'I' for Inactive)
REMARK    1  A    between atoms: C3_3  and  O1_4 
REMARK    2  A    between atoms: O1_4  and  C4_5 
REMARK    3  A    between atoms: C4_5  and  O2_6 
REMARK    4  A    between atoms: C5_8  and  C6_9 
REMARK    5  A    between atoms: C11_14  and  O3_15 
ROOT
HETATM    1  C1  LIG X 999      47.827 131.098  13.050  1.00  0.00     0.014 C 
HETATM    2  C2  LIG X 999      47.197 130.339  13.742  1.00  0.00    -0.091 C 
HETATM    3  C3  LIG X 999      46.430 129.420  14.585  1.00  0.00     0.270 C 
ENDROOT
BRANCH   3   4
HETATM    4  O1  LIG X 999      45.681 130.172  15.530  1.00  0.00    -0.319 OA
BRANCH   4   5
HETATM    5  C4  LIG X 999      44.667 131.074  15.181  1.00  0.00     0.179 C 
HETATM    6  C5  LIG X 999      43.958 131.696  16.130  1.00  0.00     0.075 C 
BRANCH   5   7
HETATM    7  O2  LIG X 999      44.350 131.322  13.844  1.00  0.00    -0.341 OA
HETATM    8  H4  LIG X 999      44.860 131.989  13.279  1.00  0.00     0.220 HD
ENDBRANCH   5   7
BRANCH   6   9
HETATM    9  C6  LIG X 999      44.188 131.531  17.583  1.00  0.00    -0.031 A 
HETATM   10  C7  LIG X 999      45.392 130.954  18.016  1.00  0.00     0.012 A 
HETATM   11  C8  LIG X 999      45.642 130.765  19.377  1.00  0.00     0.013 A 
HETATM   12  C9  LIG X 999      44.682 131.135  20.330  1.00  0.00    -0.023 A 
HETATM   13  C10 LIG X 999      44.926 130.950  21.699  1.00  0.00     0.049 A 
HETATM   14  C15 LIG X 999      43.455 131.692  19.905  1.00  0.00    -0.025 A 
HETATM   15  C11 LIG X 999      43.963 131.311  22.649  1.00  0.00     0.069 A 
HETATM   16  C13 LIG X 999      42.741 131.863  22.219  1.00  0.00     0.037 A 
HETATM   17  C14 LIG X 999      42.490 132.049  20.858  1.00  0.00     0.015 A 
HETATM   18  C16 LIG X 999      43.210 131.876  18.536  1.00  0.00     0.024 A 
BRANCH  15  19
HETATM   19  O3  LIG X 999      44.259 131.106  24.006  1.00  0.00    -0.356 OA
HETATM   20  C12 LIG X 999      44.349 129.826  24.625  1.00  0.00     0.210 C 
ENDBRANCH  15  19
ENDBRANCH   6   9
ENDBRANCH   4   5
ENDBRANCH   3   4
TORSDOF 5
ENDMDL
MODEL 3
REMARK VINA RESULT:      -8.3      1.037      1.484
REMARK  5 active torsions:
REMARK  status: ('A' for Active; 'I' for Inactive)
REMARK    1  A    between atoms: C3_3  and  O1_4 
REMARK    2  A    between atoms: O1_4  and  C4_5 
REMARK    3  A    between atoms: C4_5  and  O2_6 
REMARK    4  A    between atoms: C5_8  and  C6_9 
REMARK    5  A    between atoms: C11_14  and  O3_15 
ROOT
HETATM    1  C1  LIG X 999      44.267 132.383  24.476  1.00  0.00     0.014 C 
HETATM    2  C2  LIG X 999      43.850 131.449  23.838  1.00  0.00    -0.091 C 
HETATM    3  C3  LIG X 999      43.344 130.317  23.061  1.00  0.00     0.270 C 
ENDROOT
BRANCH   3   4
HETATM    4  O1  LIG X 999      43.222 130.705  21.699  1.00  0.00    -0.319 OA
BRANCH   4   5
HETATM    5  C4  LIG X 999      42.581 131.877  21.277  1.00  0.00     0.179 C 
HETATM    6  C5  LIG X 999      42.835 132.391  20.068  1.00  0.00     0.075 C 
BRANCH   5   7
HETATM    7  O2  LIG X 999      41.689 132.554  22.112  1.00  0.00    -0.341 OA
HETATM    8  H4  LIG X 999      41.480 133.538  22.002  1.00  0.00     0.220 HD
ENDBRANCH   5   7
BRANCH   6   9
HETATM    9  C6  LIG X 999      43.752 131.779  19.081  1.00  0.00    -0.031 A 
HETATM   10  C7  LIG X 999      44.934 131.174  19.538  1.00  0.00     0.012 A 
HETATM   11  C8  LIG X 999      45.834 130.599  18.639  1.00  0.00     0.013 A 
HETATM   12  C9  LIG X 999      45.576 130.635  17.261  1.00  0.00    -0.023 A 
HETATM   13  C10 LIG X 999      46.475 130.059  16.350  1.00  0.00     0.049 A 
HETATM   14  C15 LIG X 999      44.403 131.265  16.786  1.00  0.00    -0.025 A 
HETATM   15  C11 LIG X 999      46.222 130.104  14.974  1.00  0.00     0.069 A 
HETATM   16  C13 LIG X 999      45.053 130.735  14.507  1.00  0.00     0.037 A 
HETATM   17  C14 LIG X 999      44.153 131.312  15.407  1.00  0.00     0.015 A 
HETATM   18  C16 LIG X 999      43.505 131.842  17.696  1.00  0.00     0.024 A 
BRANCH  15  19
HETATM   19  O3  LIG X 999      47.153 129.511  14.108  1.00  0.00    -0.356 OA
HETATM   20  C12 LIG X 999      48.003 130.235  13.223  1.00  0.00     0.210 C 
ENDBRANCH  15  19
ENDBRANCH   6   9
ENDBRANCH   4   5
ENDBRANCH   3   4
TORSDOF 5
ENDMDL
MODEL 4
REMARK VINA RESULT:      -7.8      1.589      6.941
REMARK  5 active torsions:
REMARK  status: ('A' for Active; 'I' for Inactive)
REMARK    1  A    between atoms: C3_3  and  O1_4 
REMARK    2  A    between atoms: O1_4  and  C4_5 
REMARK    3  A    between atoms: C4_5  and  O2_6 
REMARK    4  A    between atoms: C5_8  and  C6_9 
REMARK    5  A    between atoms: C11_14  and  O3_15 
ROOT
HETATM    1  C1  LIG X 999      47.909 129.634  13.743  1.00  0.00     0.014 C 
HETATM    2  C2  LIG X 999      47.335 129.658  14.802  1.00  0.00    -0.091 C 
HETATM    3  C3  LIG X 999      46.634 129.687  16.087  1.00  0.00     0.270 C 
ENDROOT
BRANCH   3   4
HETATM    4  O1  LIG X 999      45.236 129.790  15.851  1.00  0.00    -0.319 OA
BRANCH   4   5
HETATM    5  C4  LIG X 999      44.636 130.858  15.170  1.00  0.00     0.179 C 
HETATM    6  C5  LIG X 999      43.876 131.740  15.829  1.00  0.00     0.075 C 
BRANCH   5   7
HETATM    7  O2  LIG X 999      44.788 131.011  13.790  1.00  0.00    -0.341 OA
HETATM    8  H4  LIG X 999      44.066 131.411  13.204  1.00  0.00     0.220 HD
ENDBRANCH   5   7
BRANCH   6   9
HETATM    9  C6  LIG X 999      43.633 131.702  17.288  1.00  0.00    -0.031 A 
HETATM   10  C7  LIG X 999      42.374 132.087  17.774  1.00  0.00     0.012 A 
HETATM   11  C8  LIG X 999      42.107 132.081  19.145  1.00  0.00     0.013 A 
HETATM   12  C9  LIG X 999      43.103 131.707  20.057  1.00  0.00    -0.023 A 
HETATM   13  C10 LIG X 999      42.843 131.697  21.436  1.00  0.00     0.049 A 
HETATM   14  C15 LIG X 999      44.384 131.343  19.582  1.00  0.00    -0.025 A 
HETATM   15  C11 LIG X 999      43.842 131.333  22.346  1.00  0.00     0.069 A 
HETATM   16  C13 LIG X 999      45.117 130.974  21.867  1.00  0.00     0.037 A 
HETATM   17  C14 LIG X 999      45.384 130.982  20.496  1.00  0.00     0.015 A 
HETATM   18  C16 LIG X 999      44.644 131.353  18.204  1.00  0.00     0.024 A 
BRANCH  15  19
HETATM   19  O3  LIG X 999      43.528 131.339  23.714  1.00  0.00    -0.356 OA
HETATM   20  C12 LIG X 999      43.919 132.363  24.625  1.00  0.00     0.210 C 
ENDBRANCH  15  19
ENDBRANCH   6   9
ENDBRANCH   4   5
ENDBRANCH   3   4
TORSDOF 5
ENDMDL
MODEL 5
REMARK VINA RESULT:      -7.8      1.278      2.520
REMARK  5 active torsions:
REMARK  status: ('A' for Active; 'I' for Inactive)
REMARK    1  A    between atoms: C3_3  and  O1_4 
REMARK    2  A    between atoms: O1_4  and  C4_5 
REMARK    3  A    between atoms: C4_5  and  O2_6 
REMARK    4  A    between atoms: C5_8  and  C6_9 
REMARK    5  A    between atoms: C11_14  and  O3_15 
ROOT
HETATM    1  C1  LIG X 999      43.996 126.394  23.103  1.00  0.00     0.014 C 
HETATM    2  C2  LIG X 999      44.240 127.574  23.106  1.00  0.00    -0.091 C 
HETATM    3  C3  LIG X 999      44.533 129.008  23.110  1.00  0.00     0.270 C 
ENDROOT
BRANCH   3   4
HETATM    4  O1  LIG X 999      43.397 129.715  22.629  1.00  0.00    -0.319 OA
BRANCH   4   5
HETATM    5  C4  LIG X 999      43.019 130.985  23.086  1.00  0.00     0.179 C 
HETATM    6  C5  LIG X 999      42.913 132.008  22.232  1.00  0.00     0.075 C 
BRANCH   5   7
HETATM    7  O2  LIG X 999      42.773 131.221  24.440  1.00  0.00    -0.341 OA
HETATM    8  H4  LIG X 999      42.342 130.532  25.043  1.00  0.00     0.220 HD
ENDBRANCH   5   7
BRANCH   6   9
HETATM    9  C6  LIG X 999      43.140 131.901  20.773  1.00  0.00    -0.031 A 
HETATM   10  C7  LIG X 999      42.093 132.233  19.899  1.00  0.00     0.012 A 
HETATM   11  C8  LIG X 999      42.259 132.131  18.516  1.00  0.00     0.013 A 
HETATM   12  C9  LIG X 999      43.473 131.676  17.983  1.00  0.00    -0.023 A 
HETATM   13  C10 LIG X 999      43.649 131.572  16.594  1.00  0.00     0.049 A 
HETATM   14  C15 LIG X 999      44.526 131.312  18.852  1.00  0.00    -0.025 A 
HETATM   15  C11 LIG X 999      44.858 131.108  16.063  1.00  0.00     0.069 A 
HETATM   16  C13 LIG X 999      45.902 130.744  16.934  1.00  0.00     0.037 A 
HETATM   17  C14 LIG X 999      45.735 130.845  18.318  1.00  0.00     0.015 A 
HETATM   18  C16 LIG X 999      44.350 131.416  20.240  1.00  0.00     0.024 A 
BRANCH  15  19
HETATM   19  O3  LIG X 999      44.980 131.024  14.667  1.00  0.00    -0.356 OA
HETATM   20  C12 LIG X 999      46.184 130.686  13.984  1.00  0.00     0.210 C 
ENDBRANCH  15  19
ENDBRANCH   6   9
ENDBRANCH   4   5
ENDBRANCH   3   4
TORSDOF 5
ENDMDL
MODEL 6
REMARK VINA RESULT:      -6.9      1.819      7.152
REMARK  5 active torsions:
REMARK  status: ('A' for Active; 'I' for Inactive)
REMARK    1  A    between atoms: C3_3  and  O1_4 
REMARK    2  A    between atoms: O1_4  and  C4_5 
REMARK    3  A    between atoms: C4_5  and  O2_6 
REMARK    4  A    between atoms: C5_8  and  C6_9 
REMARK    5  A    between atoms: C11_14  and  O3_15 
ROOT
HETATM    1  C1  LIG X 999      47.608 129.502  14.149  1.00  0.00     0.014 C 
HETATM    2  C2  LIG X 999      46.522 129.486  14.671  1.00  0.00    -0.091 C 
HETATM    3  C3  LIG X 999      45.203 129.469  15.306  1.00  0.00     0.270 C 
ENDROOT
BRANCH   3   4
HETATM    4  O1  LIG X 999      45.246 130.261  16.486  1.00  0.00    -0.319 OA
BRANCH   4   5
HETATM    5  C4  LIG X 999      45.507 131.638  16.492  1.00  0.00     0.179 C 
HETATM    6  C5  LIG X 999      45.194 132.381  17.559  1.00  0.00     0.075 C 
BRANCH   5   7
HETATM    7  O2  LIG X 999      46.068 132.272  15.381  1.00  0.00    -0.341 OA
HETATM    8  H4  LIG X 999      46.582 133.141  15.452  1.00  0.00     0.220 HD
ENDBRANCH   5   7
BRANCH   6   9
HETATM    9  C6  LIG X 999      44.601 131.843  18.803  1.00  0.00    -0.031 A 
HETATM   10  C7  LIG X 999      43.352 132.328  19.222  1.00  0.00     0.012 A 
HETATM   11  C8  LIG X 999      42.763 131.859  20.399  1.00  0.00     0.013 A 
HETATM   12  C9  LIG X 999      43.424 130.907  21.188  1.00  0.00    -0.023 A 
HETATM   13  C10 LIG X 999      42.839 130.430  22.371  1.00  0.00     0.049 A 
HETATM   14  C15 LIG X 999      44.694 130.431  20.791  1.00  0.00    -0.025 A 
HETATM   15  C11 LIG X 999      43.504 129.487  23.163  1.00  0.00     0.069 A 
HETATM   16  C13 LIG X 999      44.770 129.018  22.764  1.00  0.00     0.037 A 
HETATM   17  C14 LIG X 999      45.360 129.489  21.588  1.00  0.00     0.015 A 
HETATM   18  C16 LIG X 999      45.279 130.909  19.609  1.00  0.00     0.024 A 
BRANCH  15  19
HETATM   19  O3  LIG X 999      42.874 129.042  24.336  1.00  0.00    -0.356 OA
HETATM   20  C12 LIG X 999      41.629 128.349  24.367  1.00  0.00     0.210 C 
ENDBRANCH  15  19
ENDBRANCH   6   9
ENDBRANCH   4   5
ENDBRANCH   3   4
TORSDOF 5
ENDMDL
MODEL 7
REMARK VINA RESULT:      -5.9      1.024      2.177
REMARK  5 active torsions:
REMARK  status: ('A' for Active; 'I' for Inactive)
REMARK    1  A    between atoms: C3_3  and  O1_4 
REMARK    2  A    between atoms: O1_4  and  C4_5 
REMARK    3  A    between atoms: C4_5  and  O2_6 
REMARK    4  A    between atoms: C5_8  and  C6_9 
REMARK    5  A    between atoms: C11_14  and  O3_15 
ROOT
HETATM    1  C1  LIG X 999      44.302 132.152  24.420  1.00  0.00     0.014 C 
HETATM    2  C2  LIG X 999      44.202 131.320  23.554  1.00  0.00    -0.091 C 
HETATM    3  C3  LIG X 999      44.080 130.312  22.500  1.00  0.00     0.270 C 
ENDROOT
BRANCH   3   4
HETATM    4  O1  LIG X 999      43.764 130.958  21.273  1.00  0.00    -0.319 OA
BRANCH   4   5
HETATM    5  C4  LIG X 999      42.702 131.858  21.117  1.00  0.00     0.179 C 
HETATM    6  C5  LIG X 999      42.393 132.337  19.907  1.00  0.00     0.075 C 
BRANCH   5   7
HETATM    7  O2  LIG X 999      41.962 132.300  22.216  1.00  0.00    -0.341 OA
HETATM    8  H4  LIG X 999      41.459 133.178  22.215  1.00  0.00     0.220 HD
ENDBRANCH   5   7
BRANCH   6   9
HETATM    9  C6  LIG X 999      43.088 131.953  18.658  1.00  0.00    -0.031 A 
HETATM   10  C7  LIG X 999      42.446 132.178  17.430  1.00  0.00     0.012 A 
HETATM   11  C8  LIG X 999      43.059 131.816  16.229  1.00  0.00     0.013 A 
HETATM   12  C9  LIG X 999      44.321 131.205  16.236  1.00  0.00    -0.023 A 
HETATM   13  C10 LIG X 999      44.945 130.839  15.033  1.00  0.00     0.049 A 
HETATM   14  C15 LIG X 999      44.966 130.949  17.467  1.00  0.00    -0.025 A 
HETATM   15  C11 LIG X 999      46.201 130.221  15.042  1.00  0.00     0.069 A 
HETATM   16  C13 LIG X 999      46.837 129.966  16.272  1.00  0.00     0.037 A 
HETATM   17  C14 LIG X 999      46.222 130.326  17.473  1.00  0.00     0.015 A 
HETATM   18  C16 LIG X 999      44.343 131.314  18.670  1.00  0.00     0.024 A 
BRANCH  15  19
HETATM   19  O3  LIG X 999      46.780 129.877  13.811  1.00  0.00    -0.356 OA
HETATM   20  C12 LIG X 999      48.138 129.480  13.643  1.00  0.00     0.210 C 
ENDBRANCH  15  19
ENDBRANCH   6   9
ENDBRANCH   4   5
ENDBRANCH   3   4
TORSDOF 5
ENDMDL
MODEL 8
REMARK VINA RESULT:      -5.9      1.438      7.462
REMARK  5 active torsions:
REMARK  status: ('A' for Active; 'I' for Inactive)
REMARK    1  A    between atoms: C3_3  and  O1_4 
REMARK    2  A    between atoms: O1_4  and  C4_5 
REMARK    3  A    between atoms: C4_5  and  O2_6 
REMARK    4  A    between atoms: C5_8  and  C6_9 
REMARK    5  A    between atoms: C11_14  and  O3_15 
ROOT
HETATM    1  C1  LIG X 999      47.590 131.169  12.912  1.00  0.00     0.014 C 
HETATM    2  C2  LIG X 999      46.493 131.096  13.405  1.00  0.00    -0.091 C 
HETATM    3  C3  LIG X 999      45.162 131.008  14.007  1.00  0.00     0.270 C 
ENDROOT
BRANCH   3   4
HETATM    4  O1  LIG X 999      45.263 130.352  15.265  1.00  0.00    -0.319 OA
BRANCH   4   5
HETATM    5  C4  LIG X 999      46.456 129.818  15.772  1.00  0.00     0.179 C 
HETATM    6  C5  LIG X 999      46.706 129.847  17.085  1.00  0.00     0.075 C 
BRANCH   5   7
HETATM    7  O2  LIG X 999      47.421 129.273  14.923  1.00  0.00    -0.341 OA
HETATM    8  H4  LIG X 999      48.193 128.714  15.264  1.00  0.00     0.220 HD
ENDBRANCH   5   7
BRANCH   6   9
HETATM    9  C6  LIG X 999      45.773 130.389  18.098  1.00  0.00    -0.031 A 
HETATM   10  C7  LIG X 999      44.831 131.352  17.704  1.00  0.00     0.012 A 
HETATM   11  C8  LIG X 999      43.943 131.901  18.631  1.00  0.00     0.013 A 
HETATM   12  C9  LIG X 999      43.993 131.508  19.976  1.00  0.00    -0.023 A 
HETATM   13  C10 LIG X 999      43.103 132.054  20.914  1.00  0.00     0.049 A 
HETATM   14  C15 LIG X 999      44.955 130.559  20.391  1.00  0.00    -0.025 A 
HETATM   15  C11 LIG X 999      43.161 131.668  22.258  1.00  0.00     0.069 A 
HETATM   16  C13 LIG X 999      44.123 130.725  22.666  1.00  0.00     0.037 A 
HETATM   17  C14 LIG X 999      45.013 130.177  21.739  1.00  0.00     0.015 A 
HETATM   18  C16 LIG X 999      45.845 130.014  19.454  1.00  0.00     0.024 A 
BRANCH  15  19
HETATM   19  O3  LIG X 999      42.247 132.244  23.154  1.00  0.00    -0.356 OA
HETATM   20  C12 LIG X 999      42.474 132.390  24.553  1.00  0.00     0.210 C 
ENDBRANCH  15  19
ENDBRANCH   6   9
ENDBRANCH   4   5
ENDBRANCH   3   4
TORSDOF 5
ENDMDL
