REMARK VINA RESULT:      -3.7      6.197      9.285
REMARK  4 active torsions:
REMARK  status: ('A' for Active; 'I' for Inactive)
REMARK    1  A    between atoms: C3_3  and  O1_4 
REMARK    2  A    between atoms: O1_4  and  C4_5 
REMARK    3  A    between atoms: C9_12  and  N2_13 
REMARK    4  A    between atoms: C11_17  and  C12_18 
ROOT
HETATM    1  C1  LIG X 999      43.587 124.341  22.504  1.00  0.00     0.014 C 
HETATM    2  C2  LIG X 999      44.632 123.773  22.308  1.00  0.00    -0.091 C 
HETATM    3  C3  LIG X 999      45.901 123.085  22.071  1.00  0.00     0.268 C 
ENDROOT
BRANCH   3   4
HETATM    4  O1  LIG X 999      46.891 123.613  22.948  1.00  0.00    -0.339 OA
BRANCH   4   5
HETATM    5  C4  LIG X 999      48.170 124.035  22.549  1.00  0.00     0.085 A 
HETATM    6  C5  LIG X 999      48.834 123.432  21.437  1.00  0.00     0.052 A 
HETATM    7  C6  LIG X 999      50.110 123.877  21.050  1.00  0.00     0.008 A 
HETATM    8  C7  LIG X 999      50.668 124.896  21.783  1.00  0.00     0.018 A 
HETATM    9  C15 LIG X 999      50.940 123.328  19.944  1.00  0.00     0.059 A 
HETATM   10  C8  LIG X 999      51.911 125.402  21.591  1.00  0.00     0.046 A 
HETATM   11  C10 LIG X 999      50.087 125.494  22.857  1.00  0.00     0.042 A 
HETATM   12  N1  LIG X 999      52.176 126.328  22.533  1.00  0.00    -0.337 N 
HETATM   13  C13 LIG X 999      52.783 124.889  20.520  1.00  0.00     0.033 A 
HETATM   14  H5  LIG X 999      53.068 126.858  22.653  1.00  0.00     0.167 HD
HETATM   15  C9  LIG X 999      51.063 126.387  23.318  1.00  0.00     0.176 A 
HETATM   16  C14 LIG X 999      52.313 123.899  19.729  1.00  0.00     0.034 A 
HETATM   17  C11 LIG X 999      48.799 125.094  23.275  1.00  0.00     0.050 A 
HETATM   18  N5  LIG X 999      50.490 122.375  19.190  1.00  0.00    -0.300 NA
HETATM   19  H9  LIG X 999      51.059 121.975  18.411  1.00  0.00     0.187 HD
BRANCH  15  20
HETATM   20  N2  LIG X 999      50.971 127.188  24.497  1.00  0.00    -0.053 NA
HETATM   21  N3  LIG X 999      51.396 128.343  24.522  1.00  0.00    -0.160 NA
HETATM   22  N4  LIG X 999      51.819 129.497  24.546  1.00  0.00     0.068 N 
ENDBRANCH  15  20
BRANCH  17  23
HETATM   23  C12 LIG X 999      48.082 125.726  24.404  1.00  0.00     0.273 C 
HETATM   24  O2  LIG X 999      47.055 126.428  24.223  1.00  0.00    -0.301 OA
ENDBRANCH  17  23
ENDBRANCH   4   5
ENDBRANCH   3   4
TORSDOF 4
