REMARK VINA RESULT:      -6.4      3.385      6.811
REMARK  1 active torsions:
REMARK  status: ('A' for Active; 'I' for Inactive)
REMARK    1  A    between atoms: C11_13  and  N2_14 
ROOT
HETATM    1  N2  LIG X 999      43.775 131.375  23.761  1.00  0.00    -0.053 NA
HETATM    2  N3  LIG X 999      44.135 130.279  24.193  1.00  0.00    -0.160 NA
HETATM    3  N4  LIG X 999      44.495 129.186  24.625  1.00  0.00     0.068 N 
ENDROOT
BRANCH   1   4
HETATM    4  C11 LIG X 999      43.495 131.567  22.374  1.00  0.00     0.175 A 
HETATM    5  C10 LIG X 999      44.343 131.218  21.334  1.00  0.00     0.026 A 
HETATM    6  C5  LIG X 999      43.684 131.575  20.205  1.00  0.00     0.017 A 
HETATM    7  C9  LIG X 999      45.607 130.632  21.262  1.00  0.00     0.016 A 
HETATM    8  C4  LIG X 999      42.488 132.118  20.540  1.00  0.00     0.046 A 
HETATM    9  C6  LIG X 999      44.167 131.407  18.925  1.00  0.00     0.005 A 
HETATM   10  C3  LIG X 999      41.564 132.596  19.500  1.00  0.00     0.033 A 
HETATM   11  N5  LIG X 999      42.348 132.124  21.885  1.00  0.00    -0.337 N 
HETATM   12  C2  LIG X 999      41.939 132.479  18.205  1.00  0.00     0.034 A 
HETATM   13  C1  LIG X 999      43.264 131.877  17.830  1.00  0.00     0.059 A 
HETATM   14  N1  LIG X 999      43.585 131.783  16.578  1.00  0.00    -0.300 NA
HETATM   15  H1  LIG X 999      44.487 131.377  16.247  1.00  0.00     0.187 HD
HETATM   16  H7  LIG X 999      41.532 132.480  22.429  1.00  0.00     0.167 HD
HETATM   17  C7  LIG X 999      45.445 130.816  18.804  1.00  0.00     0.015 A 
HETATM   18  C8  LIG X 999      46.159 130.432  19.973  1.00  0.00     0.002 A 
ENDBRANCH   1   4
TORSDOF 1
