REMARK VINA RESULT:      -6.1      6.937      9.840
REMARK  4 active torsions:
REMARK  status: ('A' for Active; 'I' for Inactive)
REMARK    1  A    between atoms: C2_2  and  N1_3 
REMARK    2  A    between atoms: C3_6  and  O1_7 
REMARK    3  A    between atoms: O1_7  and  C4_8 
REMARK    4  A    between atoms: C4_8  and  C5_9 
ROOT
HETATM    1  N1  LIG X 999      41.989 129.591  24.237  1.00  0.00    -0.070 NA
HETATM    2  N2  LIG X 999      42.390 130.655  23.764  1.00  0.00    -0.162 NA
HETATM    3  N3  LIG X 999      42.791 131.719  23.293  1.00  0.00     0.068 N 
ENDROOT
BRANCH   1   4
HETATM    4  C2  LIG X 999      42.550 128.323  23.868  1.00  0.00     0.127 A 
HETATM    5  C1  LIG X 999      43.900 128.204  23.487  1.00  0.00     0.049 A 
HETATM    6  C14 LIG X 999      44.432 126.959  23.129  1.00  0.00    -0.023 A 
HETATM    7  C9  LIG X 999      43.597 125.808  23.151  1.00  0.00    -0.022 A 
HETATM    8  C13 LIG X 999      45.781 126.840  22.744  1.00  0.00     0.021 A 
HETATM    9  C8  LIG X 999      42.255 125.931  23.531  1.00  0.00     0.051 A 
HETATM   10  C10 LIG X 999      44.127 124.553  22.787  1.00  0.00     0.021 A 
HETATM   11  C3  LIG X 999      41.724 127.186  23.888  1.00  0.00     0.102 A 
HETATM   12  C11 LIG X 999      45.472 124.476  22.419  1.00  0.00    -0.024 A 
HETATM   13  C12 LIG X 999      46.269 125.579  22.398  1.00  0.00    -0.024 A 
HETATM   14  C18 LIG X 999      46.225 123.282  21.983  1.00  0.00     0.276 C 
HETATM   15  C15 LIG X 999      47.632 125.225  21.947  1.00  0.00     0.276 C 
HETATM   16  N4  LIG X 999      47.646 123.732  21.838  1.00  0.00    -0.067 N 
HETATM   17  C16 LIG X 999      48.198 123.308  20.531  1.00  0.00     0.272 C 
HETATM   18  C17 LIG X 999      48.475 123.152  22.921  1.00  0.00     0.272 C 
BRANCH  11  19
HETATM   19  O1  LIG X 999      40.380 127.348  24.270  1.00  0.00    -0.337 OA
BRANCH  19  20
HETATM   20  C4  LIG X 999      39.248 126.862  23.552  1.00  0.00     0.269 C 
BRANCH  20  21
HETATM   21  C5  LIG X 999      38.951 125.479  23.939  1.00  0.00    -0.080 C 
HETATM   22  C6  LIG X 999      38.705 124.341  24.251  1.00  0.00    -0.109 C 
HETATM   23  C7  LIG X 999      38.407 122.959  24.625  1.00  0.00     0.112 C 
ENDBRANCH  20  21
ENDBRANCH  19  20
ENDBRANCH  11  19
ENDBRANCH   1   4
TORSDOF 4
