REMARK VINA RESULT:      -8.8      0.000      0.000
REMARK  1 active torsions:
REMARK  status: ('A' for Active; 'I' for Inactive)
REMARK    1  A    between atoms: C2_5  and  C3_6 
ROOT
HETATM    1  C3  LIG X 999      44.349 131.556  17.332  1.00  0.00     0.028 A 
HETATM    2  C4  LIG X 999      43.048 131.935  16.925  1.00  0.00     0.017 A 
HETATM    3  C5  LIG X 999      42.033 132.172  17.844  1.00  0.00     0.002 A 
HETATM    4  C6  LIG X 999      42.272 132.040  19.203  1.00  0.00     0.012 A 
HETATM    5  C7  LIG X 999      43.538 131.669  19.664  1.00  0.00    -0.025 A 
HETATM    6  C8  LIG X 999      43.746 131.546  21.047  1.00  0.00     0.012 A 
HETATM    7  C9  LIG X 999      44.993 131.177  21.542  1.00  0.00     0.001 A 
HETATM    8  C10 LIG X 999      46.043 130.930  20.665  1.00  0.00     0.001 A 
HETATM    9  C11 LIG X 999      45.856 131.047  19.286  1.00  0.00     0.013 A 
HETATM   10  C12 LIG X 999      44.601 131.419  18.741  1.00  0.00    -0.011 A 
ENDROOT
BRANCH   1  11
HETATM   11  C2  LIG X 999      45.377 131.324  16.258  1.00  0.00     0.177 A 
HETATM   12  O1  LIG X 999      45.942 130.165  15.983  1.00  0.00    -0.258 OA
HETATM   13  C1  LIG X 999      46.767 130.399  14.992  1.00  0.00     0.260 A 
HETATM   14  N1  LIG X 999      47.514 129.503  14.435  1.00  0.00    -0.261 NA
HETATM   15  N3  LIG X 999      46.742 131.687  14.626  1.00  0.00    -0.262 N 
HETATM   16  H1  LIG X 999      47.493 128.512  14.762  1.00  0.00     0.190 HD
HETATM   17  N2  LIG X 999      45.867 132.274  15.421  1.00  0.00    -0.276 N 
HETATM   18  H10 LIG X 999      47.292 132.155  13.871  1.00  0.00     0.190 HD
HETATM   19  H9  LIG X 999      45.636 133.289  15.367  1.00  0.00     0.189 HD
ENDBRANCH   1  11
TORSDOF 1
