REMARK VINA RESULT:      -6.8      0.000      0.000
REMARK  6 active torsions:
REMARK  status: ('A' for Active; 'I' for Inactive)
REMARK    1  A    between atoms: S1_2  and  C1_3 
REMARK    2  A    between atoms: C1_3  and  N2_15 
REMARK    3  A    between atoms: N1_4  and  C2_5 
REMARK    4  A    between atoms: N2_15  and  C12_18 
REMARK    5  A    between atoms: C13_19  and  C14_20 
REMARK    6  A    between atoms: C14_20  and  O2_22 
ROOT
HETATM    1  C1  LIG X 999      43.062 131.245  22.881  1.00  0.00     0.266 C 
HETATM    2  N1  LIG X 999      43.473 132.137  22.025  1.00  0.00    -0.219 NA
ENDROOT
BRANCH   1   3
HETATM    3  S1  LIG X 999      43.134 131.649  24.625  1.00  0.00    -0.098 SA
HETATM    4  H1  LIG X 999      42.070 130.777  24.922  1.00  0.00     0.110 HD
ENDBRANCH   1   3
BRANCH   1   5
HETATM    5  N2  LIG X 999      42.517 129.972  22.467  1.00  0.00     0.010 N 
HETATM    6  H9  LIG X 999      42.591 129.885  21.427  1.00  0.00     0.293 HD
HETATM    7  H10 LIG X 999      41.506 129.953  22.710  1.00  0.00     0.293 HD
BRANCH   5   8
HETATM    8  C12 LIG X 999      43.258 128.881  23.057  1.00  0.00     0.164 A 
HETATM    9  C13 LIG X 999      42.721 127.913  23.926  1.00  0.00     0.114 A 
HETATM   10  S2  LIG X 999      43.978 126.910  24.417  1.00  0.00    -0.094 SA
HETATM   11  C16 LIG X 999      45.195 127.644  23.525  1.00  0.00     0.053 A 
HETATM   12  C17 LIG X 999      44.637 128.702  22.825  1.00  0.00     0.046 A 
BRANCH   9  13
HETATM   13  C14 LIG X 999      41.326 127.711  24.357  1.00  0.00     0.302 C 
HETATM   14  O1  LIG X 999      40.549 128.690  24.522  1.00  0.00    -0.259 OA
BRANCH  13  15
HETATM   15  O2  LIG X 999      40.857 126.407  24.539  1.00  0.00    -0.322 OA
HETATM   16  C15 LIG X 999      40.387 125.602  23.464  1.00  0.00     0.213 C 
ENDBRANCH  13  15
ENDBRANCH   9  13
ENDBRANCH   5   8
ENDBRANCH   1   5
BRANCH   2  17
HETATM   17  C2  LIG X 999      43.515 131.955  20.605  1.00  0.00     0.060 A 
HETATM   18  C3  LIG X 999      42.409 132.319  19.828  1.00  0.00     0.032 A 
HETATM   19  C4  LIG X 999      42.428 132.141  18.443  1.00  0.00     0.014 A 
HETATM   20  C5  LIG X 999      43.570 131.619  17.817  1.00  0.00    -0.026 A 
HETATM   21  C6  LIG X 999      43.603 131.436  16.425  1.00  0.00     0.012 A 
HETATM   22  C10 LIG X 999      44.703 131.277  18.596  1.00  0.00    -0.024 A 
HETATM   23  C7  LIG X 999      44.752 130.928  15.812  1.00  0.00     0.001 A 
HETATM   24  C8  LIG X 999      45.872 130.598  16.580  1.00  0.00     0.001 A 
HETATM   25  C9  LIG X 999      45.850 130.768  17.967  1.00  0.00     0.012 A 
HETATM   26  C11 LIG X 999      44.667 131.449  19.987  1.00  0.00     0.044 A 
ENDBRANCH   2  17
TORSDOF 6
