REMARK VINA RESULT:      -7.7      3.069      8.667
REMARK  5 active torsions:
REMARK  status: ('A' for Active; 'I' for Inactive)
REMARK    1  A    between atoms: C2_2  and  C3_3 
REMARK    2  A    between atoms: C2_2  and  N1_13 
REMARK    3  A    between atoms: C14_15  and  C15_16 
REMARK    4  A    between atoms: C15_16  and  C16_17 
REMARK       I    between atoms: C16_17  and  N2_19 
REMARK    5  A    between atoms: N2_19  and  C17_20 
ROOT
HETATM    1  N1  LIG X 999      43.491 129.994  23.175  1.00  0.00    -0.274 N 
HETATM    2  C13 LIG X 999      43.439 130.157  21.840  1.00  0.00     0.137 A 
HETATM    3  C14 LIG X 999      43.123 131.480  21.629  1.00  0.00     0.078 A 
HETATM    4  N4  LIG X 999      42.968 132.079  22.827  1.00  0.00    -0.163 NA
HETATM    5  N5  LIG X 999      43.201 131.154  23.746  1.00  0.00     0.005 NA
ENDROOT
BRANCH   1   6
HETATM    6  C2  LIG X 999      43.733 128.756  23.920  1.00  0.00     0.134 C 
HETATM    7  C1  LIG X 999      45.002 128.049  23.422  1.00  0.00     0.039 C 
BRANCH   6   8
HETATM    8  C3  LIG X 999      42.502 127.866  23.879  1.00  0.00    -0.033 A 
HETATM    9  C4  LIG X 999      41.235 128.346  24.261  1.00  0.00     0.010 A 
HETATM   10  C5  LIG X 999      40.120 127.502  24.256  1.00  0.00     0.013 A 
HETATM   11  C6  LIG X 999      40.253 126.159  23.881  1.00  0.00    -0.026 A 
HETATM   12  C7  LIG X 999      39.138 125.304  23.873  1.00  0.00     0.012 A 
HETATM   13  C11 LIG X 999      41.525 125.658  23.514  1.00  0.00    -0.025 A 
HETATM   14  C8  LIG X 999      39.287 123.963  23.506  1.00  0.00     0.001 A 
HETATM   15  C9  LIG X 999      40.543 123.466  23.146  1.00  0.00     0.001 A 
HETATM   16  C10 LIG X 999      41.660 124.309  23.148  1.00  0.00     0.012 A 
HETATM   17  C12 LIG X 999      42.638 126.512  23.521  1.00  0.00     0.021 A 
ENDBRANCH   6   8
ENDBRANCH   1   6
BRANCH   3  18
HETATM   18  C15 LIG X 999      42.858 132.136  20.312  1.00  0.00     0.167 C 
BRANCH  18  19
HETATM   19  C16 LIG X 999      44.019 131.916  19.396  1.00  0.00     0.251 C 
HETATM   20  O1  LIG X 999      45.193 132.006  19.845  1.00  0.00    -0.271 OA
HETATM   21  N2  LIG X 999      43.777 131.606  18.018  1.00  0.00    -0.189 NA
BRANCH  21  22
HETATM   22  C17 LIG X 999      44.737 131.108  17.079  1.00  0.00     0.173 A 
HETATM   23  N3  LIG X 999      45.793 130.320  17.388  1.00  0.00    -0.344 N 
HETATM   24  C18 LIG X 999      46.497 129.951  16.285  1.00  0.00     0.097 A 
HETATM   25  H15 LIG X 999      46.042 129.992  18.346  1.00  0.00     0.167 HD
HETATM   26  C19 LIG X 999      45.989 130.430  15.080  1.00  0.00     0.070 A 
HETATM   27  S1  LIG X 999      44.613 131.341  15.420  1.00  0.00    -0.062 SA
ENDBRANCH  21  22
ENDBRANCH  18  19
ENDBRANCH   3  18
TORSDOF 5
