REMARK VINA RESULT:      -7.4      1.609      7.499
REMARK  5 active torsions:
REMARK  status: ('A' for Active; 'I' for Inactive)
REMARK    1  A    between atoms: C6_6  and  C7_7 
REMARK       I    between atoms: C7_7  and  N1_9 
REMARK    2  A    between atoms: N1_9  and  C8_11 
REMARK    3  A    between atoms: C8_11  and  C9_12 
REMARK    4  A    between atoms: C9_12  and  N2_13 
REMARK    5  A    between atoms: C13_19  and  N5_20 
ROOT
HETATM    1  N2  LIG X 999      43.665 129.257  23.154  1.00  0.00    -0.114 NA
HETATM    2  N3  LIG X 999      44.473 128.427  22.740  1.00  0.00    -0.168 NA
HETATM    3  N4  LIG X 999      45.282 127.597  22.327  1.00  0.00     0.068 N 
ENDROOT
BRANCH   1   4
HETATM    4  C9  LIG X 999      44.109 130.388  23.954  1.00  0.00     0.208 C 
BRANCH   4   5
HETATM    5  C8  LIG X 999      44.141 131.649  23.090  1.00  0.00     0.147 C 
BRANCH   5   6
HETATM    6  N1  LIG X 999      44.710 131.366  21.772  1.00  0.00    -0.355 N 
HETATM    7  C7  LIG X 999      44.001 131.700  20.569  1.00  0.00     0.251 C 
HETATM    8  O1  LIG X 999      42.941 132.382  20.642  1.00  0.00    -0.268 OA
HETATM    9  H4  LIG X 999      45.668 130.955  21.705  1.00  0.00     0.162 HD
BRANCH   7  10
HETATM   10  C6  LIG X 999      44.499 131.273  19.239  1.00  0.00     0.032 A 
HETATM   11  C1  LIG X 999      45.577 130.383  19.121  1.00  0.00     0.017 A 
HETATM   12  C2  LIG X 999      46.039 129.992  17.864  1.00  0.00     0.011 A 
HETATM   13  C3  LIG X 999      45.445 130.488  16.691  1.00  0.00    -0.024 A 
HETATM   14  C4  LIG X 999      44.318 131.338  16.802  1.00  0.00    -0.049 A 
HETATM   15  C13 LIG X 999      45.937 129.992  15.339  1.00  0.00     0.179 C 
HETATM   16  C5  LIG X 999      43.871 131.737  18.072  1.00  0.00     0.024 A 
HETATM   17  C10 LIG X 999      43.628 131.899  15.581  1.00  0.00     0.039 C 
HETATM   18  C11 LIG X 999      43.884 131.055  14.330  1.00  0.00     0.007 C 
HETATM   19  C12 LIG X 999      45.382 130.814  14.160  1.00  0.00     0.035 C 
BRANCH  15  20
HETATM   20  N5  LIG X 999      47.399 129.969  15.283  1.00  0.00    -0.105 NA
HETATM   21  N6  LIG X 999      48.001 129.689  14.246  1.00  0.00    -0.167 NA
HETATM   22  N7  LIG X 999      48.604 129.409  13.210  1.00  0.00     0.068 N 
ENDBRANCH  15  20
ENDBRANCH   7  10
ENDBRANCH   5   6
ENDBRANCH   4   5
ENDBRANCH   1   4
TORSDOF 5
