REMARK VINA RESULT:      -5.4      2.504      5.913
REMARK  3 active torsions:
REMARK  status: ('A' for Active; 'I' for Inactive)
REMARK    1  A    between atoms: C3_3  and  S1_4 
REMARK    2  A    between atoms: S1_4  and  C4_7 
REMARK    3  A    between atoms: C6_9  and  N1_10 
ROOT
HETATM    1  C1  LIG X 999      48.519 123.300  20.183  1.00  0.00     0.013 C 
HETATM    2  C2  LIG X 999      47.655 123.120  21.005  1.00  0.00    -0.102 C 
HETATM    3  C3  LIG X 999      46.603 122.903  22.002  1.00  0.00     0.238 C 
ENDROOT
BRANCH   3   4
HETATM    4  S1  LIG X 999      46.262 124.417  22.889  1.00  0.00     0.186 S 
HETATM    5  O1  LIG X 999      46.654 125.567  22.002  1.00  0.00    -0.222 OA
HETATM    6  O2  LIG X 999      47.117 124.428  24.125  1.00  0.00    -0.222 OA
BRANCH   4   7
HETATM    7  C4  LIG X 999      44.558 124.605  23.370  1.00  0.00     0.073 A 
HETATM    8  C5  LIG X 999      43.804 123.459  23.677  1.00  0.00     0.058 A 
HETATM    9  C6  LIG X 999      42.451 123.552  24.041  1.00  0.00     0.095 A 
HETATM   10  C7  LIG X 999      41.840 124.803  24.110  1.00  0.00     0.046 A 
HETATM   11  C8  LIG X 999      42.564 125.967  23.827  1.00  0.00    -0.021 A 
HETATM   12  C9  LIG X 999      41.928 127.222  23.917  1.00  0.00     0.022 A 
HETATM   13  C13 LIG X 999      43.942 125.882  23.458  1.00  0.00    -0.004 A 
HETATM   14  C10 LIG X 999      42.666 128.369  23.637  1.00  0.00    -0.024 A 
HETATM   15  C11 LIG X 999      43.978 128.301  23.293  1.00  0.00    -0.024 A 
HETATM   16  C17 LIG X 999      42.213 129.775  23.694  1.00  0.00     0.276 C 
HETATM   17  C12 LIG X 999      44.649 127.082  23.200  1.00  0.00     0.023 A 
HETATM   18  C14 LIG X 999      44.531 129.658  23.088  1.00  0.00     0.276 C 
HETATM   19  N4  LIG X 999      43.363 130.589  23.184  1.00  0.00    -0.067 N 
HETATM   20  C15 LIG X 999      43.040 131.138  21.846  1.00  0.00     0.272 C 
HETATM   21  C16 LIG X 999      43.660 131.709  24.105  1.00  0.00     0.272 C 
BRANCH   9  22
HETATM   22  N1  LIG X 999      41.670 122.388  24.346  1.00  0.00    -0.073 NA
HETATM   23  N2  LIG X 999      40.439 122.389  24.305  1.00  0.00    -0.162 NA
HETATM   24  N3  LIG X 999      39.209 122.389  24.265  1.00  0.00     0.068 N 
ENDBRANCH   9  22
ENDBRANCH   4   7
ENDBRANCH   3   4
TORSDOF 3
