REMARK VINA RESULT:      -5.5      2.171      3.021
REMARK  1 active torsions:
REMARK  status: ('A' for Active; 'I' for Inactive)
REMARK    1  A    between atoms: C7_7  and  N1_8 
ROOT
HETATM    1  N1  LIG X 999      45.836 131.468  16.579  1.00  0.00    -0.110 NA
HETATM    2  N2  LIG X 999      45.594 131.340  15.378  1.00  0.00    -0.167 NA
HETATM    3  N3  LIG X 999      45.353 131.213  14.179  1.00  0.00     0.068 N 
ENDROOT
BRANCH   1   4
HETATM    4  C7  LIG X 999      44.835 132.005  17.497  1.00  0.00     0.153 C 
HETATM    5  C6  LIG X 999      43.463 131.396  17.175  1.00  0.00     0.031 C 
HETATM    6  C5  LIG X 999      42.387 131.958  18.110  1.00  0.00     0.003 C 
HETATM    7  C4  LIG X 999      42.738 131.683  19.576  1.00  0.00     0.009 C 
HETATM    8  C3  LIG X 999      44.122 132.256  19.946  1.00  0.00     0.018 C 
HETATM    9  C2  LIG X 999      44.462 131.871  21.367  1.00  0.00    -0.021 C 
HETATM   10  C8  LIG X 999      45.229 131.755  18.976  1.00  0.00     0.043 C 
HETATM   11  C1  LIG X 999      45.097 130.721  21.629  1.00  0.00    -0.004 C 
HETATM   12  C10 LIG X 999      45.568 129.857  20.530  1.00  0.00    -0.004 C 
HETATM   13  C9  LIG X 999      45.576 130.306  19.269  1.00  0.00    -0.019 C 
ENDBRANCH   1   4
TORSDOF 1
