REMARK VINA RESULT:      -8.6      3.604      6.392
REMARK  3 active torsions:
REMARK  status: ('A' for Active; 'I' for Inactive)
REMARK    1  A    between atoms: C1_1  and  C2_6 
REMARK    2  A    between atoms: N1_2  and  N2_3 
REMARK    3  A    between atoms: C2_6  and  C3_8 
ROOT
HETATM    1  C3  LIG X 999      44.416 131.499  16.976  1.00  0.00     0.016 A 
HETATM    2  C4  LIG X 999      43.063 131.826  17.171  1.00  0.00     0.016 A 
HETATM    3  C5  LIG X 999      42.533 131.924  18.460  1.00  0.00     0.013 A 
HETATM    4  C6  LIG X 999      43.344 131.686  19.577  1.00  0.00    -0.026 A 
HETATM    5  C7  LIG X 999      42.820 131.782  20.876  1.00  0.00     0.012 A 
HETATM    6  C8  LIG X 999      43.639 131.535  21.982  1.00  0.00     0.001 A 
HETATM    7  C9  LIG X 999      44.981 131.189  21.801  1.00  0.00     0.001 A 
HETATM    8  C10 LIG X 999      45.513 131.090  20.513  1.00  0.00     0.012 A 
HETATM    9  C11 LIG X 999      44.704 131.339  19.393  1.00  0.00    -0.025 A 
HETATM   10  C12 LIG X 999      45.228 131.242  18.095  1.00  0.00     0.028 A 
ENDROOT
BRANCH   1  11
HETATM   11  C2  LIG X 999      44.952 131.388  15.597  1.00  0.00     0.201 C 
HETATM   12  O1  LIG X 999      44.248 131.791  14.632  1.00  0.00    -0.286 OA
BRANCH  11  13
HETATM   13  C1  LIG X 999      46.288 130.840  15.301  1.00  0.00     0.195 C 
HETATM   14  N1  LIG X 999      46.426 129.716  14.665  1.00  0.00    -0.164 NA
BRANCH  14  15
HETATM   15  N2  LIG X 999      47.672 129.126  14.381  1.00  0.00    -0.177 N 
HETATM   16  H2  LIG X 999      48.000 128.329  14.969  1.00  0.00     0.214 HD
HETATM   17  N3  LIG X 999      48.403 129.532  13.424  1.00  0.00    -0.031 N 
ENDBRANCH  14  15
ENDBRANCH  11  13
ENDBRANCH   1  11
TORSDOF 3
