REMARK VINA RESULT:      -4.4      0.000      0.000
REMARK  4 active torsions:
REMARK  status: ('A' for Active; 'I' for Inactive)
REMARK    1  A    between atoms: C3_3  and  C4_4 
REMARK    2  A    between atoms: C5_7  and  N3_8 
REMARK    3  A    between atoms: C8_14  and  C9_15 
REMARK    4  A    between atoms: C10_16  and  C11_17 
ROOT
HETATM    1  N3  LIG X 999      39.003 125.382  23.833  1.00  0.00    -0.023 NA
HETATM    2  N4  LIG X 999      38.168 126.286  23.866  1.00  0.00    -0.158 NA
HETATM    3  N5  LIG X 999      37.334 127.190  23.898  1.00  0.00     0.068 N 
ENDROOT
BRANCH   1   4
HETATM    4  C5  LIG X 999      40.397 125.675  23.875  1.00  0.00     0.326 A 
HETATM    5  N2  LIG X 999      40.930 126.655  24.624  1.00  0.00    -0.099 NA
HETATM    6  N1  LIG X 999      42.234 126.614  24.398  1.00  0.00    -0.124 NA
HETATM    7  C4  LIG X 999      42.441 125.613  23.516  1.00  0.00     0.184 A 
HETATM    8  O1  LIG X 999      41.311 125.027  23.194  1.00  0.00    -0.255 OA
BRANCH   7   9
HETATM    9  C3  LIG X 999      43.808 125.206  23.000  1.00  0.00     0.054 C 
HETATM   10  C2  LIG X 999      43.597 124.219  21.861  1.00  0.00    -0.008 C 
HETATM   11  C1  LIG X 999      43.414 122.917  22.116  1.00  0.00    -0.003 C 
HETATM   12  C15 LIG X 999      43.536 122.396  23.492  1.00  0.00    -0.004 C 
HETATM   13  C14 LIG X 999      44.059 123.157  24.461  1.00  0.00    -0.021 C 
HETATM   14  C13 LIG X 999      44.641 124.517  24.138  1.00  0.00     0.030 C 
HETATM   15  C12 LIG X 999      46.126 124.335  23.747  1.00  0.00     0.027 C 
HETATM   16  C8  LIG X 999      46.758 125.660  23.302  1.00  0.00     0.066 C 
HETATM   17  C7  LIG X 999      45.982 126.245  22.116  1.00  0.00     0.019 C 
HETATM   18  C6  LIG X 999      44.519 126.489  22.498  1.00  0.00     0.024 C 
BRANCH  16  19
HETATM   19  C9  LIG X 999      48.163 125.445  22.926  1.00  0.00    -0.090 C 
HETATM   20  C10 LIG X 999      49.315 125.269  22.616  1.00  0.00     0.005 C 
BRANCH  20  21
HETATM   21  C11 LIG X 999      50.687 125.061  22.248  1.00  0.00     0.258 C 
HETATM   22  O2  LIG X 999      51.048 123.954  21.771  1.00  0.00    -0.637 OA
HETATM   23  O3  LIG X 999      51.613 126.080  22.418  1.00  0.00    -0.637 OA
ENDBRANCH  20  21
ENDBRANCH  16  19
ENDBRANCH   7   9
ENDBRANCH   1   4
TORSDOF 4
