REMARK VINA RESULT:      -6.1      4.435      6.727
REMARK  3 active torsions:
REMARK  status: ('A' for Active; 'I' for Inactive)
REMARK    1  A    between atoms: C3_3  and  S1_4 
REMARK    2  A    between atoms: S1_4  and  C4_7 
REMARK    3  A    between atoms: C12_15  and  N1_16 
ROOT
HETATM    1  C1  LIG X 999      45.666 133.369  24.614  1.00  0.00     0.013 C 
HETATM    2  C2  LIG X 999      44.568 132.870  24.619  1.00  0.00    -0.102 C 
HETATM    3  C3  LIG X 999      43.234 132.264  24.623  1.00  0.00     0.233 C 
ENDROOT
BRANCH   3   4
HETATM    4  S1  LIG X 999      43.270 130.643  23.870  1.00  0.00     0.159 S 
HETATM    5  O1  LIG X 999      44.515 129.911  24.289  1.00  0.00    -0.227 OA
HETATM    6  O2  LIG X 999      42.071 129.876  24.352  1.00  0.00    -0.227 OA
BRANCH   4   7
HETATM    7  C4  LIG X 999      43.202 130.760  22.078  1.00  0.00     0.116 C 
HETATM    8  C5  LIG X 999      44.618 130.686  21.492  1.00  0.00     0.059 C 
HETATM    9  C6  LIG X 999      44.639 130.931  20.004  1.00  0.00    -0.049 A 
HETATM   10  C7  LIG X 999      45.753 130.500  19.265  1.00  0.00     0.007 A 
HETATM   11  C11 LIG X 999      43.607 131.656  19.355  1.00  0.00    -0.019 A 
HETATM   12  C8  LIG X 999      45.826 130.734  17.891  1.00  0.00     0.001 A 
HETATM   13  C9  LIG X 999      44.793 131.406  17.241  1.00  0.00     0.001 A 
HETATM   14  C10 LIG X 999      43.686 131.856  17.964  1.00  0.00     0.010 A 
HETATM   15  C12 LIG X 999      42.360 132.101  20.101  1.00  0.00     0.252 C 
HETATM   16  C13 LIG X 999      42.531 132.064  21.634  1.00  0.00     0.060 C 
BRANCH  15  17
HETATM   17  N1  LIG X 999      41.955 133.442  19.667  1.00  0.00     0.087 N 
HETATM   18  H12 LIG X 999      41.906 133.460  18.623  1.00  0.00     0.313 HD
HETATM   19  H13 LIG X 999      40.996 133.649  20.032  1.00  0.00     0.313 HD
ENDBRANCH  15  17
ENDBRANCH   4   7
ENDBRANCH   3   4
TORSDOF 3
