REMARK VINA RESULT:      -8.6      0.000      0.000
REMARK  2 active torsions:
REMARK  status: ('A' for Active; 'I' for Inactive)
REMARK    1  A    between atoms: C10_12  and  N3_13 
REMARK       I    between atoms: N3_13  and  C11_14 
REMARK    2  A    between atoms: C11_14  and  C12_16 
ROOT
HETATM    1  C1  LIG X 999      42.952 130.143  24.021  1.00  0.00     0.272 C 
HETATM    2  N1  LIG X 999      43.387 131.430  23.428  1.00  0.00    -0.067 N 
HETATM    3  C2  LIG X 999      43.459 132.453  24.496  1.00  0.00     0.272 C 
HETATM    4  C3  LIG X 999      42.427 131.850  22.357  1.00  0.00     0.276 C 
HETATM    5  C4  LIG X 999      43.152 131.671  21.080  1.00  0.00    -0.024 A 
HETATM    6  C5  LIG X 999      42.658 131.833  19.785  1.00  0.00     0.021 A 
HETATM    7  C6  LIG X 999      43.534 131.635  18.700  1.00  0.00    -0.024 A 
HETATM    8  C7  LIG X 999      43.082 131.788  17.384  1.00  0.00     0.037 A 
HETATM    9  C8  LIG X 999      43.955 131.595  16.305  1.00  0.00     0.072 A 
HETATM   10  C9  LIG X 999      43.448 131.746  14.963  1.00  0.00     0.102 C 
HETATM   11  N2  LIG X 999      43.041 131.869  13.887  1.00  0.00    -0.191 NA
HETATM   12  C10 LIG X 999      45.299 131.230  16.536  1.00  0.00     0.056 A 
HETATM   13  C13 LIG X 999      45.759 131.093  17.858  1.00  0.00     0.043 A 
HETATM   14  C14 LIG X 999      44.891 131.285  18.941  1.00  0.00    -0.023 A 
HETATM   15  C15 LIG X 999      45.353 131.142  20.264  1.00  0.00     0.021 A 
HETATM   16  C16 LIG X 999      44.452 131.339  21.312  1.00  0.00    -0.024 A 
HETATM   17  C17 LIG X 999      44.719 131.264  22.764  1.00  0.00     0.276 C 
ENDROOT
BRANCH  12  18
HETATM   18  N3  LIG X 999      46.206 131.056  15.431  1.00  0.00    -0.323 N 
HETATM   19  C11 LIG X 999      46.339 129.826  14.700  1.00  0.00     0.255 C 
HETATM   20  O1  LIG X 999      45.518 128.886  14.877  1.00  0.00    -0.270 OA
HETATM   21  H11 LIG X 999      46.751 131.883  15.100  1.00  0.00     0.169 HD
BRANCH  19  22
HETATM   22  C12 LIG X 999      47.423 129.668  13.677  1.00  0.00     0.270 C 
HETATM   23 CL1  LIG X 999      48.980 129.332  14.474  1.00  0.00    -0.098 Cl
HETATM   24 CL2  LIG X 999      47.560 131.150  12.700  1.00  0.00    -0.098 Cl
ENDBRANCH  19  22
ENDBRANCH  12  18
TORSDOF 2
