REMARK VINA RESULT:      -5.9      2.115      5.128
REMARK  1 active torsions:
REMARK  status: ('A' for Active; 'I' for Inactive)
REMARK    1  A    between atoms: N1_2  and  C1_3 
ROOT
HETATM    1  C1  LIG X 999      43.114 131.867  17.577  1.00  0.00     0.120 C 
HETATM    2  C2  LIG X 999      42.855 132.091  16.230  1.00  0.00     0.057 C 
HETATM    3  C3  LIG X 999      43.740 131.625  15.247  1.00  0.00    -0.045 C 
HETATM    4  C4  LIG X 999      43.225 131.641  13.829  1.00  0.00     0.049 C 
HETATM    5  C5  LIG X 999      44.984 131.042  15.648  1.00  0.00     0.008 C 
HETATM    6  C6  LIG X 999      46.070 130.721  14.765  1.00  0.00    -0.013 C 
HETATM    7  C7  LIG X 999      46.221 131.287  13.477  1.00  0.00     0.013 C 
HETATM    8  C8  LIG X 999      47.264 130.897  12.633  1.00  0.00     0.001 C 
HETATM    9  C9  LIG X 999      48.211 129.975  13.068  1.00  0.00     0.001 C 
HETATM   10  C10 LIG X 999      48.152 129.480  14.369  1.00  0.00     0.012 C 
HETATM   11  C11 LIG X 999      47.117 129.874  15.231  1.00  0.00    -0.025 C 
HETATM   12  C12 LIG X 999      47.155 129.474  16.568  1.00  0.00     0.014 C 
HETATM   13  C13 LIG X 999      46.206 129.941  17.467  1.00  0.00     0.031 C 
HETATM   14  C14 LIG X 999      45.131 130.725  17.031  1.00  0.00     0.045 C 
HETATM   15  N2  LIG X 999      44.217 131.161  17.945  1.00  0.00    -0.341 N 
HETATM   16  H12 LIG X 999      44.365 130.949  18.960  1.00  0.00     0.167 HD
ENDROOT
BRANCH   1  17
HETATM   17  N1  LIG X 999      42.277 132.296  18.469  1.00  0.00    -0.284 NA
HETATM   18  H1  LIG X 999      41.248 132.141  18.387  1.00  0.00     0.188 HD
ENDBRANCH   1  17
TORSDOF 1
