REMARK VINA RESULT:      -5.8      1.000      2.415
REMARK  3 active torsions:
REMARK  status: ('A' for Active; 'I' for Inactive)
REMARK    1  A    between atoms: C2_2  and  O1_3 
REMARK    2  A    between atoms: O1_3  and  C3_4 
REMARK       I    between atoms: C3_4  and  N1_6 
REMARK    3  A    between atoms: N1_6  and  C4_7 
ROOT
HETATM    1  C4  LIG X 999      45.776 130.717  16.948  1.00  0.00     0.063 A 
HETATM    2  C5  LIG X 999      44.592 131.357  16.561  1.00  0.00     0.032 A 
HETATM    3  C6  LIG X 999      43.650 131.754  17.514  1.00  0.00     0.014 A 
HETATM    4  C7  LIG X 999      43.887 131.529  18.876  1.00  0.00    -0.025 A 
HETATM    5  C8  LIG X 999      42.946 131.927  19.844  1.00  0.00     0.021 A 
HETATM    6  C9  LIG X 999      43.230 131.688  21.190  1.00  0.00    -0.024 A 
HETATM    7  C10 LIG X 999      44.390 131.092  21.579  1.00  0.00    -0.024 A 
HETATM    8  C11 LIG X 999      45.353 130.690  20.652  1.00  0.00     0.021 A 
HETATM    9  C12 LIG X 999      45.101 130.903  19.283  1.00  0.00    -0.023 A 
HETATM   10  C13 LIG X 999      46.038 130.512  18.315  1.00  0.00     0.044 A 
HETATM   11  C14 LIG X 999      44.451 130.988  23.053  1.00  0.00     0.276 C 
HETATM   12  N2  LIG X 999      43.113 131.443  23.546  1.00  0.00    -0.067 N 
HETATM   13  C15 LIG X 999      42.344 130.287  24.067  1.00  0.00     0.272 C 
HETATM   14  C16 LIG X 999      43.266 132.445  24.625  1.00  0.00     0.272 C 
HETATM   15  C17 LIG X 999      42.406 132.039  22.367  1.00  0.00     0.276 C 
ENDROOT
BRANCH   1  16
HETATM   16  N1  LIG X 999      46.717 130.341  15.931  1.00  0.00    -0.188 NA
HETATM   17  C3  LIG X 999      46.506 130.432  14.519  1.00  0.00     0.387 C 
HETATM   18  O2  LIG X 999      47.309 129.850  13.741  1.00  0.00    -0.236 OA
BRANCH  17  19
HETATM   19  O1  LIG X 999      45.455 131.197  14.006  1.00  0.00    -0.303 OA
BRANCH  19  20
HETATM   20  C2  LIG X 999      44.156 130.664  13.769  1.00  0.00     0.176 C 
HETATM   21  C1  LIG X 999      43.141 131.795  13.742  1.00  0.00     0.034 C 
ENDBRANCH  19  20
ENDBRANCH  17  19
ENDBRANCH   1  16
TORSDOF 3
