REMARK VINA RESULT:      -7.2      1.634      2.886
REMARK  3 active torsions:
REMARK  status: ('A' for Active; 'I' for Inactive)
REMARK    1  A    between atoms: C7_9  and  C8_10 
REMARK    2  A    between atoms: C9_13  and  N4_14 
REMARK    3  A    between atoms: N7_23  and  C14_24 
ROOT
HETATM    1  N4  LIG X 999      46.886 131.362  13.858  1.00  0.00    -0.023 NA
HETATM    2  N5  LIG X 999      47.666 130.437  13.635  1.00  0.00    -0.158 NA
HETATM    3  N6  LIG X 999      48.447 129.513  13.412  1.00  0.00     0.068 N 
ENDROOT
BRANCH   1   4
HETATM    4  C9  LIG X 999      45.749 131.170  14.698  1.00  0.00     0.326 A 
HETATM    5  N3  LIG X 999      44.738 130.336  14.402  1.00  0.00    -0.099 NA
HETATM    6  N2  LIG X 999      43.884 130.434  15.410  1.00  0.00    -0.119 NA
HETATM    7  C8  LIG X 999      44.407 131.328  16.273  1.00  0.00     0.205 A 
HETATM    8  O1  LIG X 999      45.562 131.779  15.843  1.00  0.00    -0.252 OA
BRANCH   7   9
HETATM    9  C7  LIG X 999      43.781 131.698  17.559  1.00  0.00     0.032 A 
HETATM   10  C6  LIG X 999      44.319 131.314  18.827  1.00  0.00     0.020 A 
HETATM   11  C1  LIG X 999      45.645 130.682  19.135  1.00  0.00     0.060 A 
HETATM   12  C5  LIG X 999      43.556 131.625  19.938  1.00  0.00     0.019 A 
HETATM   13  N1  LIG X 999      46.534 130.496  18.212  1.00  0.00    -0.299 NA
HETATM   14  C2  LIG X 999      45.976 130.357  20.565  1.00  0.00     0.034 A 
HETATM   15  H1  LIG X 999      47.473 130.090  18.420  1.00  0.00     0.187 HD
HETATM   16  C3  LIG X 999      45.139 130.687  21.570  1.00  0.00     0.033 A 
HETATM   17  C4  LIG X 999      43.876 131.361  21.233  1.00  0.00     0.048 A 
HETATM   18  N7  LIG X 999      42.910 131.851  22.048  1.00  0.00    -0.324 N 
HETATM   19  C13 LIG X 999      41.995 132.441  21.229  1.00  0.00     0.193 A 
HETATM   20  C12 LIG X 999      42.381 132.302  19.906  1.00  0.00     0.032 A 
HETATM   21  O2  LIG X 999      40.856 133.101  21.672  1.00  0.00    -0.171 OA
HETATM   22  C11 LIG X 999      41.843 132.737  18.701  1.00  0.00     0.018 A 
HETATM   23  C10 LIG X 999      42.552 132.425  17.519  1.00  0.00     0.018 A 
BRANCH  18  24
HETATM   24  C14 LIG X 999      42.902 131.853  23.511  1.00  0.00     0.127 C 
HETATM   25  C15 LIG X 999      42.389 130.519  24.038  1.00  0.00     0.027 C 
ENDBRANCH  18  24
ENDBRANCH   7   9
ENDBRANCH   1   4
TORSDOF 3
