MODEL 1
REMARK VINA RESULT:      -8.7      0.000      0.000
REMARK  1 active torsions:
REMARK  status: ('A' for Active; 'I' for Inactive)
REMARK    1  A    between atoms: C12_13  and  N2_14 
ROOT
HETATM    1  C1  LIG X 999      45.188 129.942  14.880  1.00  0.00     0.272 C 
HETATM    2  N1  LIG X 999      45.341 131.000  15.905  1.00  0.00    -0.067 N 
HETATM    3  C2  LIG X 999      46.124 132.120  15.328  1.00  0.00     0.272 C 
HETATM    4  C3  LIG X 999      46.032 130.464  17.118  1.00  0.00     0.276 C 
HETATM    5  C4  LIG X 999      45.203 130.885  18.267  1.00  0.00    -0.021 A 
HETATM    6  C5  LIG X 999      45.494 130.727  19.617  1.00  0.00     0.022 A 
HETATM    7  C6  LIG X 999      44.562 131.176  20.569  1.00  0.00    -0.023 A 
HETATM    8  C7  LIG X 999      44.837 131.021  21.935  1.00  0.00     0.012 A 
HETATM    9  C8  LIG X 999      43.915 131.444  22.892  1.00  0.00     0.001 A 
HETATM   10  C9  LIG X 999      42.710 132.019  22.495  1.00  0.00     0.001 A 
HETATM   11  C10 LIG X 999      42.416 132.186  21.139  1.00  0.00     0.014 A 
HETATM   12  C11 LIG X 999      43.336 131.780  20.148  1.00  0.00     0.001 A 
HETATM   13  C12 LIG X 999      43.077 131.934  18.753  1.00  0.00     0.045 A 
HETATM   14  C13 LIG X 999      44.044 131.463  17.846  1.00  0.00     0.003 A 
HETATM   15  C14 LIG X 999      44.003 131.491  16.363  1.00  0.00     0.278 C 
ENDROOT
BRANCH  13  16
HETATM   16  N2  LIG X 999      41.881 132.552  18.250  1.00  0.00    -0.398 N 
HETATM   17  H14 LIG X 999      41.635 133.531  18.515  1.00  0.00     0.156 HD
HETATM   18  H15 LIG X 999      41.177 132.043  17.678  1.00  0.00     0.156 HD
ENDBRANCH  13  16
TORSDOF 1
ENDMDL
MODEL 2
REMARK VINA RESULT:      -8.1      1.366      5.210
REMARK  1 active torsions:
REMARK  status: ('A' for Active; 'I' for Inactive)
REMARK    1  A    between atoms: C12_13  and  N2_14 
ROOT
HETATM    1  C1  LIG X 999      43.907 132.141  23.346  1.00  0.00     0.272 C 
HETATM    2  N1  LIG X 999      43.662 131.194  22.234  1.00  0.00    -0.067 N 
HETATM    3  C2  LIG X 999      42.955 130.002  22.763  1.00  0.00     0.272 C 
HETATM    4  C3  LIG X 999      44.950 130.783  21.595  1.00  0.00     0.276 C 
HETATM    5  C4  LIG X 999      44.749 130.963  20.142  1.00  0.00    -0.021 A 
HETATM    6  C5  LIG X 999      45.622 130.603  19.122  1.00  0.00     0.022 A 
HETATM    7  C6  LIG X 999      45.260 130.877  17.791  1.00  0.00    -0.023 A 
HETATM    8  C7  LIG X 999      46.131 130.525  16.749  1.00  0.00     0.012 A 
HETATM    9  C8  LIG X 999      45.795 130.807  15.426  1.00  0.00     0.001 A 
HETATM   10  C9  LIG X 999      44.593 131.447  15.130  1.00  0.00     0.001 A 
HETATM   11  C10 LIG X 999      43.710 131.806  16.152  1.00  0.00     0.014 A 
HETATM   12  C11 LIG X 999      44.016 131.520  17.501  1.00  0.00     0.001 A 
HETATM   13  C12 LIG X 999      43.142 131.865  18.575  1.00  0.00     0.045 A 
HETATM   14  C13 LIG X 999      43.557 131.569  19.885  1.00  0.00     0.003 A 
HETATM   15  C14 LIG X 999      42.845 131.840  21.159  1.00  0.00     0.278 C 
ENDROOT
BRANCH  13  16
HETATM   16  N2  LIG X 999      41.865 132.491  18.365  1.00  0.00    -0.398 N 
HETATM   17  H14 LIG X 999      40.980 131.969  18.545  1.00  0.00     0.156 HD
HETATM   18  H15 LIG X 999      41.759 133.441  17.955  1.00  0.00     0.156 HD
ENDBRANCH  13  16
TORSDOF 1
ENDMDL
MODEL 3
REMARK VINA RESULT:      -7.6      1.333      2.514
REMARK  1 active torsions:
REMARK  status: ('A' for Active; 'I' for Inactive)
REMARK    1  A    between atoms: C12_13  and  N2_14 
ROOT
HETATM    1  C1  LIG X 999      46.393 131.400  14.824  1.00  0.00     0.272 C 
HETATM    2  N1  LIG X 999      45.498 130.677  15.757  1.00  0.00    -0.067 N 
HETATM    3  C2  LIG X 999      45.163 129.355  15.176  1.00  0.00     0.272 C 
HETATM    4  C3  LIG X 999      44.247 131.460  16.002  1.00  0.00     0.276 C 
HETATM    5  C4  LIG X 999      44.080 131.492  17.470  1.00  0.00    -0.021 A 
HETATM    6  C5  LIG X 999      43.000 132.003  18.182  1.00  0.00     0.022 A 
HETATM    7  C6  LIG X 999      43.034 131.963  19.587  1.00  0.00    -0.023 A 
HETATM    8  C7  LIG X 999      41.956 132.478  20.322  1.00  0.00     0.012 A 
HETATM    9  C8  LIG X 999      41.983 132.462  21.716  1.00  0.00     0.001 A 
HETATM   10  C9  LIG X 999      43.085 131.941  22.389  1.00  0.00     0.001 A 
HETATM   11  C10 LIG X 999      44.170 131.421  21.677  1.00  0.00     0.014 A 
HETATM   12  C11 LIG X 999      44.165 131.409  20.265  1.00  0.00     0.001 A 
HETATM   13  C12 LIG X 999      45.250 130.886  19.499  1.00  0.00     0.045 A 
HETATM   14  C13 LIG X 999      45.162 130.956  18.098  1.00  0.00     0.003 A 
HETATM   15  C14 LIG X 999      46.154 130.501  17.091  1.00  0.00     0.278 C 
ENDROOT
BRANCH  13  16
HETATM   16  N2  LIG X 999      46.410 130.292  20.104  1.00  0.00    -0.398 N 
HETATM   17  H14 LIG X 999      46.780 130.649  21.012  1.00  0.00     0.156 HD
HETATM   18  H15 LIG X 999      46.974 129.549  19.643  1.00  0.00     0.156 HD
ENDBRANCH  13  16
TORSDOF 1
ENDMDL
MODEL 4
REMARK VINA RESULT:      -6.0      2.116      5.860
REMARK  1 active torsions:
REMARK  status: ('A' for Active; 'I' for Inactive)
REMARK    1  A    between atoms: C12_13  and  N2_14 
ROOT
HETATM    1  C1  LIG X 999      42.997 130.596  24.624  1.00  0.00     0.272 C 
HETATM    2  N1  LIG X 999      43.456 131.580  23.617  1.00  0.00    -0.067 N 
HETATM    3  C2  LIG X 999      43.776 132.856  24.301  1.00  0.00     0.272 C 
HETATM    4  C3  LIG X 999      42.402 131.806  22.580  1.00  0.00     0.276 C 
HETATM    5  C4  LIG X 999      43.090 131.672  21.278  1.00  0.00    -0.021 A 
HETATM    6  C5  LIG X 999      42.557 131.912  20.017  1.00  0.00     0.022 A 
HETATM    7  C6  LIG X 999      43.367 131.707  18.887  1.00  0.00    -0.023 A 
HETATM    8  C7  LIG X 999      42.844 131.939  17.607  1.00  0.00     0.012 A 
HETATM    9  C8  LIG X 999      43.630 131.722  16.475  1.00  0.00     0.001 A 
HETATM   10  C9  LIG X 999      44.940 131.266  16.610  1.00  0.00     0.001 A 
HETATM   11  C10 LIG X 999      45.482 131.030  17.876  1.00  0.00     0.014 A 
HETATM   12  C11 LIG X 999      44.715 131.254  19.040  1.00  0.00     0.001 A 
HETATM   13  C12 LIG X 999      45.231 131.029  20.352  1.00  0.00     0.045 A 
HETATM   14  C13 LIG X 999      44.373 131.247  21.445  1.00  0.00     0.003 A 
HETATM   15  C14 LIG X 999      44.661 131.070  22.890  1.00  0.00     0.278 C 
ENDROOT
BRANCH  13  16
HETATM   16  N2  LIG X 999      46.580 130.597  20.591  1.00  0.00    -0.398 N 
HETATM   17  H14 LIG X 999      47.380 131.046  20.092  1.00  0.00     0.156 HD
HETATM   18  H15 LIG X 999      46.818 129.784  21.195  1.00  0.00     0.156 HD
ENDBRANCH  13  16
TORSDOF 1
ENDMDL
