MODEL 1
REMARK VINA RESULT:      -8.7      0.000      0.000
REMARK  3 active torsions:
REMARK  status: ('A' for Active; 'I' for Inactive)
REMARK    1  A    between atoms: C6_6  and  C7_7 
REMARK    2  A    between atoms: C7_7  and  N1_8 
REMARK    3  A    between atoms: C8_12  and  N4_13 
ROOT
HETATM    1  N1  LIG X 999      45.037 131.832  15.208  1.00  0.00    -0.065 NA
HETATM    2  N2  LIG X 999      44.041 131.726  14.490  1.00  0.00    -0.164 NA
HETATM    3  N3  LIG X 999      43.048 131.621  13.774  1.00  0.00     0.068 N 
ENDROOT
BRANCH   1   4
HETATM    4  C7  LIG X 999      45.242 130.926  16.331  1.00  0.00     0.267 A 
HETATM    5  O1  LIG X 999      46.605 130.619  16.514  1.00  0.00    -0.314 OA
HETATM    6  C8  LIG X 999      45.780 129.570  16.052  1.00  0.00     0.349 A 
BRANCH   4   7
HETATM    7  C6  LIG X 999      44.519 131.200  17.616  1.00  0.00     0.007 A 
HETATM    8  C5  LIG X 999      45.167 131.014  18.846  1.00  0.00     0.024 A 
HETATM    9  C4  LIG X 999      44.496 131.295  20.047  1.00  0.00    -0.025 A 
HETATM   10  C3  LIG X 999      45.134 131.107  21.284  1.00  0.00     0.012 A 
HETATM   11  C11 LIG X 999      43.165 131.776  20.011  1.00  0.00    -0.026 A 
HETATM   12  C2  LIG X 999      44.456 131.390  22.473  1.00  0.00     0.001 A 
HETATM   13  C1  LIG X 999      43.142 131.864  22.437  1.00  0.00     0.001 A 
HETATM   14  C12 LIG X 999      42.496 132.058  21.213  1.00  0.00     0.012 A 
HETATM   15  C10 LIG X 999      42.529 131.970  18.776  1.00  0.00     0.013 A 
HETATM   16  C9  LIG X 999      43.206 131.687  17.586  1.00  0.00     0.013 A 
ENDBRANCH   4   7
BRANCH   6  17
HETATM   17  N4  LIG X 999      46.078 129.267  14.660  1.00  0.00    -0.077 NA
HETATM   18  N5  LIG X 999      47.226 129.363  14.229  1.00  0.00    -0.165 NA
HETATM   19  N6  LIG X 999      48.374 129.461  13.799  1.00  0.00     0.068 N 
ENDBRANCH   6  17
ENDBRANCH   1   4
TORSDOF 3
ENDMDL
MODEL 2
REMARK VINA RESULT:      -8.2      1.098      1.953
REMARK  3 active torsions:
REMARK  status: ('A' for Active; 'I' for Inactive)
REMARK    1  A    between atoms: C6_6  and  C7_7 
REMARK    2  A    between atoms: C7_7  and  N1_8 
REMARK    3  A    between atoms: C8_12  and  N4_13 
ROOT
HETATM    1  N1  LIG X 999      44.422 130.195  15.143  1.00  0.00    -0.065 NA
HETATM    2  N2  LIG X 999      43.776 130.978  14.447  1.00  0.00    -0.164 NA
HETATM    3  N3  LIG X 999      43.131 131.760  13.751  1.00  0.00     0.068 N 
ENDROOT
BRANCH   1   4
HETATM    4  C7  LIG X 999      45.452 130.684  16.051  1.00  0.00     0.267 A 
HETATM    5  O1  LIG X 999      46.191 131.742  15.485  1.00  0.00    -0.314 OA
HETATM    6  C8  LIG X 999      46.875 130.519  15.657  1.00  0.00     0.349 A 
BRANCH   4   7
HETATM    7  C6  LIG X 999      45.091 130.917  17.488  1.00  0.00     0.007 A 
HETATM    8  C5  LIG X 999      43.898 131.576  17.820  1.00  0.00     0.024 A 
HETATM    9  C4  LIG X 999      43.550 131.771  19.166  1.00  0.00    -0.025 A 
HETATM   10  C3  LIG X 999      42.361 132.435  19.509  1.00  0.00     0.012 A 
HETATM   11  C11 LIG X 999      44.403 131.291  20.188  1.00  0.00    -0.026 A 
HETATM   12  C2  LIG X 999      42.025 132.623  20.853  1.00  0.00     0.001 A 
HETATM   13  C1  LIG X 999      42.868 132.150  21.861  1.00  0.00     0.001 A 
HETATM   14  C12 LIG X 999      44.054 131.485  21.534  1.00  0.00     0.012 A 
HETATM   15  C10 LIG X 999      45.589 130.623  19.847  1.00  0.00     0.013 A 
HETATM   16  C9  LIG X 999      45.926 130.434  18.504  1.00  0.00     0.013 A 
ENDBRANCH   4   7
BRANCH   6  17
HETATM   17  N4  LIG X 999      47.118 129.889  14.368  1.00  0.00    -0.077 NA
HETATM   18  N5  LIG X 999      47.558 130.543  13.423  1.00  0.00    -0.165 NA
HETATM   19  N6  LIG X 999      47.998 131.198  12.479  1.00  0.00     0.068 N 
ENDBRANCH   6  17
ENDBRANCH   1   4
TORSDOF 3
ENDMDL
MODEL 3
REMARK VINA RESULT:      -7.7      4.397      6.623
REMARK  3 active torsions:
REMARK  status: ('A' for Active; 'I' for Inactive)
REMARK    1  A    between atoms: C6_6  and  C7_7 
REMARK    2  A    between atoms: C7_7  and  N1_8 
REMARK    3  A    between atoms: C8_12  and  N4_13 
ROOT
HETATM    1  N1  LIG X 999      45.856 131.220  20.804  1.00  0.00    -0.065 NA
HETATM    2  N2  LIG X 999      46.449 132.238  21.165  1.00  0.00    -0.164 NA
HETATM    3  N3  LIG X 999      47.040 133.254  21.525  1.00  0.00     0.068 N 
ENDROOT
BRANCH   1   4
HETATM    4  C7  LIG X 999      44.612 131.312  20.052  1.00  0.00     0.267 A 
HETATM    5  O1  LIG X 999      43.763 132.315  20.562  1.00  0.00    -0.314 OA
HETATM    6  C8  LIG X 999      43.342 130.980  20.747  1.00  0.00     0.349 A 
BRANCH   4   7
HETATM    7  C6  LIG X 999      44.676 131.298  18.554  1.00  0.00     0.007 A 
HETATM    8  C5  LIG X 999      45.775 130.723  17.898  1.00  0.00     0.024 A 
HETATM    9  C4  LIG X 999      45.822 130.689  16.495  1.00  0.00    -0.025 A 
HETATM   10  C3  LIG X 999      46.920 130.122  15.829  1.00  0.00     0.012 A 
HETATM   11  C11 LIG X 999      44.750 131.228  15.744  1.00  0.00    -0.026 A 
HETATM   12  C2  LIG X 999      46.955 130.093  14.432  1.00  0.00     0.001 A 
HETATM   13  C1  LIG X 999      45.898 130.626  13.691  1.00  0.00     0.001 A 
HETATM   14  C12 LIG X 999      44.797 131.192  14.341  1.00  0.00     0.012 A 
HETATM   15  C10 LIG X 999      43.650 131.791  16.408  1.00  0.00     0.013 A 
HETATM   16  C9  LIG X 999      43.614 131.821  17.804  1.00  0.00     0.013 A 
ENDBRANCH   4   7
BRANCH   6  17
HETATM   17  N4  LIG X 999      43.453 130.603  22.148  1.00  0.00    -0.077 NA
HETATM   18  N5  LIG X 999      42.864 131.243  23.018  1.00  0.00    -0.165 NA
HETATM   19  N6  LIG X 999      42.274 131.884  23.887  1.00  0.00     0.068 N 
ENDBRANCH   6  17
ENDBRANCH   1   4
TORSDOF 3
ENDMDL
MODEL 4
REMARK VINA RESULT:      -7.7      3.819      6.346
REMARK  3 active torsions:
REMARK  status: ('A' for Active; 'I' for Inactive)
REMARK    1  A    between atoms: C6_6  and  C7_7 
REMARK    2  A    between atoms: C7_7  and  N1_8 
REMARK    3  A    between atoms: C8_12  and  N4_13 
ROOT
HETATM    1  N1  LIG X 999      43.391 130.985  18.829  1.00  0.00    -0.065 NA
HETATM    2  N2  LIG X 999      42.737 131.975  19.157  1.00  0.00    -0.164 NA
HETATM    3  N3  LIG X 999      42.084 132.964  19.484  1.00  0.00     0.068 N 
ENDROOT
BRANCH   1   4
HETATM    4  C7  LIG X 999      44.845 131.050  18.741  1.00  0.00     0.267 A 
HETATM    5  O1  LIG X 999      45.463 130.083  19.559  1.00  0.00    -0.314 OA
HETATM    6  C8  LIG X 999      45.607 131.430  19.958  1.00  0.00     0.349 A 
BRANCH   4   7
HETATM    7  C6  LIG X 999      45.478 131.171  17.387  1.00  0.00     0.007 A 
HETATM    8  C5  LIG X 999      46.177 130.089  16.832  1.00  0.00     0.024 A 
HETATM    9  C4  LIG X 999      46.747 130.197  15.555  1.00  0.00    -0.025 A 
HETATM   10  C3  LIG X 999      47.454 129.122  14.993  1.00  0.00     0.012 A 
HETATM   11  C11 LIG X 999      46.606 131.400  14.822  1.00  0.00    -0.026 A 
HETATM   12  C2  LIG X 999      48.017 129.241  13.719  1.00  0.00     0.001 A 
HETATM   13  C1  LIG X 999      47.878 130.429  12.998  1.00  0.00     0.001 A 
HETATM   14  C12 LIG X 999      47.176 131.507  13.543  1.00  0.00     0.012 A 
HETATM   15  C10 LIG X 999      45.895 132.474  15.381  1.00  0.00     0.013 A 
HETATM   16  C9  LIG X 999      45.332 132.356  16.653  1.00  0.00     0.013 A 
ENDBRANCH   4   7
BRANCH   6  17
HETATM   17  N4  LIG X 999      44.823 131.690  21.156  1.00  0.00    -0.077 NA
HETATM   18  N5  LIG X 999      44.623 130.799  21.981  1.00  0.00    -0.165 NA
HETATM   19  N6  LIG X 999      44.424 129.908  22.805  1.00  0.00     0.068 N 
ENDBRANCH   6  17
ENDBRANCH   1   4
TORSDOF 3
ENDMDL
MODEL 5
REMARK VINA RESULT:      -6.9      3.843      6.643
REMARK  3 active torsions:
REMARK  status: ('A' for Active; 'I' for Inactive)
REMARK    1  A    between atoms: C6_6  and  C7_7 
REMARK    2  A    between atoms: C7_7  and  N1_8 
REMARK    3  A    between atoms: C8_12  and  N4_13 
ROOT
HETATM    1  N1  LIG X 999      45.471 130.729  19.691  1.00  0.00    -0.065 NA
HETATM    2  N2  LIG X 999      46.081 131.440  20.489  1.00  0.00    -0.164 NA
HETATM    3  N3  LIG X 999      46.690 132.150  21.286  1.00  0.00     0.068 N 
ENDROOT
BRANCH   1   4
HETATM    4  C7  LIG X 999      44.771 131.316  18.555  1.00  0.00     0.267 A 
HETATM    5  O1  LIG X 999      44.169 132.546  18.890  1.00  0.00    -0.314 OA
HETATM    6  C8  LIG X 999      43.296 131.465  18.638  1.00  0.00     0.349 A 
BRANCH   4   7
HETATM    7  C6  LIG X 999      45.457 131.337  17.222  1.00  0.00     0.007 A 
HETATM    8  C5  LIG X 999      46.134 130.201  16.756  1.00  0.00     0.024 A 
HETATM    9  C4  LIG X 999      46.755 130.214  15.497  1.00  0.00    -0.025 A 
HETATM   10  C3  LIG X 999      47.440 129.083  15.025  1.00  0.00     0.012 A 
HETATM   11  C11 LIG X 999      46.686 131.377  14.693  1.00  0.00    -0.026 A 
HETATM   12  C2  LIG X 999      48.054 129.108  13.769  1.00  0.00     0.001 A 
HETATM   13  C1  LIG X 999      47.987 130.258  12.977  1.00  0.00     0.001 A 
HETATM   14  C12 LIG X 999      47.306 131.390  13.434  1.00  0.00     0.012 A 
HETATM   15  C10 LIG X 999      45.997 132.506  15.163  1.00  0.00     0.013 A 
HETATM   16  C9  LIG X 999      45.383 132.482  16.417  1.00  0.00     0.013 A 
ENDBRANCH   4   7
BRANCH   6  17
HETATM   17  N4  LIG X 999      42.670 131.020  19.874  1.00  0.00    -0.077 NA
HETATM   18  N5  LIG X 999      42.606 131.768  20.849  1.00  0.00    -0.165 NA
HETATM   19  N6  LIG X 999      42.542 132.516  21.823  1.00  0.00     0.068 N 
ENDBRANCH   6  17
ENDBRANCH   1   4
TORSDOF 3
ENDMDL
MODEL 6
REMARK VINA RESULT:      -6.3      5.405      6.757
REMARK  3 active torsions:
REMARK  status: ('A' for Active; 'I' for Inactive)
REMARK    1  A    between atoms: C6_6  and  C7_7 
REMARK    2  A    between atoms: C7_7  and  N1_8 
REMARK    3  A    between atoms: C8_12  and  N4_13 
ROOT
HETATM    1  N1  LIG X 999      44.849 131.785  22.724  1.00  0.00    -0.065 NA
HETATM    2  N2  LIG X 999      44.212 132.238  23.675  1.00  0.00    -0.164 NA
HETATM    3  N3  LIG X 999      43.575 132.689  24.625  1.00  0.00     0.068 N 
ENDROOT
BRANCH   1   4
HETATM    4  C7  LIG X 999      44.267 130.769  21.855  1.00  0.00     0.267 A 
HETATM    5  O1  LIG X 999      43.076 130.240  22.391  1.00  0.00    -0.314 OA
HETATM    6  C8  LIG X 999      44.191 129.373  22.356  1.00  0.00     0.349 A 
BRANCH   4   7
HETATM    7  C6  LIG X 999      44.182 131.047  20.384  1.00  0.00     0.007 A 
HETATM    8  C5  LIG X 999      45.221 130.653  19.527  1.00  0.00     0.024 A 
HETATM    9  C4  LIG X 999      45.128 130.891  18.148  1.00  0.00    -0.025 A 
HETATM   10  C3  LIG X 999      46.164 130.506  17.283  1.00  0.00     0.012 A 
HETATM   11  C11 LIG X 999      43.976 131.524  17.621  1.00  0.00    -0.026 A 
HETATM   12  C2  LIG X 999      46.060 130.749  15.910  1.00  0.00     0.001 A 
HETATM   13  C1  LIG X 999      44.924 131.375  15.391  1.00  0.00     0.001 A 
HETATM   14  C12 LIG X 999      43.883 131.762  16.240  1.00  0.00     0.012 A 
HETATM   15  C10 LIG X 999      42.937 131.906  18.484  1.00  0.00     0.013 A 
HETATM   16  C9  LIG X 999      43.040 131.663  19.856  1.00  0.00     0.013 A 
ENDBRANCH   4   7
BRANCH   6  17
HETATM   17  N4  LIG X 999      44.695 129.142  23.702  1.00  0.00    -0.077 NA
HETATM   18  N5  LIG X 999      44.955 128.002  24.087  1.00  0.00    -0.165 NA
HETATM   19  N6  LIG X 999      45.214 126.863  24.471  1.00  0.00     0.068 N 
ENDBRANCH   6  17
ENDBRANCH   1   4
TORSDOF 3
ENDMDL
MODEL 7
REMARK VINA RESULT:      -6.2      5.193      6.889
REMARK  3 active torsions:
REMARK  status: ('A' for Active; 'I' for Inactive)
REMARK    1  A    between atoms: C6_6  and  C7_7 
REMARK    2  A    between atoms: C7_7  and  N1_8 
REMARK    3  A    between atoms: C8_12  and  N4_13 
ROOT
HETATM    1  N1  LIG X 999      45.035 130.205  22.289  1.00  0.00    -0.065 NA
HETATM    2  N2  LIG X 999      44.928 128.979  22.344  1.00  0.00    -0.164 NA
HETATM    3  N3  LIG X 999      44.822 127.756  22.399  1.00  0.00     0.068 N 
ENDROOT
BRANCH   1   4
HETATM    4  C7  LIG X 999      43.977 131.017  21.702  1.00  0.00     0.267 A 
HETATM    5  O1  LIG X 999      43.773 132.212  22.422  1.00  0.00    -0.314 OA
HETATM    6  C8  LIG X 999      42.744 131.248  22.496  1.00  0.00     0.349 A 
BRANCH   4   7
HETATM    7  C6  LIG X 999      43.963 131.213  20.215  1.00  0.00     0.007 A 
HETATM    8  C5  LIG X 999      45.060 130.813  19.438  1.00  0.00     0.024 A 
HETATM    9  C4  LIG X 999      45.035 130.974  18.044  1.00  0.00    -0.025 A 
HETATM   10  C3  LIG X 999      46.130 130.582  17.258  1.00  0.00     0.012 A 
HETATM   11  C11 LIG X 999      43.892 131.534  17.423  1.00  0.00    -0.026 A 
HETATM   12  C2  LIG X 999      46.092 130.747  15.870  1.00  0.00     0.001 A 
HETATM   13  C1  LIG X 999      44.965 131.301  15.258  1.00  0.00     0.001 A 
HETATM   14  C12 LIG X 999      43.867 131.694  16.028  1.00  0.00     0.012 A 
HETATM   15  C10 LIG X 999      42.795 131.921  18.207  1.00  0.00     0.013 A 
HETATM   16  C9  LIG X 999      42.831 131.757  19.594  1.00  0.00     0.013 A 
ENDBRANCH   4   7
BRANCH   6  17
HETATM   17  N4  LIG X 999      42.707 130.646  23.821  1.00  0.00    -0.077 NA
HETATM   18  N5  LIG X 999      41.938 129.718  24.068  1.00  0.00    -0.165 NA
HETATM   19  N6  LIG X 999      41.168 128.791  24.313  1.00  0.00     0.068 N 
ENDBRANCH   6  17
ENDBRANCH   1   4
TORSDOF 3
ENDMDL
MODEL 8
REMARK VINA RESULT:      -6.2      4.536      6.664
REMARK  3 active torsions:
REMARK  status: ('A' for Active; 'I' for Inactive)
REMARK    1  A    between atoms: C6_6  and  C7_7 
REMARK    2  A    between atoms: C7_7  and  N1_8 
REMARK    3  A    between atoms: C8_12  and  N4_13 
ROOT
HETATM    1  N1  LIG X 999      43.332 132.961  20.383  1.00  0.00    -0.065 NA
HETATM    2  N2  LIG X 999      42.107 133.053  20.475  1.00  0.00    -0.164 NA
HETATM    3  N3  LIG X 999      40.885 133.144  20.566  1.00  0.00     0.068 N 
ENDROOT
BRANCH   1   4
HETATM    4  C7  LIG X 999      43.975 131.656  20.295  1.00  0.00     0.267 A 
HETATM    5  O1  LIG X 999      43.196 130.646  20.894  1.00  0.00    -0.314 OA
HETATM    6  C8  LIG X 999      44.395 130.992  21.555  1.00  0.00     0.349 A 
BRANCH   4   7
HETATM    7  C6  LIG X 999      44.579 131.240  18.987  1.00  0.00     0.007 A 
HETATM    8  C5  LIG X 999      44.001 131.653  17.777  1.00  0.00     0.024 A 
HETATM    9  C4  LIG X 999      44.581 131.284  16.554  1.00  0.00    -0.025 A 
HETATM   10  C3  LIG X 999      44.008 131.687  15.338  1.00  0.00     0.012 A 
HETATM   11  C11 LIG X 999      45.760 130.499  16.546  1.00  0.00    -0.026 A 
HETATM   12  C2  LIG X 999      44.596 131.313  14.126  1.00  0.00     0.001 A 
HETATM   13  C1  LIG X 999      45.758 130.537  14.119  1.00  0.00     0.001 A 
HETATM   14  C12 LIG X 999      46.341 130.130  15.322  1.00  0.00     0.012 A 
HETATM   15  C10 LIG X 999      46.337 130.099  17.761  1.00  0.00     0.013 A 
HETATM   16  C9  LIG X 999      45.751 130.473  18.972  1.00  0.00     0.013 A 
ENDBRANCH   4   7
BRANCH   6  17
HETATM   17  N4  LIG X 999      44.106 131.707  22.789  1.00  0.00    -0.077 NA
HETATM   18  N5  LIG X 999      43.208 131.324  23.540  1.00  0.00    -0.165 NA
HETATM   19  N6  LIG X 999      42.310 130.942  24.289  1.00  0.00     0.068 N 
ENDBRANCH   6  17
ENDBRANCH   1   4
TORSDOF 3
ENDMDL
MODEL 9
REMARK VINA RESULT:      -5.9      1.694      2.449
REMARK  3 active torsions:
REMARK  status: ('A' for Active; 'I' for Inactive)
REMARK    1  A    between atoms: C6_6  and  C7_7 
REMARK    2  A    between atoms: C7_7  and  N1_8 
REMARK    3  A    between atoms: C8_12  and  N4_13 
ROOT
HETATM    1  N1  LIG X 999      43.493 131.701  16.590  1.00  0.00    -0.065 NA
HETATM    2  N2  LIG X 999      42.506 132.025  17.251  1.00  0.00    -0.164 NA
HETATM    3  N3  LIG X 999      41.521 132.350  17.910  1.00  0.00     0.068 N 
ENDROOT
BRANCH   1   4
HETATM    4  C7  LIG X 999      44.755 131.381  17.246  1.00  0.00     0.267 A 
HETATM    5  O1  LIG X 999      45.804 132.208  16.797  1.00  0.00    -0.314 OA
HETATM    6  C8  LIG X 999      45.865 130.849  16.416  1.00  0.00     0.349 A 
BRANCH   4   7
HETATM    7  C6  LIG X 999      44.759 131.174  18.731  1.00  0.00     0.007 A 
HETATM    8  C5  LIG X 999      43.738 131.717  19.525  1.00  0.00     0.024 A 
HETATM    9  C4  LIG X 999      43.730 131.502  20.912  1.00  0.00    -0.025 A 
HETATM   10  C3  LIG X 999      42.716 132.046  21.715  1.00  0.00     0.012 A 
HETATM   11  C11 LIG X 999      44.753 130.725  21.507  1.00  0.00    -0.026 A 
HETATM   12  C2  LIG X 999      42.718 131.824  23.095  1.00  0.00     0.001 A 
HETATM   13  C1  LIG X 999      43.729 131.058  23.682  1.00  0.00     0.001 A 
HETATM   14  C12 LIG X 999      44.744 130.508  22.894  1.00  0.00     0.012 A 
HETATM   15  C10 LIG X 999      45.765 130.176  20.704  1.00  0.00     0.013 A 
HETATM   16  C9  LIG X 999      45.763 130.397  19.324  1.00  0.00     0.013 A 
ENDBRANCH   4   7
BRANCH   6  17
HETATM   17  N4  LIG X 999      45.597 130.710  14.992  1.00  0.00    -0.077 NA
HETATM   18  N5  LIG X 999      46.473 130.955  14.162  1.00  0.00    -0.165 NA
HETATM   19  N6  LIG X 999      47.348 131.200  13.333  1.00  0.00     0.068 N 
ENDBRANCH   6  17
ENDBRANCH   1   4
TORSDOF 3
ENDMDL
