REMARK VINA RESULT:      -6.1      1.215      2.325
REMARK  1 active torsions:
REMARK  status: ('A' for Active; 'I' for Inactive)
REMARK    1  A    between atoms: C2_2  and  N1_3 
ROOT
HETATM    1  N1  LIG X 999      42.616 131.402  21.155  1.00  0.00    -0.073 NA
HETATM    2  N2  LIG X 999      43.390 131.429  22.113  1.00  0.00    -0.162 NA
HETATM    3  N3  LIG X 999      44.160 131.455  23.071  1.00  0.00     0.068 N 
ENDROOT
BRANCH   1   4
HETATM    4  C2  LIG X 999      43.075 131.449  19.797  1.00  0.00     0.094 A 
HETATM    5  C1  LIG X 999      42.318 132.057  18.779  1.00  0.00     0.035 A 
HETATM    6  C11 LIG X 999      42.792 132.088  17.465  1.00  0.00     0.014 A 
HETATM    7  C10 LIG X 999      44.030 131.511  17.149  1.00  0.00    -0.024 A 
HETATM    8  C4  LIG X 999      44.797 130.897  18.167  1.00  0.00    -0.024 A 
HETATM    9  C9  LIG X 999      44.515 131.535  15.831  1.00  0.00     0.034 A 
HETATM   10  C3  LIG X 999      44.313 130.871  19.484  1.00  0.00     0.046 A 
HETATM   11  C5  LIG X 999      46.037 130.319  17.851  1.00  0.00     0.014 A 
HETATM   12  C6  LIG X 999      46.510 130.349  16.536  1.00  0.00     0.023 A 
HETATM   13  C7  LIG X 999      45.753 130.955  15.527  1.00  0.00     0.045 A 
HETATM   14  C8  LIG X 999      46.248 130.983  14.175  1.00  0.00     0.099 C 
HETATM   15  N4  LIG X 999      46.646 131.005  13.088  1.00  0.00    -0.191 NA
ENDBRANCH   1   4
TORSDOF 1
