REMARK VINA RESULT:      -6.3      1.574      2.205
REMARK  2 active torsions:
REMARK  status: ('A' for Active; 'I' for Inactive)
REMARK    1  A    between atoms: N1_1  and  C1_2 
REMARK    2  A    between atoms: C2_5  and  C3_6 
ROOT
HETATM    1  C3  LIG X 999      43.599 131.802  19.385  1.00  0.00     0.028 A 
HETATM    2  C4  LIG X 999      42.576 132.754  19.226  1.00  0.00     0.017 A 
HETATM    3  C5  LIG X 999      41.744 133.096  20.291  1.00  0.00     0.002 A 
HETATM    4  C6  LIG X 999      41.916 132.499  21.537  1.00  0.00     0.012 A 
HETATM    5  C7  LIG X 999      42.938 131.562  21.736  1.00  0.00    -0.025 A 
HETATM    6  C8  LIG X 999      43.114 130.981  23.002  1.00  0.00     0.012 A 
HETATM    7  C9  LIG X 999      44.148 130.071  23.221  1.00  0.00     0.001 A 
HETATM    8  C10 LIG X 999      45.022 129.743  22.186  1.00  0.00     0.001 A 
HETATM    9  C11 LIG X 999      44.861 130.309  20.920  1.00  0.00     0.013 A 
HETATM   10  C12 LIG X 999      43.803 131.210  20.663  1.00  0.00    -0.011 A 
ENDROOT
BRANCH   1  11
HETATM   11  C2  LIG X 999      44.393 131.432  18.189  1.00  0.00     0.178 A 
HETATM   12  N3  LIG X 999      44.119 131.833  16.932  1.00  0.00    -0.252 N 
HETATM   13  N2  LIG X 999      45.017 131.288  16.129  1.00  0.00    -0.128 NA
HETATM   14  H3  LIG X 999      43.352 132.468  16.619  1.00  0.00     0.191 HD
HETATM   15  C1  LIG X 999      45.810 130.561  16.939  1.00  0.00     0.263 A 
HETATM   16  O1  LIG X 999      45.439 130.637  18.195  1.00  0.00    -0.258 OA
BRANCH  15  17
HETATM   17  N1  LIG X 999      46.922 129.797  16.481  1.00  0.00    -0.362 N 
HETATM   18  H1  LIG X 999      47.825 129.815  17.004  1.00  0.00     0.159 HD
HETATM   19  H2  LIG X 999      46.837 129.213  15.621  1.00  0.00     0.159 HD
ENDBRANCH  15  17
ENDBRANCH   1  11
TORSDOF 2
