REMARK VINA RESULT:      -3.9      1.763      5.571
REMARK  3 active torsions:
REMARK  status: ('A' for Active; 'I' for Inactive)
REMARK    1  A    between atoms: C3_3  and  S1_4 
REMARK    2  A    between atoms: S1_4  and  C4_7 
REMARK    3  A    between atoms: C6_9  and  N1_10 
ROOT
HETATM    1  C1  LIG X 999      43.208 131.724  21.235  1.00  0.00     0.013 C 
HETATM    2  C2  LIG X 999      43.938 130.836  21.600  1.00  0.00    -0.102 C 
HETATM    3  C3  LIG X 999      44.823 129.755  22.041  1.00  0.00     0.238 C 
ENDROOT
BRANCH   3   4
HETATM    4  S1  LIG X 999      43.992 128.717  23.236  1.00  0.00     0.186 S 
HETATM    5  O1  LIG X 999      42.546 128.620  22.833  1.00  0.00    -0.222 OA
HETATM    6  O2  LIG X 999      44.091 129.390  24.577  1.00  0.00    -0.222 OA
BRANCH   4   7
HETATM    7  C4  LIG X 999      44.673 127.077  23.369  1.00  0.00     0.073 A 
HETATM    8  C5  LIG X 999      46.070 126.917  23.396  1.00  0.00     0.058 A 
HETATM    9  C6  LIG X 999      46.657 125.644  23.477  1.00  0.00     0.095 A 
HETATM   10  C7  LIG X 999      45.844 124.514  23.542  1.00  0.00     0.046 A 
HETATM   11  C8  LIG X 999      44.450 124.635  23.533  1.00  0.00    -0.021 A 
HETATM   12  C9  LIG X 999      43.649 123.478  23.613  1.00  0.00     0.022 A 
HETATM   13  C13 LIG X 999      43.844 125.927  23.452  1.00  0.00    -0.004 A 
HETATM   14  C10 LIG X 999      42.264 123.619  23.609  1.00  0.00    -0.024 A 
HETATM   15  C11 LIG X 999      41.677 124.842  23.541  1.00  0.00    -0.024 A 
HETATM   16  C17 LIG X 999      41.243 122.555  23.710  1.00  0.00     0.276 C 
HETATM   17  C12 LIG X 999      42.430 126.014  23.468  1.00  0.00     0.023 A 
HETATM   18  C14 LIG X 999      40.204 124.714  23.592  1.00  0.00     0.276 C 
HETATM   19  N4  LIG X 999      39.925 123.244  23.535  1.00  0.00    -0.067 N 
HETATM   20  C15 LIG X 999      39.340 122.889  22.220  1.00  0.00     0.272 C 
HETATM   21  C16 LIG X 999      38.981 122.848  24.604  1.00  0.00     0.272 C 
BRANCH   9  22
HETATM   22  N1  LIG X 999      48.080 125.470  23.495  1.00  0.00    -0.073 NA
HETATM   23  N2  LIG X 999      48.646 124.589  22.846  1.00  0.00    -0.162 NA
HETATM   24  N3  LIG X 999      49.213 123.710  22.197  1.00  0.00     0.068 N 
ENDBRANCH   9  22
ENDBRANCH   4   7
ENDBRANCH   3   4
TORSDOF 3
