MODEL 1
REMARK VINA RESULT:      -7.3      0.000      0.000
REMARK  4 active torsions:
REMARK  status: ('A' for Active; 'I' for Inactive)
REMARK    1  A    between atoms: C1_2  and  C2_4 
REMARK    2  A    between atoms: C8_10  and  C9_11 
REMARK       I    between atoms: C9_11  and  N1_13 
REMARK    3  A    between atoms: N1_13  and  S1_14 
REMARK    4  A    between atoms: S1_14  and  C10_17 
ROOT
HETATM    1  C9  LIG X 999      44.246 129.281  23.724  1.00  0.00     0.259 C 
HETATM    2  O3  LIG X 999      43.951 130.112  24.625  1.00  0.00    -0.270 OA
HETATM    3  N1  LIG X 999      44.210 129.672  22.351  1.00  0.00    -0.122 NA
ENDROOT
BRANCH   3   4
HETATM    4  S1  LIG X 999      44.030 131.324  21.869  1.00  0.00     0.286 S 
HETATM    5  O4  LIG X 999      42.731 131.859  22.404  1.00  0.00    -0.198 OA
HETATM    6  O5  LIG X 999      45.154 132.146  22.434  1.00  0.00    -0.198 OA
BRANCH   4   7
HETATM    7  C10 LIG X 999      44.020 131.406  20.110  1.00  0.00     0.082 A 
HETATM    8  C11 LIG X 999      42.879 131.867  19.441  1.00  0.00     0.026 A 
HETATM    9  C12 LIG X 999      42.837 131.883  18.045  1.00  0.00     0.014 A 
HETATM   10  C13 LIG X 999      43.937 131.430  17.301  1.00  0.00    -0.026 A 
HETATM   11  C14 LIG X 999      43.903 131.435  15.898  1.00  0.00     0.012 A 
HETATM   12  C18 LIG X 999      45.090 130.959  17.973  1.00  0.00    -0.025 A 
HETATM   13  C15 LIG X 999      45.003 130.975  15.168  1.00  0.00     0.001 A 
HETATM   14  C16 LIG X 999      46.141 130.508  15.832  1.00  0.00     0.001 A 
HETATM   15  C17 LIG X 999      46.188 130.498  17.229  1.00  0.00     0.012 A 
HETATM   16  C19 LIG X 999      45.123 130.950  19.376  1.00  0.00     0.037 A 
ENDBRANCH   4   7
ENDBRANCH   3   4
BRANCH   1  17
HETATM   17  C8  LIG X 999      44.707 127.885  24.078  1.00  0.00     0.099 C 
HETATM   18  C2  LIG X 999      43.562 126.835  24.215  1.00  0.00     0.104 C 
HETATM   19  C3  LIG X 999      43.971 125.757  23.178  1.00  0.00     0.001 C 
HETATM   20  C4  LIG X 999      45.191 124.992  23.727  1.00  0.00     0.006 C 
HETATM   21  C7  LIG X 999      44.611 126.576  22.079  1.00  0.00     0.011 C 
HETATM   22  C5  LIG X 999      46.326 126.025  23.603  1.00  0.00     0.006 C 
HETATM   23  C6  LIG X 999      45.613 127.248  22.992  1.00  0.00    -0.000 C 
BRANCH  18  24
HETATM   24  C1  LIG X 999      42.161 127.364  23.990  1.00  0.00     0.178 C 
HETATM   25  O1  LIG X 999      41.734 128.371  24.616  1.00  0.00    -0.648 OA
HETATM   26  O2  LIG X 999      41.314 126.700  23.112  1.00  0.00    -0.648 OA
ENDBRANCH  18  24
ENDBRANCH   1  17
TORSDOF 4
ENDMDL
MODEL 2
REMARK VINA RESULT:      -7.2      1.952      3.277
REMARK  4 active torsions:
REMARK  status: ('A' for Active; 'I' for Inactive)
REMARK    1  A    between atoms: C1_2  and  C2_4 
REMARK    2  A    between atoms: C8_10  and  C9_11 
REMARK       I    between atoms: C9_11  and  N1_13 
REMARK    3  A    between atoms: N1_13  and  S1_14 
REMARK    4  A    between atoms: S1_14  and  C10_17 
ROOT
HETATM    1  C9  LIG X 999      44.404 131.092  21.698  1.00  0.00     0.259 C 
HETATM    2  O3  LIG X 999      45.211 132.052  21.572  1.00  0.00    -0.270 OA
HETATM    3  N1  LIG X 999      43.286 130.976  20.817  1.00  0.00    -0.122 NA
ENDROOT
BRANCH   3   4
HETATM    4  S1  LIG X 999      43.125 131.960  19.402  1.00  0.00     0.286 S 
HETATM    5  O4  LIG X 999      41.714 131.871  18.893  1.00  0.00    -0.198 OA
HETATM    6  O5  LIG X 999      43.422 133.394  19.741  1.00  0.00    -0.198 OA
BRANCH   4   7
HETATM    7  C10 LIG X 999      44.232 131.367  18.168  1.00  0.00     0.082 A 
HETATM    8  C11 LIG X 999      45.388 130.672  18.546  1.00  0.00     0.026 A 
HETATM    9  C12 LIG X 999      46.304 130.247  17.580  1.00  0.00     0.014 A 
HETATM   10  C13 LIG X 999      46.076 130.519  16.224  1.00  0.00    -0.026 A 
HETATM   11  C14 LIG X 999      46.992 130.103  15.246  1.00  0.00     0.012 A 
HETATM   12  C18 LIG X 999      44.911 131.225  15.838  1.00  0.00    -0.025 A 
HETATM   13  C15 LIG X 999      46.756 130.386  13.897  1.00  0.00     0.001 A 
HETATM   14  C16 LIG X 999      45.607 131.084  13.516  1.00  0.00     0.001 A 
HETATM   15  C17 LIG X 999      44.686 131.504  14.480  1.00  0.00     0.012 A 
HETATM   16  C19 LIG X 999      43.996 131.645  16.816  1.00  0.00     0.037 A 
ENDBRANCH   4   7
ENDBRANCH   3   4
BRANCH   1  17
HETATM   17  C8  LIG X 999      44.639 130.012  22.730  1.00  0.00     0.099 C 
HETATM   18  C2  LIG X 999      44.013 130.301  24.130  1.00  0.00     0.104 C 
HETATM   19  C3  LIG X 999      43.089 129.074  24.342  1.00  0.00     0.001 C 
HETATM   20  C4  LIG X 999      43.972 127.842  24.620  1.00  0.00     0.006 C 
HETATM   21  C7  LIG X 999      42.603 128.775  22.940  1.00  0.00     0.011 C 
HETATM   22  C5  LIG X 999      44.601 127.555  23.245  1.00  0.00     0.006 C 
HETATM   23  C6  LIG X 999      43.992 128.655  22.352  1.00  0.00    -0.000 C 
BRANCH  18  24
HETATM   24  C1  LIG X 999      43.277 131.618  24.256  1.00  0.00     0.178 C 
HETATM   25  O1  LIG X 999      42.044 131.704  24.009  1.00  0.00    -0.648 OA
HETATM   26  O2  LIG X 999      43.982 132.764  24.603  1.00  0.00    -0.648 OA
ENDBRANCH  18  24
ENDBRANCH   1  17
TORSDOF 4
ENDMDL
MODEL 3
REMARK VINA RESULT:      -6.3      1.328      2.196
REMARK  4 active torsions:
REMARK  status: ('A' for Active; 'I' for Inactive)
REMARK    1  A    between atoms: C1_2  and  C2_4 
REMARK    2  A    between atoms: C8_10  and  C9_11 
REMARK       I    between atoms: C9_11  and  N1_13 
REMARK    3  A    between atoms: N1_13  and  S1_14 
REMARK    4  A    between atoms: S1_14  and  C10_17 
ROOT
HETATM    1  C9  LIG X 999      44.644 128.432  23.552  1.00  0.00     0.259 C 
HETATM    2  O3  LIG X 999      44.433 128.473  22.310  1.00  0.00    -0.270 OA
HETATM    3  N1  LIG X 999      44.517 129.619  24.338  1.00  0.00    -0.122 NA
ENDROOT
BRANCH   3   4
HETATM    4  S1  LIG X 999      43.830 131.074  23.702  1.00  0.00     0.286 S 
HETATM    5  O4  LIG X 999      42.344 131.061  23.925  1.00  0.00    -0.198 OA
HETATM    6  O5  LIG X 999      44.410 132.265  24.414  1.00  0.00    -0.198 OA
BRANCH   4   7
HETATM    7  C10 LIG X 999      44.165 131.154  21.976  1.00  0.00     0.082 A 
HETATM    8  C11 LIG X 999      45.483 131.038  21.516  1.00  0.00     0.026 A 
HETATM    9  C12 LIG X 999      45.768 131.158  20.153  1.00  0.00     0.014 A 
HETATM   10  C13 LIG X 999      44.737 131.401  19.235  1.00  0.00    -0.026 A 
HETATM   11  C14 LIG X 999      45.013 131.529  17.865  1.00  0.00     0.012 A 
HETATM   12  C18 LIG X 999      43.404 131.522  19.696  1.00  0.00    -0.025 A 
HETATM   13  C15 LIG X 999      43.976 131.778  16.960  1.00  0.00     0.001 A 
HETATM   14  C16 LIG X 999      42.660 131.899  17.415  1.00  0.00     0.001 A 
HETATM   15  C17 LIG X 999      42.371 131.773  18.777  1.00  0.00     0.012 A 
HETATM   16  C19 LIG X 999      43.127 131.398  21.066  1.00  0.00     0.037 A 
ENDBRANCH   4   7
ENDBRANCH   3   4
BRANCH   1  17
HETATM   17  C8  LIG X 999      44.962 127.126  24.243  1.00  0.00     0.099 C 
HETATM   18  C2  LIG X 999      43.729 126.204  24.495  1.00  0.00     0.104 C 
HETATM   19  C3  LIG X 999      44.131 124.899  23.761  1.00  0.00     0.001 C 
HETATM   20  C4  LIG X 999      45.239 124.204  24.578  1.00  0.00     0.006 C 
HETATM   21  C7  LIG X 999      44.921 125.411  22.577  1.00  0.00     0.011 C 
HETATM   22  C5  LIG X 999      46.459 125.112  24.342  1.00  0.00     0.006 C 
HETATM   23  C6  LIG X 999      45.897 126.208  23.414  1.00  0.00    -0.000 C 
BRANCH  18  24
HETATM   24  C1  LIG X 999      42.397 126.753  24.026  1.00  0.00     0.178 C 
HETATM   25  O1  LIG X 999      41.838 127.710  24.625  1.00  0.00    -0.648 OA
HETATM   26  O2  LIG X 999      41.757 126.160  22.945  1.00  0.00    -0.648 OA
ENDBRANCH  18  24
ENDBRANCH   1  17
TORSDOF 4
ENDMDL
MODEL 4
REMARK VINA RESULT:      -5.9      1.587      2.465
REMARK  4 active torsions:
REMARK  status: ('A' for Active; 'I' for Inactive)
REMARK    1  A    between atoms: C1_2  and  C2_4 
REMARK    2  A    between atoms: C8_10  and  C9_11 
REMARK       I    between atoms: C9_11  and  N1_13 
REMARK    3  A    between atoms: N1_13  and  S1_14 
REMARK    4  A    between atoms: S1_14  and  C10_17 
ROOT
HETATM    1  C9  LIG X 999      44.344 129.734  21.625  1.00  0.00     0.259 C 
HETATM    2  O3  LIG X 999      43.265 130.232  22.046  1.00  0.00    -0.270 OA
HETATM    3  N1  LIG X 999      44.870 130.133  20.358  1.00  0.00    -0.122 NA
ENDROOT
BRANCH   3   4
HETATM    4  S1  LIG X 999      44.224 131.473  19.475  1.00  0.00     0.286 S 
HETATM    5  O4  LIG X 999      42.724 131.448  19.560  1.00  0.00    -0.198 OA
HETATM    6  O5  LIG X 999      44.716 132.762  20.072  1.00  0.00    -0.198 OA
BRANCH   4   7
HETATM    7  C10 LIG X 999      44.719 131.335  17.791  1.00  0.00     0.082 A 
HETATM    8  C11 LIG X 999      43.912 131.878  16.781  1.00  0.00     0.026 A 
HETATM    9  C12 LIG X 999      44.265 131.726  15.438  1.00  0.00     0.014 A 
HETATM   10  C13 LIG X 999      45.427 131.022  15.089  1.00  0.00    -0.026 A 
HETATM   11  C14 LIG X 999      45.786 130.857  13.742  1.00  0.00     0.012 A 
HETATM   12  C18 LIG X 999      46.242 130.469  16.105  1.00  0.00    -0.025 A 
HETATM   13  C15 LIG X 999      46.944 130.148  13.407  1.00  0.00     0.001 A 
HETATM   14  C16 LIG X 999      47.748 129.600  14.411  1.00  0.00     0.001 A 
HETATM   15  C17 LIG X 999      47.401 129.757  15.756  1.00  0.00     0.012 A 
HETATM   16  C19 LIG X 999      45.881 130.630  17.452  1.00  0.00     0.037 A 
ENDBRANCH   4   7
ENDBRANCH   3   4
BRANCH   1  17
HETATM   17  C8  LIG X 999      45.135 128.767  22.476  1.00  0.00     0.099 C 
HETATM   18  C2  LIG X 999      44.858 128.868  24.008  1.00  0.00     0.104 C 
HETATM   19  C3  LIG X 999      44.398 127.430  24.360  1.00  0.00     0.001 C 
HETATM   20  C4  LIG X 999      45.625 126.499  24.305  1.00  0.00     0.006 C 
HETATM   21  C7  LIG X 999      43.652 127.003  23.114  1.00  0.00     0.011 C 
HETATM   22  C5  LIG X 999      45.912 126.401  22.796  1.00  0.00     0.006 C 
HETATM   23  C6  LIG X 999      44.808 127.281  22.178  1.00  0.00    -0.000 C 
BRANCH  18  24
HETATM   24  C1  LIG X 999      43.852 129.923  24.420  1.00  0.00     0.178 C 
HETATM   25  O1  LIG X 999      44.203 131.115  24.625  1.00  0.00    -0.648 OA
HETATM   26  O2  LIG X 999      42.527 129.559  24.625  1.00  0.00    -0.648 OA
ENDBRANCH  18  24
ENDBRANCH   1  17
TORSDOF 4
ENDMDL
MODEL 5
REMARK VINA RESULT:      -5.6      2.775      7.709
REMARK  4 active torsions:
REMARK  status: ('A' for Active; 'I' for Inactive)
REMARK    1  A    between atoms: C1_2  and  C2_4 
REMARK    2  A    between atoms: C8_10  and  C9_11 
REMARK       I    between atoms: C9_11  and  N1_13 
REMARK    3  A    between atoms: N1_13  and  S1_14 
REMARK    4  A    between atoms: S1_14  and  C10_17 
ROOT
HETATM    1  C9  LIG X 999      45.591 131.195  17.462  1.00  0.00     0.259 C 
HETATM    2  O3  LIG X 999      45.335 132.419  17.307  1.00  0.00    -0.270 OA
HETATM    3  N1  LIG X 999      45.484 130.600  18.756  1.00  0.00    -0.122 NA
ENDROOT
BRANCH   3   4
HETATM    4  S1  LIG X 999      44.761 131.428  20.092  1.00  0.00     0.286 S 
HETATM    5  O4  LIG X 999      45.693 132.504  20.574  1.00  0.00    -0.198 OA
HETATM    6  O5  LIG X 999      43.474 132.071  19.657  1.00  0.00    -0.198 OA
BRANCH   4   7
HETATM    7  C10 LIG X 999      44.475 130.274  21.390  1.00  0.00     0.082 A 
HETATM    8  C11 LIG X 999      43.609 130.607  22.440  1.00  0.00     0.026 A 
HETATM    9  C12 LIG X 999      43.418 129.723  23.505  1.00  0.00     0.014 A 
HETATM   10  C13 LIG X 999      44.097 128.497  23.535  1.00  0.00    -0.026 A 
HETATM   11  C14 LIG X 999      43.918 127.604  24.603  1.00  0.00     0.012 A 
HETATM   12  C18 LIG X 999      44.976 128.158  22.478  1.00  0.00    -0.025 A 
HETATM   13  C15 LIG X 999      44.606 126.387  24.624  1.00  0.00     0.001 A 
HETATM   14  C16 LIG X 999      45.475 126.053  23.580  1.00  0.00     0.001 A 
HETATM   15  C17 LIG X 999      45.662 126.933  22.510  1.00  0.00     0.012 A 
HETATM   16  C19 LIG X 999      45.159 129.051  21.411  1.00  0.00     0.037 A 
ENDBRANCH   4   7
ENDBRANCH   3   4
BRANCH   1  17
HETATM   17  C8  LIG X 999      45.946 130.320  16.281  1.00  0.00     0.099 C 
HETATM   18  C2  LIG X 999      44.932 130.380  15.098  1.00  0.00     0.104 C 
HETATM   19  C3  LIG X 999      45.826 130.827  13.912  1.00  0.00     0.001 C 
HETATM   20  C4  LIG X 999      46.732 129.646  13.514  1.00  0.00     0.006 C 
HETATM   21  C7  LIG X 999      46.825 131.750  14.576  1.00  0.00     0.011 C 
HETATM   22  C5  LIG X 999      47.733 129.574  14.682  1.00  0.00     0.006 C 
HETATM   23  C6  LIG X 999      47.277 130.728  15.596  1.00  0.00    -0.000 C 
BRANCH  18  24
HETATM   24  C1  LIG X 999      43.738 131.289  15.307  1.00  0.00     0.178 C 
HETATM   25  O1  LIG X 999      43.174 131.378  16.430  1.00  0.00    -0.648 OA
HETATM   26  O2  LIG X 999      43.226 132.001  14.230  1.00  0.00    -0.648 OA
ENDBRANCH  18  24
ENDBRANCH   1  17
TORSDOF 4
ENDMDL
MODEL 6
REMARK VINA RESULT:      -5.6      3.126      4.573
REMARK  4 active torsions:
REMARK  status: ('A' for Active; 'I' for Inactive)
REMARK    1  A    between atoms: C1_2  and  C2_4 
REMARK    2  A    between atoms: C8_10  and  C9_11 
REMARK       I    between atoms: C9_11  and  N1_13 
REMARK    3  A    between atoms: N1_13  and  S1_14 
REMARK    4  A    between atoms: S1_14  and  C10_17 
ROOT
HETATM    1  C9  LIG X 999      42.923 131.428  20.608  1.00  0.00     0.259 C 
HETATM    2  O3  LIG X 999      42.416 132.581  20.637  1.00  0.00    -0.270 OA
HETATM    3  N1  LIG X 999      43.556 130.954  19.417  1.00  0.00    -0.122 NA
ENDROOT
BRANCH   3   4
HETATM    4  S1  LIG X 999      43.892 131.996  18.078  1.00  0.00     0.286 S 
HETATM    5  O4  LIG X 999      42.604 132.357  17.393  1.00  0.00    -0.198 OA
HETATM    6  O5  LIG X 999      44.544 133.260  18.566  1.00  0.00    -0.198 OA
BRANCH   4   7
HETATM    7  C10 LIG X 999      44.941 131.149  16.947  1.00  0.00     0.082 A 
HETATM    8  C11 LIG X 999      45.286 129.812  17.184  1.00  0.00     0.026 A 
HETATM    9  C12 LIG X 999      46.164 129.146  16.325  1.00  0.00     0.014 A 
HETATM   10  C13 LIG X 999      46.712 129.813  15.221  1.00  0.00    -0.026 A 
HETATM   11  C14 LIG X 999      47.600 129.156  14.356  1.00  0.00     0.012 A 
HETATM   12  C18 LIG X 999      46.370 131.165  14.979  1.00  0.00    -0.025 A 
HETATM   13  C15 LIG X 999      48.145 129.834  13.261  1.00  0.00     0.001 A 
HETATM   14  C16 LIG X 999      47.808 131.170  13.023  1.00  0.00     0.001 A 
HETATM   15  C17 LIG X 999      46.925 131.836  13.877  1.00  0.00     0.012 A 
HETATM   16  C19 LIG X 999      45.485 131.825  15.846  1.00  0.00     0.037 A 
ENDBRANCH   4   7
ENDBRANCH   3   4
BRANCH   1  17
HETATM   17  C8  LIG X 999      42.936 130.554  21.842  1.00  0.00     0.099 C 
HETATM   18  C2  LIG X 999      44.351 130.059  22.275  1.00  0.00     0.104 C 
HETATM   19  C3  LIG X 999      44.461 130.593  23.727  1.00  0.00     0.001 C 
HETATM   20  C4  LIG X 999      43.527 129.758  24.624  1.00  0.00     0.006 C 
HETATM   21  C7  LIG X 999      43.707 131.903  23.660  1.00  0.00     0.011 C 
HETATM   22  C5  LIG X 999      42.127 130.234  24.197  1.00  0.00     0.006 C 
HETATM   23  C6  LIG X 999      42.437 131.286  23.114  1.00  0.00    -0.000 C 
BRANCH  18  24
HETATM   24  C1  LIG X 999      45.498 130.511  21.396  1.00  0.00     0.178 C 
HETATM   25  O1  LIG X 999      46.079 129.710  20.617  1.00  0.00    -0.648 OA
HETATM   26  O2  LIG X 999      45.950 131.822  21.484  1.00  0.00    -0.648 OA
ENDBRANCH  18  24
ENDBRANCH   1  17
TORSDOF 4
ENDMDL
MODEL 7
REMARK VINA RESULT:      -5.4      4.132      6.036
REMARK  4 active torsions:
REMARK  status: ('A' for Active; 'I' for Inactive)
REMARK    1  A    between atoms: C1_2  and  C2_4 
REMARK    2  A    between atoms: C8_10  and  C9_11 
REMARK       I    between atoms: C9_11  and  N1_13 
REMARK    3  A    between atoms: N1_13  and  S1_14 
REMARK    4  A    between atoms: S1_14  and  C10_17 
ROOT
HETATM    1  C9  LIG X 999      47.807 125.590  23.158  1.00  0.00     0.259 C 
HETATM    2  O3  LIG X 999      47.606 125.635  21.914  1.00  0.00    -0.270 OA
HETATM    3  N1  LIG X 999      46.721 125.792  24.065  1.00  0.00    -0.122 NA
ENDROOT
BRANCH   3   4
HETATM    4  S1  LIG X 999      45.076 125.839  23.533  1.00  0.00     0.286 S 
HETATM    5  O4  LIG X 999      44.915 124.950  22.333  1.00  0.00    -0.198 OA
HETATM    6  O5  LIG X 999      44.172 125.338  24.625  1.00  0.00    -0.198 OA
BRANCH   4   7
HETATM    7  C10 LIG X 999      44.667 127.495  23.096  1.00  0.00     0.082 A 
HETATM    8  C11 LIG X 999      43.604 128.144  23.740  1.00  0.00     0.026 A 
HETATM    9  C12 LIG X 999      43.234 129.437  23.362  1.00  0.00     0.014 A 
HETATM   10  C13 LIG X 999      43.919 130.094  22.330  1.00  0.00    -0.026 A 
HETATM   11  C14 LIG X 999      43.550 131.390  21.938  1.00  0.00     0.012 A 
HETATM   12  C18 LIG X 999      44.990 129.441  21.675  1.00  0.00    -0.025 A 
HETATM   13  C15 LIG X 999      44.237 132.032  20.904  1.00  0.00     0.001 A 
HETATM   14  C16 LIG X 999      45.294 131.387  20.255  1.00  0.00     0.001 A 
HETATM   15  C17 LIG X 999      45.672 130.097  20.636  1.00  0.00     0.012 A 
HETATM   16  C19 LIG X 999      45.357 128.143  22.063  1.00  0.00     0.037 A 
ENDBRANCH   4   7
ENDBRANCH   3   4
BRANCH   1  17
HETATM   17  C8  LIG X 999      49.173 125.255  23.713  1.00  0.00     0.099 C 
HETATM   18  C2  LIG X 999      49.491 123.730  23.786  1.00  0.00     0.104 C 
HETATM   19  C3  LIG X 999      50.780 123.616  22.932  1.00  0.00     0.001 C 
HETATM   20  C4  LIG X 999      51.946 124.237  23.727  1.00  0.00     0.006 C 
HETATM   21  C7  LIG X 999      50.567 124.664  21.862  1.00  0.00     0.011 C 
HETATM   22  C5  LIG X 999      51.635 125.744  23.668  1.00  0.00     0.006 C 
HETATM   23  C6  LIG X 999      50.336 125.794  22.840  1.00  0.00    -0.000 C 
BRANCH  18  24
HETATM   24  C1  LIG X 999      48.387 122.810  23.306  1.00  0.00     0.178 C 
HETATM   25  O1  LIG X 999      48.347 122.405  22.113  1.00  0.00    -0.648 OA
HETATM   26  O2  LIG X 999      47.374 122.444  24.183  1.00  0.00    -0.648 OA
ENDBRANCH  18  24
ENDBRANCH   1  17
TORSDOF 4
ENDMDL
MODEL 8
REMARK VINA RESULT:      -5.2      6.065      8.297
REMARK  4 active torsions:
REMARK  status: ('A' for Active; 'I' for Inactive)
REMARK    1  A    between atoms: C1_2  and  C2_4 
REMARK    2  A    between atoms: C8_10  and  C9_11 
REMARK       I    between atoms: C9_11  and  N1_13 
REMARK    3  A    between atoms: N1_13  and  S1_14 
REMARK    4  A    between atoms: S1_14  and  C10_17 
ROOT
HETATM    1  C9  LIG X 999      47.269 125.271  23.320  1.00  0.00     0.259 C 
HETATM    2  O3  LIG X 999      47.411 126.141  22.420  1.00  0.00    -0.270 OA
HETATM    3  N1  LIG X 999      46.016 125.137  23.993  1.00  0.00    -0.122 NA
ENDROOT
BRANCH   3   4
HETATM    4  S1  LIG X 999      44.588 125.948  23.449  1.00  0.00     0.286 S 
HETATM    5  O4  LIG X 999      44.445 127.250  24.186  1.00  0.00    -0.198 OA
HETATM    6  O5  LIG X 999      44.697 126.240  21.979  1.00  0.00    -0.198 OA
BRANCH   4   7
HETATM    7  C10 LIG X 999      43.192 124.928  23.782  1.00  0.00     0.082 A 
HETATM    8  C11 LIG X 999      43.328 123.534  23.760  1.00  0.00     0.026 A 
HETATM    9  C12 LIG X 999      42.215 122.713  23.966  1.00  0.00     0.014 A 
HETATM   10  C13 LIG X 999      40.952 123.280  24.190  1.00  0.00    -0.026 A 
HETATM   11  C14 LIG X 999      39.828 122.465  24.390  1.00  0.00     0.012 A 
HETATM   12  C18 LIG X 999      40.811 124.688  24.208  1.00  0.00    -0.025 A 
HETATM   13  C15 LIG X 999      38.572 123.042  24.606  1.00  0.00     0.001 A 
HETATM   14  C16 LIG X 999      38.432 124.433  24.623  1.00  0.00     0.001 A 
HETATM   15  C17 LIG X 999      39.544 125.256  24.425  1.00  0.00     0.012 A 
HETATM   16  C19 LIG X 999      41.934 125.504  24.004  1.00  0.00     0.037 A 
ENDBRANCH   4   7
ENDBRANCH   3   4
BRANCH   1  17
HETATM   17  C8  LIG X 999      48.388 124.311  23.655  1.00  0.00     0.099 C 
HETATM   18  C2  LIG X 999      48.558 123.132  22.649  1.00  0.00     0.104 C 
HETATM   19  C3  LIG X 999      50.028 123.299  22.183  1.00  0.00     0.001 C 
HETATM   20  C4  LIG X 999      50.956 122.885  23.342  1.00  0.00     0.006 C 
HETATM   21  C7  LIG X 999      50.210 124.801  22.187  1.00  0.00     0.011 C 
HETATM   22  C5  LIG X 999      50.787 124.040  24.345  1.00  0.00     0.006 C 
HETATM   23  C6  LIG X 999      49.790 124.973  23.630  1.00  0.00    -0.000 C 
BRANCH  18  24
HETATM   24  C1  LIG X 999      47.576 123.111  21.496  1.00  0.00     0.178 C 
HETATM   25  O1  LIG X 999      47.871 123.613  20.378  1.00  0.00    -0.648 OA
HETATM   26  O2  LIG X 999      46.310 122.572  21.687  1.00  0.00    -0.648 OA
ENDBRANCH  18  24
ENDBRANCH   1  17
TORSDOF 4
ENDMDL
