REMARK VINA RESULT:      -5.1      4.688      7.171
REMARK  4 active torsions:
REMARK  status: ('A' for Active; 'I' for Inactive)
REMARK    1  A    between atoms: C5_5  and  N1_6 
REMARK    2  A    between atoms: C7_10  and  S1_11 
REMARK    3  A    between atoms: S1_11  and  C8_14 
REMARK    4  A    between atoms: C8_14  and  C9_15 
ROOT
HETATM    1  N1  LIG X 999      41.941 132.831  19.921  1.00  0.00    -0.072 NA
HETATM    2  N2  LIG X 999      41.146 133.336  20.715  1.00  0.00    -0.162 NA
HETATM    3  N3  LIG X 999      40.352 133.840  21.507  1.00  0.00     0.068 N 
ENDROOT
BRANCH   1   4
HETATM    4  C5  LIG X 999      42.992 131.943  20.338  1.00  0.00     0.105 A 
HETATM    5  C4  LIG X 999      43.976 131.533  19.410  1.00  0.00     0.006 A 
HETATM    6  C3  LIG X 999      43.954 131.978  18.072  1.00  0.00     0.014 A 
HETATM    7  C13 LIG X 999      45.008 130.651  19.825  1.00  0.00    -0.022 A 
HETATM    8  C2  LIG X 999      44.934 131.554  17.170  1.00  0.00     0.001 A 
HETATM    9  C1  LIG X 999      45.944 130.685  17.585  1.00  0.00     0.001 A 
HETATM   10  C14 LIG X 999      45.983 130.234  18.905  1.00  0.00     0.012 A 
HETATM   11  C12 LIG X 999      45.049 130.197  21.149  1.00  0.00     0.035 A 
HETATM   12  C7  LIG X 999      44.077 130.607  22.068  1.00  0.00     0.063 A 
HETATM   13  C6  LIG X 999      43.053 131.469  21.662  1.00  0.00     0.058 A 
BRANCH  12  14
HETATM   14  S1  LIG X 999      44.116 129.996  23.721  1.00  0.00     0.186 S 
HETATM   15  O1  LIG X 999      44.746 131.018  24.624  1.00  0.00    -0.222 OA
HETATM   16  O2  LIG X 999      44.934 128.736  23.779  1.00  0.00    -0.222 OA
BRANCH  14  17
HETATM   17  C8  LIG X 999      42.456 129.660  24.276  1.00  0.00     0.239 C 
BRANCH  17  18
HETATM   18  C9  LIG X 999      42.110 128.264  24.000  1.00  0.00    -0.092 C 
HETATM   19  C10 LIG X 999      41.816 127.119  23.760  1.00  0.00    -0.110 C 
HETATM   20  C11 LIG X 999      41.456 125.735  23.460  1.00  0.00     0.112 C 
ENDBRANCH  17  18
ENDBRANCH  14  17
ENDBRANCH  12  14
ENDBRANCH   1   4
TORSDOF 4
