MODEL 1
REMARK VINA RESULT:      -8.6      0.000      0.000
REMARK  1 active torsions:
REMARK  status: ('A' for Active; 'I' for Inactive)
REMARK    1  A    between atoms: C12_13  and  N2_14 
ROOT
HETATM    1  C1  LIG X 999      44.935 129.606  15.262  1.00  0.00     0.272 C 
HETATM    2  N1  LIG X 999      45.322 130.876  15.922  1.00  0.00    -0.067 N 
HETATM    3  C2  LIG X 999      46.099 131.698  14.966  1.00  0.00     0.272 C 
HETATM    4  C3  LIG X 999      46.128 130.591  17.149  1.00  0.00     0.276 C 
HETATM    5  C4  LIG X 999      45.250 130.927  18.289  1.00  0.00    -0.021 A 
HETATM    6  C5  LIG X 999      45.508 130.719  19.639  1.00  0.00     0.022 A 
HETATM    7  C6  LIG X 999      44.552 131.130  20.584  1.00  0.00    -0.023 A 
HETATM    8  C7  LIG X 999      44.798 130.932  21.951  1.00  0.00     0.012 A 
HETATM    9  C8  LIG X 999      43.868 131.352  22.902  1.00  0.00     0.001 A 
HETATM   10  C9  LIG X 999      42.688 131.976  22.499  1.00  0.00     0.001 A 
HETATM   11  C10 LIG X 999      42.423 132.182  21.143  1.00  0.00     0.014 A 
HETATM   12  C11 LIG X 999      43.339 131.755  20.156  1.00  0.00     0.001 A 
HETATM   13  C12 LIG X 999      43.105 131.942  18.761  1.00  0.00     0.045 A 
HETATM   14  C13 LIG X 999      44.098 131.513  17.862  1.00  0.00     0.003 A 
HETATM   15  C14 LIG X 999      44.100 131.610  16.380  1.00  0.00     0.278 C 
ENDROOT
BRANCH  13  16
HETATM   16  N2  LIG X 999      41.901 132.538  18.250  1.00  0.00    -0.398 N 
HETATM   17  H14 LIG X 999      40.957 132.331  18.635  1.00  0.00     0.156 HD
HETATM   18  H15 LIG X 999      41.926 133.152  17.405  1.00  0.00     0.156 HD
ENDBRANCH  13  16
TORSDOF 1
ENDMDL
MODEL 2
REMARK VINA RESULT:      -7.6      1.371      2.529
REMARK  1 active torsions:
REMARK  status: ('A' for Active; 'I' for Inactive)
REMARK    1  A    between atoms: C12_13  and  N2_14 
ROOT
HETATM    1  C1  LIG X 999      46.443 131.913  15.072  1.00  0.00     0.272 C 
HETATM    2  N1  LIG X 999      45.584 130.844  15.635  1.00  0.00    -0.067 N 
HETATM    3  C2  LIG X 999      45.564 129.699  14.697  1.00  0.00     0.272 C 
HETATM    4  C3  LIG X 999      44.201 131.365  15.864  1.00  0.00     0.276 C 
HETATM    5  C4  LIG X 999      44.052 131.471  17.330  1.00  0.00    -0.021 A 
HETATM    6  C5  LIG X 999      42.983 132.018  18.029  1.00  0.00     0.022 A 
HETATM    7  C6  LIG X 999      43.015 132.008  19.434  1.00  0.00    -0.023 A 
HETATM    8  C7  LIG X 999      41.941 132.552  20.157  1.00  0.00     0.012 A 
HETATM    9  C8  LIG X 999      41.949 132.532  21.551  1.00  0.00     0.001 A 
HETATM   10  C9  LIG X 999      43.022 131.965  22.237  1.00  0.00     0.001 A 
HETATM   11  C10 LIG X 999      44.102 131.419  21.538  1.00  0.00     0.014 A 
HETATM   12  C11 LIG X 999      44.129 131.438  20.126  1.00  0.00     0.001 A 
HETATM   13  C12 LIG X 999      45.213 130.894  19.373  1.00  0.00     0.045 A 
HETATM   14  C13 LIG X 999      45.126 130.931  17.970  1.00  0.00     0.003 A 
HETATM   15  C14 LIG X 999      46.103 130.421  16.975  1.00  0.00     0.278 C 
ENDROOT
BRANCH  13  16
HETATM   16  N2  LIG X 999      46.379 130.327  19.993  1.00  0.00    -0.398 N 
HETATM   17  H14 LIG X 999      46.378 129.398  20.461  1.00  0.00     0.156 HD
HETATM   18  H15 LIG X 999      47.265 130.875  20.065  1.00  0.00     0.156 HD
ENDBRANCH  13  16
TORSDOF 1
ENDMDL
MODEL 3
REMARK VINA RESULT:      -7.4      1.490      5.255
REMARK  1 active torsions:
REMARK  status: ('A' for Active; 'I' for Inactive)
REMARK    1  A    between atoms: C12_13  and  N2_14 
ROOT
HETATM    1  C1  LIG X 999      45.315 132.306  21.982  1.00  0.00     0.272 C 
HETATM    2  N1  LIG X 999      44.741 131.118  21.306  1.00  0.00    -0.067 N 
HETATM    3  C2  LIG X 999      44.194 130.199  22.330  1.00  0.00     0.272 C 
HETATM    4  C3  LIG X 999      45.792 130.435  20.490  1.00  0.00     0.276 C 
HETATM    5  C4  LIG X 999      45.438 130.701  19.080  1.00  0.00    -0.021 A 
HETATM    6  C5  LIG X 999      46.179 130.374  17.951  1.00  0.00     0.022 A 
HETATM    7  C6  LIG X 999      45.661 130.693  16.684  1.00  0.00    -0.023 A 
HETATM    8  C7  LIG X 999      46.393 130.365  15.532  1.00  0.00     0.012 A 
HETATM    9  C8  LIG X 999      45.885 130.657  14.267  1.00  0.00     0.001 A 
HETATM   10  C9  LIG X 999      44.641 131.273  14.138  1.00  0.00     0.001 A 
HETATM   11  C10 LIG X 999      43.895 131.608  15.272  1.00  0.00     0.014 A 
HETATM   12  C11 LIG X 999      44.391 131.339  16.566  1.00  0.00     0.001 A 
HETATM   13  C12 LIG X 999      43.664 131.668  17.749  1.00  0.00     0.045 A 
HETATM   14  C13 LIG X 999      44.230 131.323  18.989  1.00  0.00     0.003 A 
HETATM   15  C14 LIG X 999      43.670 131.540  20.347  1.00  0.00     0.278 C 
ENDROOT
BRANCH  13  16
HETATM   16  N2  LIG X 999      42.393 132.339  17.716  1.00  0.00    -0.398 N 
HETATM   17  H14 LIG X 999      42.015 132.798  16.862  1.00  0.00     0.156 HD
HETATM   18  H15 LIG X 999      41.831 132.462  18.588  1.00  0.00     0.156 HD
ENDBRANCH  13  16
TORSDOF 1
ENDMDL
MODEL 4
REMARK VINA RESULT:      -7.1      1.508      5.303
REMARK  1 active torsions:
REMARK  status: ('A' for Active; 'I' for Inactive)
REMARK    1  A    between atoms: C12_13  and  N2_14 
ROOT
HETATM    1  C1  LIG X 999      44.094 132.422  23.757  1.00  0.00     0.272 C 
HETATM    2  N1  LIG X 999      43.558 131.282  22.976  1.00  0.00    -0.067 N 
HETATM    3  C2  LIG X 999      42.783 130.400  23.878  1.00  0.00     0.272 C 
HETATM    4  C3  LIG X 999      44.679 130.527  22.335  1.00  0.00     0.276 C 
HETATM    5  C4  LIG X 999      44.587 130.824  20.891  1.00  0.00    -0.021 A 
HETATM    6  C5  LIG X 999      45.482 130.449  19.896  1.00  0.00     0.022 A 
HETATM    7  C6  LIG X 999      45.208 130.810  18.566  1.00  0.00    -0.023 A 
HETATM    8  C7  LIG X 999      46.098 130.434  17.547  1.00  0.00     0.012 A 
HETATM    9  C8  LIG X 999      45.831 130.768  16.220  1.00  0.00     0.001 A 
HETATM   10  C9  LIG X 999      44.673 131.474  15.895  1.00  0.00     0.001 A 
HETATM   11  C10 LIG X 999      43.774 131.858  16.894  1.00  0.00     0.014 A 
HETATM   12  C11 LIG X 999      44.025 131.547  18.248  1.00  0.00     0.001 A 
HETATM   13  C12 LIG X 999      43.135 131.924  19.298  1.00  0.00     0.045 A 
HETATM   14  C13 LIG X 999      43.459 131.533  20.610  1.00  0.00     0.003 A 
HETATM   15  C14 LIG X 999      42.696 131.785  21.858  1.00  0.00     0.278 C 
ENDROOT
BRANCH  13  16
HETATM   16  N2  LIG X 999      41.939 132.686  19.065  1.00  0.00    -0.398 N 
HETATM   17  H14 LIG X 999      41.775 133.626  19.481  1.00  0.00     0.156 HD
HETATM   18  H15 LIG X 999      41.144 132.281  18.523  1.00  0.00     0.156 HD
ENDBRANCH  13  16
TORSDOF 1
ENDMDL
MODEL 5
REMARK VINA RESULT:      -6.6      2.091      5.838
REMARK  1 active torsions:
REMARK  status: ('A' for Active; 'I' for Inactive)
REMARK    1  A    between atoms: C12_13  and  N2_14 
ROOT
HETATM    1  C1  LIG X 999      42.750 130.169  24.070  1.00  0.00     0.272 C 
HETATM    2  N1  LIG X 999      43.255 131.440  23.498  1.00  0.00    -0.067 N 
HETATM    3  C2  LIG X 999      43.376 132.442  24.582  1.00  0.00     0.272 C 
HETATM    4  C3  LIG X 999      42.328 131.926  22.431  1.00  0.00     0.276 C 
HETATM    5  C4  LIG X 999      43.048 131.728  21.156  1.00  0.00    -0.021 A 
HETATM    6  C5  LIG X 999      42.553 131.919  19.871  1.00  0.00     0.022 A 
HETATM    7  C6  LIG X 999      43.405 131.697  18.776  1.00  0.00    -0.023 A 
HETATM    8  C7  LIG X 999      42.923 131.890  17.471  1.00  0.00     0.012 A 
HETATM    9  C8  LIG X 999      43.761 131.693  16.375  1.00  0.00     0.001 A 
HETATM   10  C9  LIG X 999      45.087 131.308  16.568  1.00  0.00     0.001 A 
HETATM   11  C10 LIG X 999      45.587 131.109  17.857  1.00  0.00     0.014 A 
HETATM   12  C11 LIG X 999      44.759 131.287  18.987  1.00  0.00     0.001 A 
HETATM   13  C12 LIG X 999      45.228 131.091  20.320  1.00  0.00     0.045 A 
HETATM   14  C13 LIG X 999      44.331 131.330  21.377  1.00  0.00     0.003 A 
HETATM   15  C14 LIG X 999      44.580 131.215  22.836  1.00  0.00     0.278 C 
ENDROOT
BRANCH  13  16
HETATM   16  N2  LIG X 999      46.565 130.656  20.615  1.00  0.00    -0.398 N 
HETATM   17  H14 LIG X 999      46.853 130.299  21.549  1.00  0.00     0.156 HD
HETATM   18  H15 LIG X 999      47.329 130.760  19.910  1.00  0.00     0.156 HD
ENDBRANCH  13  16
TORSDOF 1
ENDMDL
