MODEL 1
REMARK VINA RESULT:      -6.5      0.000      0.000
REMARK  4 active torsions:
REMARK  status: ('A' for Active; 'I' for Inactive)
REMARK    1  A    between atoms: O1_2  and  C1_3 
REMARK    2  A    between atoms: C1_3  and  O4_18 
REMARK       I    between atoms: N1_4  and  C2_5 
REMARK    3  A    between atoms: C2_5  and  C3_7 
REMARK    4  A    between atoms: O4_18  and  C13_19 
ROOT
HETATM    1  C3  LIG X 999      44.014 131.420  21.917  1.00  0.00     0.071 A 
HETATM    2  C4  LIG X 999      42.849 132.019  21.398  1.00  0.00     0.123 A 
HETATM    3  O3  LIG X 999      41.837 132.462  22.244  1.00  0.00    -0.191 OA
HETATM    4  C5  LIG X 999      42.685 132.159  20.016  1.00  0.00     0.053 A 
HETATM    5  C6  LIG X 999      43.666 131.688  19.134  1.00  0.00    -0.023 A 
HETATM    6  C7  LIG X 999      43.506 131.823  17.745  1.00  0.00     0.012 A 
HETATM    7  C8  LIG X 999      44.490 131.343  16.875  1.00  0.00     0.001 A 
HETATM    8  C9  LIG X 999      45.637 130.726  17.382  1.00  0.00     0.001 A 
HETATM    9  C10 LIG X 999      45.807 130.585  18.762  1.00  0.00     0.012 A 
HETATM   10  C11 LIG X 999      44.827 131.062  19.646  1.00  0.00    -0.025 A 
HETATM   11  C12 LIG X 999      44.989 130.928  21.034  1.00  0.00     0.032 A 
ENDROOT
BRANCH   1  12
HETATM   12  C2  LIG X 999      44.213 131.265  23.377  1.00  0.00     0.283 C 
HETATM   13  N1  LIG X 999      44.009 130.015  24.053  1.00  0.00    -0.162 NA
HETATM   14  C1  LIG X 999      43.099 129.132  23.759  1.00  0.00     0.289 C 
HETATM   15  O2  LIG X 999      44.609 132.255  24.048  1.00  0.00    -0.265 OA
BRANCH  14  16
HETATM   16  O1  LIG X 999      42.160 129.384  22.762  1.00  0.00    -0.325 OA
HETATM   17  H1  LIG X 999      41.396 130.027  22.924  1.00  0.00     0.221 HD
ENDBRANCH  14  16
BRANCH  14  18
HETATM   18  O4  LIG X 999      43.025 127.918  24.459  1.00  0.00    -0.294 OA
BRANCH  18  19
HETATM   19  C13 LIG X 999      43.436 126.642  23.956  1.00  0.00     0.224 C 
HETATM   20 CL1  LIG X 999      44.604 126.818  22.614  1.00  0.00    -0.095 Cl
HETATM   21  C14 LIG X 999      42.236 125.796  23.533  1.00  0.00     0.057 C 
ENDBRANCH  18  19
ENDBRANCH  14  18
ENDBRANCH   1  12
TORSDOF 4
ENDMDL
MODEL 2
REMARK VINA RESULT:      -6.1      1.589      2.360
REMARK  4 active torsions:
REMARK  status: ('A' for Active; 'I' for Inactive)
REMARK    1  A    between atoms: O1_2  and  C1_3 
REMARK    2  A    between atoms: C1_3  and  O4_18 
REMARK       I    between atoms: N1_4  and  C2_5 
REMARK    3  A    between atoms: C2_5  and  C3_7 
REMARK    4  A    between atoms: O4_18  and  C13_19 
ROOT
HETATM    1  C3  LIG X 999      44.951 131.561  19.585  1.00  0.00     0.071 A 
HETATM    2  C4  LIG X 999      43.766 132.117  19.062  1.00  0.00     0.123 A 
HETATM    3  O3  LIG X 999      42.889 132.822  19.879  1.00  0.00    -0.191 OA
HETATM    4  C5  LIG X 999      43.445 131.947  17.711  1.00  0.00     0.053 A 
HETATM    5  C6  LIG X 999      44.287 131.209  16.869  1.00  0.00    -0.023 A 
HETATM    6  C7  LIG X 999      43.969 131.033  15.513  1.00  0.00     0.012 A 
HETATM    7  C8  LIG X 999      44.814 130.289  14.684  1.00  0.00     0.001 A 
HETATM    8  C9  LIG X 999      45.979 129.715  15.201  1.00  0.00     0.001 A 
HETATM    9  C10 LIG X 999      46.306 129.882  16.550  1.00  0.00     0.012 A 
HETATM   10  C11 LIG X 999      45.465 130.627  17.393  1.00  0.00    -0.025 A 
HETATM   11  C12 LIG X 999      45.785 130.803  18.748  1.00  0.00     0.032 A 
ENDROOT
BRANCH   1  12
HETATM   12  C2  LIG X 999      45.315 131.731  21.011  1.00  0.00     0.283 C 
HETATM   13  N1  LIG X 999      44.847 130.840  22.035  1.00  0.00    -0.162 NA
HETATM   14  C1  LIG X 999      43.678 130.269  22.070  1.00  0.00     0.289 C 
HETATM   15  O2  LIG X 999      46.091 132.668  21.337  1.00  0.00    -0.265 OA
BRANCH  14  16
HETATM   16  O1  LIG X 999      42.719 130.555  21.102  1.00  0.00    -0.325 OA
HETATM   17  H1  LIG X 999      42.986 130.963  20.215  1.00  0.00     0.221 HD
ENDBRANCH  14  16
BRANCH  14  18
HETATM   18  O4  LIG X 999      43.347 129.374  23.099  1.00  0.00    -0.294 OA
BRANCH  18  19
HETATM   19  C13 LIG X 999      44.231 128.407  23.676  1.00  0.00     0.224 C 
HETATM   20 CL1  LIG X 999      45.104 127.489  22.415  1.00  0.00    -0.095 Cl
HETATM   21  C14 LIG X 999      43.489 127.468  24.625  1.00  0.00     0.057 C 
ENDBRANCH  18  19
ENDBRANCH  14  18
ENDBRANCH   1  12
TORSDOF 4
ENDMDL
MODEL 3
REMARK VINA RESULT:      -5.3      5.531      8.011
REMARK  4 active torsions:
REMARK  status: ('A' for Active; 'I' for Inactive)
REMARK    1  A    between atoms: O1_2  and  C1_3 
REMARK    2  A    between atoms: C1_3  and  O4_18 
REMARK       I    between atoms: N1_4  and  C2_5 
REMARK    3  A    between atoms: C2_5  and  C3_7 
REMARK    4  A    between atoms: O4_18  and  C13_19 
ROOT
HETATM    1  C3  LIG X 999      44.317 131.045  16.480  1.00  0.00     0.071 A 
HETATM    2  C4  LIG X 999      45.356 130.570  17.307  1.00  0.00     0.123 A 
HETATM    3  O3  LIG X 999      46.448 129.899  16.765  1.00  0.00    -0.191 OA
HETATM    4  C5  LIG X 999      45.293 130.753  18.692  1.00  0.00     0.053 A 
HETATM    5  C6  LIG X 999      44.189 131.390  19.274  1.00  0.00    -0.023 A 
HETATM    6  C7  LIG X 999      44.119 131.573  20.664  1.00  0.00     0.012 A 
HETATM    7  C8  LIG X 999      43.010 132.205  21.234  1.00  0.00     0.001 A 
HETATM    8  C9  LIG X 999      41.964 132.656  20.423  1.00  0.00     0.001 A 
HETATM    9  C10 LIG X 999      42.022 132.478  19.038  1.00  0.00     0.012 A 
HETATM   10  C11 LIG X 999      43.131 131.845  18.454  1.00  0.00    -0.025 A 
HETATM   11  C12 LIG X 999      43.200 131.664  17.064  1.00  0.00     0.032 A 
ENDROOT
BRANCH   1  12
HETATM   12  C2  LIG X 999      44.364 130.867  15.010  1.00  0.00     0.283 C 
HETATM   13  N1  LIG X 999      45.575 131.018  14.255  1.00  0.00    -0.162 NA
HETATM   14  C1  LIG X 999      46.524 131.873  14.503  1.00  0.00     0.289 C 
HETATM   15  O2  LIG X 999      43.311 130.538  14.401  1.00  0.00    -0.265 OA
BRANCH  14  16
HETATM   16  O1  LIG X 999      46.390 132.805  15.530  1.00  0.00    -0.325 OA
HETATM   17  H1  LIG X 999      45.588 132.781  16.147  1.00  0.00     0.221 HD
ENDBRANCH  14  16
BRANCH  14  18
HETATM   18  O4  LIG X 999      47.690 131.897  13.724  1.00  0.00    -0.294 OA
BRANCH  18  19
HETATM   19  C13 LIG X 999      48.245 130.777  13.024  1.00  0.00     0.224 C 
HETATM   20 CL1  LIG X 999      47.650 130.702  11.340  1.00  0.00    -0.095 Cl
HETATM   21  C14 LIG X 999      47.972 129.468  13.762  1.00  0.00     0.057 C 
ENDBRANCH  18  19
ENDBRANCH  14  18
ENDBRANCH   1  12
TORSDOF 4
ENDMDL
MODEL 4
REMARK VINA RESULT:      -4.9      1.790      3.051
REMARK  4 active torsions:
REMARK  status: ('A' for Active; 'I' for Inactive)
REMARK    1  A    between atoms: O1_2  and  C1_3 
REMARK    2  A    between atoms: C1_3  and  O4_18 
REMARK       I    between atoms: N1_4  and  C2_5 
REMARK    3  A    between atoms: C2_5  and  C3_7 
REMARK    4  A    between atoms: O4_18  and  C13_19 
ROOT
HETATM    1  C3  LIG X 999      43.550 131.938  19.547  1.00  0.00     0.071 A 
HETATM    2  C4  LIG X 999      44.860 131.592  19.936  1.00  0.00     0.123 A 
HETATM    3  O3  LIG X 999      45.277 131.749  21.254  1.00  0.00    -0.191 OA
HETATM    4  C5  LIG X 999      45.769 131.103  18.992  1.00  0.00     0.053 A 
HETATM    5  C6  LIG X 999      45.394 130.971  17.649  1.00  0.00    -0.023 A 
HETATM    6  C7  LIG X 999      46.302 130.483  16.696  1.00  0.00     0.012 A 
HETATM    7  C8  LIG X 999      45.918 130.360  15.358  1.00  0.00     0.001 A 
HETATM    8  C9  LIG X 999      44.629 130.724  14.960  1.00  0.00     0.001 A 
HETATM    9  C10 LIG X 999      43.716 131.212  15.899  1.00  0.00     0.012 A 
HETATM   10  C11 LIG X 999      44.089 131.340  17.246  1.00  0.00    -0.025 A 
HETATM   11  C12 LIG X 999      43.179 131.826  18.197  1.00  0.00     0.032 A 
ENDROOT
BRANCH   1  12
HETATM   12  C2  LIG X 999      42.568 132.455  20.529  1.00  0.00     0.283 C 
HETATM   13  N1  LIG X 999      42.630 132.124  21.925  1.00  0.00    -0.162 NA
HETATM   14  C1  LIG X 999      43.004 130.980  22.419  1.00  0.00     0.289 C 
HETATM   15  O2  LIG X 999      41.666 133.241  20.136  1.00  0.00    -0.265 OA
BRANCH  14  16
HETATM   16  O1  LIG X 999      43.316 129.912  21.581  1.00  0.00    -0.325 OA
HETATM   17  H1  LIG X 999      43.204 129.993  20.578  1.00  0.00     0.221 HD
ENDBRANCH  14  16
BRANCH  14  18
HETATM   18  O4  LIG X 999      43.072 130.785  23.807  1.00  0.00    -0.294 OA
BRANCH  18  19
HETATM   19  C13 LIG X 999      42.966 129.523  24.475  1.00  0.00     0.224 C 
HETATM   20 CL1  LIG X 999      44.427 128.526  24.218  1.00  0.00    -0.095 Cl
HETATM   21  C14 LIG X 999      41.706 128.771  24.051  1.00  0.00     0.057 C 
ENDBRANCH  18  19
ENDBRANCH  14  18
ENDBRANCH   1  12
TORSDOF 4
ENDMDL
MODEL 5
REMARK VINA RESULT:      -4.8      3.344      5.921
REMARK  4 active torsions:
REMARK  status: ('A' for Active; 'I' for Inactive)
REMARK    1  A    between atoms: O1_2  and  C1_3 
REMARK    2  A    between atoms: C1_3  and  O4_18 
REMARK       I    between atoms: N1_4  and  C2_5 
REMARK    3  A    between atoms: C2_5  and  C3_7 
REMARK    4  A    between atoms: O4_18  and  C13_19 
ROOT
HETATM    1  C3  LIG X 999      44.716 130.854  21.453  1.00  0.00     0.071 A 
HETATM    2  C4  LIG X 999      43.415 131.051  21.960  1.00  0.00     0.123 A 
HETATM    3  O3  LIG X 999      42.742 132.250  21.751  1.00  0.00    -0.191 OA
HETATM    4  C5  LIG X 999      42.789 130.043  22.702  1.00  0.00     0.053 A 
HETATM    5  C6  LIG X 999      43.454 128.838  22.964  1.00  0.00    -0.023 A 
HETATM    6  C7  LIG X 999      42.832 127.825  23.710  1.00  0.00     0.012 A 
HETATM    7  C8  LIG X 999      43.508 126.629  23.970  1.00  0.00     0.001 A 
HETATM    8  C9  LIG X 999      44.806 126.437  23.491  1.00  0.00     0.001 A 
HETATM    9  C10 LIG X 999      45.437 127.438  22.748  1.00  0.00     0.012 A 
HETATM   10  C11 LIG X 999      44.769 128.644  22.480  1.00  0.00    -0.025 A 
HETATM   11  C12 LIG X 999      45.392 129.656  21.733  1.00  0.00     0.032 A 
ENDROOT
BRANCH   1  12
HETATM   12  C2  LIG X 999      45.398 131.904  20.661  1.00  0.00     0.283 C 
HETATM   13  N1  LIG X 999      45.333 131.951  19.228  1.00  0.00    -0.162 NA
HETATM   14  C1  LIG X 999      45.307 130.919  18.434  1.00  0.00     0.289 C 
HETATM   15  O2  LIG X 999      46.029 132.812  21.265  1.00  0.00    -0.265 OA
BRANCH  14  16
HETATM   16  O1  LIG X 999      45.423 129.628  18.944  1.00  0.00    -0.325 OA
HETATM   17  H1  LIG X 999      44.605 129.124  19.262  1.00  0.00     0.221 HD
ENDBRANCH  14  16
BRANCH  14  18
HETATM   18  O4  LIG X 999      45.193 131.085  17.045  1.00  0.00    -0.294 OA
BRANCH  18  19
HETATM   19  C13 LIG X 999      46.038 130.474  16.064  1.00  0.00     0.224 C 
HETATM   20 CL1  LIG X 999      46.569 131.658  14.834  1.00  0.00    -0.095 Cl
HETATM   21  C14 LIG X 999      45.356 129.272  15.411  1.00  0.00     0.057 C 
ENDBRANCH  18  19
ENDBRANCH  14  18
ENDBRANCH   1  12
TORSDOF 4
ENDMDL
MODEL 6
REMARK VINA RESULT:      -4.6      1.618      2.504
REMARK  4 active torsions:
REMARK  status: ('A' for Active; 'I' for Inactive)
REMARK    1  A    between atoms: O1_2  and  C1_3 
REMARK    2  A    between atoms: C1_3  and  O4_18 
REMARK       I    between atoms: N1_4  and  C2_5 
REMARK    3  A    between atoms: C2_5  and  C3_7 
REMARK    4  A    between atoms: O4_18  and  C13_19 
ROOT
HETATM    1  C3  LIG X 999      43.356 130.660  22.818  1.00  0.00     0.071 A 
HETATM    2  C4  LIG X 999      44.490 129.824  22.786  1.00  0.00     0.123 A 
HETATM    3  O3  LIG X 999      44.871 129.096  23.909  1.00  0.00    -0.191 OA
HETATM    4  C5  LIG X 999      45.262 129.729  21.624  1.00  0.00     0.053 A 
HETATM    5  C6  LIG X 999      44.930 130.479  20.488  1.00  0.00    -0.023 A 
HETATM    6  C7  LIG X 999      45.703 130.391  19.319  1.00  0.00     0.012 A 
HETATM    7  C8  LIG X 999      45.364 131.148  18.194  1.00  0.00     0.001 A 
HETATM    8  C9  LIG X 999      44.255 131.998  18.227  1.00  0.00     0.001 A 
HETATM    9  C10 LIG X 999      43.478 132.095  19.384  1.00  0.00     0.012 A 
HETATM   10  C11 LIG X 999      43.808 131.340  20.521  1.00  0.00    -0.025 A 
HETATM   11  C12 LIG X 999      43.033 131.428  21.688  1.00  0.00     0.032 A 
ENDROOT
BRANCH   1  12
HETATM   12  C2  LIG X 999      42.519 130.773  24.036  1.00  0.00     0.283 C 
HETATM   13  N1  LIG X 999      41.843 129.646  24.612  1.00  0.00    -0.162 NA
HETATM   14  C1  LIG X 999      41.312 128.659  23.951  1.00  0.00     0.289 C 
HETATM   15  O2  LIG X 999      42.424 131.891  24.610  1.00  0.00    -0.265 OA
BRANCH  14  16
HETATM   16  O1  LIG X 999      41.295 128.664  22.558  1.00  0.00    -0.325 OA
HETATM   17  H1  LIG X 999      41.868 128.017  22.033  1.00  0.00     0.221 HD
ENDBRANCH  14  16
BRANCH  14  18
HETATM   18  O4  LIG X 999      40.718 127.581  24.625  1.00  0.00    -0.294 OA
BRANCH  18  19
HETATM   19  C13 LIG X 999      41.146 126.216  24.550  1.00  0.00     0.224 C 
HETATM   20 CL1  LIG X 999      42.714 126.072  23.703  1.00  0.00    -0.095 Cl
HETATM   21  C14 LIG X 999      40.084 125.334  23.896  1.00  0.00     0.057 C 
ENDBRANCH  18  19
ENDBRANCH  14  18
ENDBRANCH   1  12
TORSDOF 4
ENDMDL
MODEL 7
REMARK VINA RESULT:      -4.6      4.046      5.770
REMARK  4 active torsions:
REMARK  status: ('A' for Active; 'I' for Inactive)
REMARK    1  A    between atoms: O1_2  and  C1_3 
REMARK    2  A    between atoms: C1_3  and  O4_18 
REMARK       I    between atoms: N1_4  and  C2_5 
REMARK    3  A    between atoms: C2_5  and  C3_7 
REMARK    4  A    between atoms: O4_18  and  C13_19 
ROOT
HETATM    1  C3  LIG X 999      45.057 131.422  18.455  1.00  0.00     0.071 A 
HETATM    2  C4  LIG X 999      45.605 130.133  18.615  1.00  0.00     0.123 A 
HETATM    3  O3  LIG X 999      45.534 129.474  19.838  1.00  0.00    -0.191 OA
HETATM    4  C5  LIG X 999      46.248 129.504  17.543  1.00  0.00     0.053 A 
HETATM    5  C6  LIG X 999      46.373 130.156  16.309  1.00  0.00    -0.023 A 
HETATM    6  C7  LIG X 999      47.020 129.530  15.231  1.00  0.00     0.012 A 
HETATM    7  C8  LIG X 999      47.142 130.193  14.006  1.00  0.00     0.001 A 
HETATM    8  C9  LIG X 999      46.623 131.481  13.849  1.00  0.00     0.001 A 
HETATM    9  C10 LIG X 999      45.978 132.114  14.914  1.00  0.00     0.012 A 
HETATM   10  C11 LIG X 999      45.848 131.460  16.150  1.00  0.00    -0.025 A 
HETATM   11  C12 LIG X 999      45.200 132.085  17.226  1.00  0.00     0.032 A 
ENDROOT
BRANCH   1  12
HETATM   12  C2  LIG X 999      44.367 132.106  19.574  1.00  0.00     0.283 C 
HETATM   13  N1  LIG X 999      45.072 132.891  20.548  1.00  0.00    -0.162 NA
HETATM   14  C1  LIG X 999      46.260 132.635  21.014  1.00  0.00     0.289 C 
HETATM   15  O2  LIG X 999      43.112 132.029  19.656  1.00  0.00    -0.265 OA
BRANCH  14  16
HETATM   16  O1  LIG X 999      46.937 131.478  20.638  1.00  0.00    -0.325 OA
HETATM   17  H1  LIG X 999      47.082 130.726  21.300  1.00  0.00     0.221 HD
ENDBRANCH  14  16
BRANCH  14  18
HETATM   18  O4  LIG X 999      46.873 133.503  21.931  1.00  0.00    -0.294 OA
BRANCH  18  19
HETATM   19  C13 LIG X 999      48.160 134.109  21.768  1.00  0.00     0.224 C 
HETATM   20 CL1  LIG X 999      49.153 133.935  23.244  1.00  0.00    -0.095 Cl
HETATM   21  C14 LIG X 999      48.037 135.576  21.358  1.00  0.00     0.057 C 
ENDBRANCH  18  19
ENDBRANCH  14  18
ENDBRANCH   1  12
TORSDOF 4
ENDMDL
MODEL 8
REMARK VINA RESULT:      -4.5      2.580      5.815
REMARK  4 active torsions:
REMARK  status: ('A' for Active; 'I' for Inactive)
REMARK    1  A    between atoms: O1_2  and  C1_3 
REMARK    2  A    between atoms: C1_3  and  O4_18 
REMARK       I    between atoms: N1_4  and  C2_5 
REMARK    3  A    between atoms: C2_5  and  C3_7 
REMARK    4  A    between atoms: O4_18  and  C13_19 
ROOT
HETATM    1  C3  LIG X 999      43.858 128.979  23.436  1.00  0.00     0.071 A 
HETATM    2  C4  LIG X 999      42.677 128.280  23.758  1.00  0.00     0.123 A 
HETATM    3  O3  LIG X 999      41.537 128.961  24.173  1.00  0.00    -0.191 OA
HETATM    4  C5  LIG X 999      42.643 126.884  23.684  1.00  0.00     0.053 A 
HETATM    5  C6  LIG X 999      43.786 126.165  23.309  1.00  0.00    -0.023 A 
HETATM    6  C7  LIG X 999      43.759 124.763  23.235  1.00  0.00     0.012 A 
HETATM    7  C8  LIG X 999      44.907 124.057  22.864  1.00  0.00     0.001 A 
HETATM    8  C9  LIG X 999      46.088 124.742  22.567  1.00  0.00     0.001 A 
HETATM    9  C10 LIG X 999      46.128 126.137  22.638  1.00  0.00     0.012 A 
HETATM   10  C11 LIG X 999      44.982 126.858  23.009  1.00  0.00    -0.025 A 
HETATM   11  C12 LIG X 999      45.011 128.259  23.080  1.00  0.00     0.032 A 
ENDROOT
BRANCH   1  12
HETATM   12  C2  LIG X 999      43.918 130.458  23.503  1.00  0.00     0.283 C 
HETATM   13  N1  LIG X 999      43.780 131.287  22.339  1.00  0.00    -0.162 NA
HETATM   14  C1  LIG X 999      44.220 131.003  21.148  1.00  0.00     0.289 C 
HETATM   15  O2  LIG X 999      44.059 131.014  24.625  1.00  0.00    -0.265 OA
BRANCH  14  16
HETATM   16  O1  LIG X 999      44.963 129.847  20.922  1.00  0.00    -0.325 OA
HETATM   17  H1  LIG X 999      44.651 128.955  21.282  1.00  0.00     0.221 HD
ENDBRANCH  14  16
BRANCH  14  18
HETATM   18  O4  LIG X 999      43.983 131.870  20.070  1.00  0.00    -0.294 OA
BRANCH  18  19
HETATM   19  C13 LIG X 999      42.911 131.751  19.129  1.00  0.00     0.224 C 
HETATM   20 CL1  LIG X 999      43.516 131.773  17.447  1.00  0.00    -0.095 Cl
HETATM   21  C14 LIG X 999      41.855 132.834  19.347  1.00  0.00     0.057 C 
ENDBRANCH  18  19
ENDBRANCH  14  18
ENDBRANCH   1  12
TORSDOF 4
ENDMDL
MODEL 9
REMARK VINA RESULT:      -4.4      3.294      4.963
REMARK  4 active torsions:
REMARK  status: ('A' for Active; 'I' for Inactive)
REMARK    1  A    between atoms: O1_2  and  C1_3 
REMARK    2  A    between atoms: C1_3  and  O4_18 
REMARK       I    between atoms: N1_4  and  C2_5 
REMARK    3  A    between atoms: C2_5  and  C3_7 
REMARK    4  A    between atoms: O4_18  and  C13_19 
ROOT
HETATM    1  C3  LIG X 999      44.347 131.289  19.681  1.00  0.00     0.071 A 
HETATM    2  C4  LIG X 999      43.300 131.914  18.974  1.00  0.00     0.123 A 
HETATM    3  O3  LIG X 999      42.238 132.507  19.651  1.00  0.00    -0.191 OA
HETATM    4  C5  LIG X 999      43.305 131.930  17.576  1.00  0.00     0.053 A 
HETATM    5  C6  LIG X 999      44.339 131.308  16.864  1.00  0.00    -0.023 A 
HETATM    6  C7  LIG X 999      44.348 131.317  15.460  1.00  0.00     0.012 A 
HETATM    7  C8  LIG X 999      45.382 130.688  14.760  1.00  0.00     0.001 A 
HETATM    8  C9  LIG X 999      46.411 130.045  15.454  1.00  0.00     0.001 A 
HETATM    9  C10 LIG X 999      46.412 130.028  16.851  1.00  0.00     0.012 A 
HETATM   10  C11 LIG X 999      45.380 130.656  17.565  1.00  0.00    -0.025 A 
HETATM   11  C12 LIG X 999      45.372 130.646  18.969  1.00  0.00     0.032 A 
ENDROOT
BRANCH   1  12
HETATM   12  C2  LIG X 999      44.366 131.263  21.162  1.00  0.00     0.283 C 
HETATM   13  N1  LIG X 999      45.188 132.149  21.937  1.00  0.00    -0.162 NA
HETATM   14  C1  LIG X 999      46.379 132.561  21.610  1.00  0.00     0.289 C 
HETATM   15  O2  LIG X 999      43.607 130.461  21.770  1.00  0.00    -0.265 OA
BRANCH  14  16
HETATM   16  O1  LIG X 999      47.003 132.086  20.459  1.00  0.00    -0.325 OA
HETATM   17  H1  LIG X 999      47.203 132.708  19.686  1.00  0.00     0.221 HD
ENDBRANCH  14  16
BRANCH  14  18
HETATM   18  O4  LIG X 999      47.073 133.469  22.424  1.00  0.00    -0.294 OA
BRANCH  18  19
HETATM   19  C13 LIG X 999      48.321 134.091  22.098  1.00  0.00     0.224 C 
HETATM   20 CL1  LIG X 999      49.416 134.132  23.511  1.00  0.00    -0.095 Cl
HETATM   21  C14 LIG X 999      48.114 135.491  21.523  1.00  0.00     0.057 C 
ENDBRANCH  18  19
ENDBRANCH  14  18
ENDBRANCH   1  12
TORSDOF 4
ENDMDL
