REMARK VINA RESULT:      -7.2      0.000      0.000
REMARK  3 active torsions:
REMARK  status: ('A' for Active; 'I' for Inactive)
REMARK       I    between atoms: N1_2  and  C3_4 
REMARK    1  A    between atoms: C3_4  and  O2_6 
REMARK    2  A    between atoms: O2_6  and  C4_7 
REMARK    3  A    between atoms: C7_10  and  N2_11 
ROOT
HETATM    1  C4  LIG X 999      45.035 130.884  18.260  1.00  0.00     0.092 A 
HETATM    2  C5  LIG X 999      46.083 130.473  19.096  1.00  0.00     0.040 A 
HETATM    3  C6  LIG X 999      46.039 130.721  20.464  1.00  0.00     0.033 A 
HETATM    4  C7  LIG X 999      44.946 131.377  21.046  1.00  0.00     0.037 A 
HETATM    5  C8  LIG X 999      43.850 131.762  20.228  1.00  0.00     0.003 A 
HETATM    6  C9  LIG X 999      42.690 132.368  20.761  1.00  0.00     0.014 A 
HETATM    7  C10 LIG X 999      41.633 132.740  19.930  1.00  0.00     0.001 A 
HETATM    8  C11 LIG X 999      41.702 132.510  18.558  1.00  0.00     0.001 A 
HETATM    9  C12 LIG X 999      42.826 131.899  18.007  1.00  0.00     0.015 A 
HETATM   10  C13 LIG X 999      43.906 131.512  18.826  1.00  0.00     0.010 A 
ENDROOT
BRANCH   1  11
HETATM   11  O2  LIG X 999      45.067 130.636  16.878  1.00  0.00    -0.261 OA
BRANCH  11  12
HETATM   12  C3  LIG X 999      45.828 131.351  15.940  1.00  0.00     0.367 C 
HETATM   13  N1  LIG X 999      46.486 130.646  14.875  1.00  0.00    -0.336 N 
HETATM   14  C1  LIG X 999      47.268 131.387  13.882  1.00  0.00     0.154 C 
HETATM   15  C2  LIG X 999      46.369 129.187  14.802  1.00  0.00     0.154 C 
HETATM   16  O1  LIG X 999      45.894 132.609  15.998  1.00  0.00    -0.238 OA
ENDBRANCH  11  12
ENDBRANCH   1  11
BRANCH   4  17
HETATM   17  N2  LIG X 999      44.990 131.638  22.458  1.00  0.00    -0.398 N 
HETATM   18  H9  LIG X 999      44.150 131.454  23.052  1.00  0.00     0.156 HD
HETATM   19  H10 LIG X 999      45.860 131.906  22.963  1.00  0.00     0.156 HD
ENDBRANCH   4  17
TORSDOF 3
