REMARK VINA RESULT:      -4.6      0.000      0.000
REMARK  3 active torsions:
REMARK  status: ('A' for Active; 'I' for Inactive)
REMARK    1  A    between atoms: C3_3  and  S1_4 
REMARK    2  A    between atoms: S1_4  and  C4_7 
REMARK    3  A    between atoms: C6_9  and  N1_10 
ROOT
HETATM    1  C1  LIG X 999      47.831 123.421  20.507  1.00  0.00     0.013 C 
HETATM    2  C2  LIG X 999      47.199 124.104  21.273  1.00  0.00    -0.102 C 
HETATM    3  C3  LIG X 999      46.432 124.931  22.207  1.00  0.00     0.233 C 
ENDROOT
BRANCH   3   4
HETATM    4  S1  LIG X 999      44.768 124.304  22.379  1.00  0.00     0.160 S 
HETATM    5  O1  LIG X 999      43.848 125.193  21.591  1.00  0.00    -0.227 OA
HETATM    6  O2  LIG X 999      44.731 122.924  21.785  1.00  0.00    -0.227 OA
BRANCH   4   7
HETATM    7  C4  LIG X 999      44.240 124.220  24.113  1.00  0.00     0.123 C 
HETATM    8  C5  LIG X 999      43.270 123.050  24.355  1.00  0.00     0.055 C 
HETATM    9  C6  LIG X 999      41.916 123.248  23.643  1.00  0.00     0.170 C 
HETATM   10  C7  LIG X 999      41.413 124.674  23.671  1.00  0.00     0.011 C 
HETATM   11  C8  LIG X 999      42.191 125.720  23.993  1.00  0.00    -0.050 C 
HETATM   12  C9  LIG X 999      41.701 127.100  23.771  1.00  0.00     0.017 C 
HETATM   13  C13 LIG X 999      43.568 125.513  24.624  1.00  0.00     0.060 C 
HETATM   14  C10 LIG X 999      42.572 128.104  23.849  1.00  0.00    -0.024 C 
HETATM   15  C11 LIG X 999      43.953 127.913  24.172  1.00  0.00    -0.027 C 
HETATM   16  C17 LIG X 999      42.324 129.542  23.601  1.00  0.00     0.276 C 
HETATM   17  C12 LIG X 999      44.469 126.727  24.502  1.00  0.00    -0.007 C 
HETATM   18  C14 LIG X 999      44.653 129.217  24.123  1.00  0.00     0.275 C 
HETATM   19  N4  LIG X 999      43.675 130.186  23.533  1.00  0.00    -0.067 N 
HETATM   20  C15 LIG X 999      44.030 130.458  22.118  1.00  0.00     0.272 C 
HETATM   21  C16 LIG X 999      43.684 131.462  24.284  1.00  0.00     0.272 C 
BRANCH   9  22
HETATM   22  N1  LIG X 999      40.916 122.377  24.250  1.00  0.00    -0.106 NA
HETATM   23  N2  LIG X 999      39.718 122.510  23.999  1.00  0.00    -0.167 NA
HETATM   24  N3  LIG X 999      38.521 122.643  23.751  1.00  0.00     0.068 N 
ENDBRANCH   9  22
ENDBRANCH   4   7
ENDBRANCH   3   4
TORSDOF 3
