REMARK VINA RESULT:      -7.8      1.938      6.408
REMARK  3 active torsions:
REMARK  status: ('A' for Active; 'I' for Inactive)
REMARK    1  A    between atoms: C3_3  and  O1_4 
REMARK    2  A    between atoms: O1_4  and  C4_5 
REMARK    3  A    between atoms: C5_7  and  C6_8 
ROOT
HETATM    1  C1  LIG X 999      47.886 129.630  13.740  1.00  0.00     0.014 C 
HETATM    2  C2  LIG X 999      47.308 129.725  14.793  1.00  0.00    -0.091 C 
HETATM    3  C3  LIG X 999      46.607 129.841  16.073  1.00  0.00     0.270 C 
ENDROOT
BRANCH   3   4
HETATM    4  O1  LIG X 999      45.205 129.869  15.835  1.00  0.00    -0.317 OA
BRANCH   4   5
HETATM    5  C4  LIG X 999      44.582 130.917  15.150  1.00  0.00     0.217 C 
HETATM    6  O2  LIG X 999      44.738 131.035  13.772  1.00  0.00    -0.164 OA
HETATM    7  C5  LIG X 999      43.809 131.797  15.795  1.00  0.00     0.078 C 
BRANCH   7   8
HETATM    8  C6  LIG X 999      43.566 131.781  17.255  1.00  0.00    -0.031 A 
HETATM    9  C7  LIG X 999      42.284 131.990  17.797  1.00  0.00     0.012 A 
HETATM   10  C8  LIG X 999      42.081 131.946  19.178  1.00  0.00     0.013 A 
HETATM   11  C9  LIG X 999      43.153 131.678  20.042  1.00  0.00    -0.026 A 
HETATM   12  C10 LIG X 999      42.959 131.632  21.431  1.00  0.00     0.012 A 
HETATM   13  C14 LIG X 999      44.441 131.441  19.504  1.00  0.00    -0.025 A 
HETATM   14  C11 LIG X 999      44.035 131.355  22.280  1.00  0.00     0.001 A 
HETATM   15  C12 LIG X 999      45.307 131.122  21.751  1.00  0.00     0.001 A 
HETATM   16  C13 LIG X 999      45.512 131.163  20.368  1.00  0.00     0.012 A 
HETATM   17  C15 LIG X 999      44.635 131.486  18.115  1.00  0.00     0.024 A 
ENDBRANCH   7   8
ENDBRANCH   4   5
ENDBRANCH   3   4
TORSDOF 3
