REMARK VINA RESULT:      -3.8      3.098      6.322
REMARK  4 active torsions:
REMARK  status: ('A' for Active; 'I' for Inactive)
REMARK    1  A    between atoms: C3_3  and  O1_4 
REMARK    2  A    between atoms: O1_4  and  C4_5 
REMARK    3  A    between atoms: C9_12  and  N2_13 
REMARK    4  A    between atoms: C11_17  and  C12_18 
ROOT
HETATM    1  C1  LIG X 999      40.123 123.872  21.616  1.00  0.00     0.014 C 
HETATM    2  C2  LIG X 999      40.404 123.295  22.637  1.00  0.00    -0.091 C 
HETATM    3  C3  LIG X 999      40.747 122.595  23.874  1.00  0.00     0.268 C 
ENDROOT
BRANCH   3   4
HETATM    4  O1  LIG X 999      41.659 123.390  24.625  1.00  0.00    -0.339 OA
BRANCH   4   5
HETATM    5  C4  LIG X 999      42.729 124.115  24.075  1.00  0.00     0.085 A 
HETATM    6  C5  LIG X 999      43.872 123.450  23.534  1.00  0.00     0.052 A 
HETATM    7  C6  LIG X 999      44.926 124.195  22.980  1.00  0.00     0.008 A 
HETATM    8  C7  LIG X 999      44.801 125.564  22.989  1.00  0.00     0.018 A 
HETATM    9  C15 LIG X 999      46.192 123.653  22.414  1.00  0.00     0.059 A 
HETATM   10  C8  LIG X 999      45.745 126.435  22.557  1.00  0.00     0.046 A 
HETATM   11  C10 LIG X 999      43.744 126.247  23.504  1.00  0.00     0.042 A 
HETATM   12  N1  LIG X 999      45.338 127.699  22.786  1.00  0.00    -0.337 N 
HETATM   13  C13 LIG X 999      47.022 125.956  22.000  1.00  0.00     0.033 A 
HETATM   14  H5  LIG X 999      45.875 128.572  22.589  1.00  0.00     0.167 HD
HETATM   15  C9  LIG X 999      44.112 127.592  23.372  1.00  0.00     0.176 A 
HETATM   16  C14 LIG X 999      47.231 124.623  21.928  1.00  0.00     0.034 A 
HETATM   17  C11 LIG X 999      42.651 125.542  24.057  1.00  0.00     0.050 A 
HETATM   18  N5  LIG X 999      46.393 122.375  22.351  1.00  0.00    -0.300 NA
HETATM   19  H9  LIG X 999      47.275 121.975  21.961  1.00  0.00     0.187 HD
BRANCH  15  20
HETATM   20  N2  LIG X 999      43.371 128.711  23.861  1.00  0.00    -0.053 NA
HETATM   21  N3  LIG X 999      43.171 129.703  23.159  1.00  0.00    -0.160 NA
HETATM   22  N4  LIG X 999      42.970 130.693  22.459  1.00  0.00     0.068 N 
ENDBRANCH  15  20
BRANCH  17  23
HETATM   23  C12 LIG X 999      41.447 126.211  24.594  1.00  0.00     0.273 C 
HETATM   24  O2  LIG X 999      40.537 126.640  23.838  1.00  0.00    -0.301 OA
ENDBRANCH  17  23
ENDBRANCH   4   5
ENDBRANCH   3   4
TORSDOF 4
