REMARK VINA RESULT:      -5.4      5.331      7.276
REMARK  1 active torsions:
REMARK  status: ('A' for Active; 'I' for Inactive)
REMARK    1  A    between atoms: C3_3  and  N1_4 
ROOT
HETATM    1  N1  LIG X 999      45.040 131.221  21.228  1.00  0.00    -0.072 NA
HETATM    2  N2  LIG X 999      44.635 131.423  20.082  1.00  0.00    -0.162 NA
HETATM    3  N3  LIG X 999      44.232 131.628  18.938  1.00  0.00     0.068 N 
ENDROOT
BRANCH   1   4
HETATM    4  C3  LIG X 999      44.176 130.749  22.272  1.00  0.00     0.104 A 
HETATM    5  C2  LIG X 999      43.319 131.682  22.869  1.00  0.00     0.035 A 
HETATM    6  C1  LIG X 999      42.396 131.291  23.838  1.00  0.00     0.003 A 
HETATM    7  C10 LIG X 999      42.320 129.958  24.240  1.00  0.00     0.012 A 
HETATM    8  C9  LIG X 999      43.191 129.005  23.696  1.00  0.00    -0.023 A 
HETATM    9  C4  LIG X 999      44.153 129.398  22.712  1.00  0.00     0.006 A 
HETATM   10  C8  LIG X 999      43.132 127.669  24.137  1.00  0.00     0.021 A 
HETATM   11  C5  LIG X 999      45.076 128.432  22.244  1.00  0.00     0.024 A 
HETATM   12  C6  LIG X 999      44.986 127.122  22.715  1.00  0.00    -0.023 A 
HETATM   13  C7  LIG X 999      44.043 126.752  23.621  1.00  0.00    -0.024 A 
HETATM   14  C14 LIG X 999      45.831 125.966  22.343  1.00  0.00     0.276 C 
HETATM   15  C11 LIG X 999      44.162 125.314  23.941  1.00  0.00     0.276 C 
HETATM   16  N4  LIG X 999      45.399 124.844  23.236  1.00  0.00    -0.067 N 
HETATM   17  C12 LIG X 999      45.117 123.625  22.444  1.00  0.00     0.272 C 
HETATM   18  C13 LIG X 999      46.461 124.542  24.224  1.00  0.00     0.272 C 
ENDBRANCH   1   4
TORSDOF 1
