REMARK VINA RESULT:      -2.6      3.127      5.494
REMARK  5 active torsions:
REMARK  status: ('A' for Active; 'I' for Inactive)
REMARK    1  A    between atoms: O1_2  and  C1_3 
REMARK    2  A    between atoms: C1_3  and  C15_22 
REMARK    3  A    between atoms: N1_4  and  C2_5 
REMARK    4  A    between atoms: C3_6  and  O2_7 
REMARK    5  A    between atoms: O2_7  and  C4_8 
REMARK       I    between atoms: C4_8  and  N2_10 
ROOT
HETATM    1  C2  LIG X 999      44.455 129.633  21.885  1.00  0.00     0.104 A 
HETATM    2  C3  LIG X 999      44.994 128.532  22.581  1.00  0.00     0.110 A 
HETATM    3  C7  LIG X 999      44.720 128.370  23.949  1.00  0.00     0.041 A 
HETATM    4  C8  LIG X 999      43.917 129.289  24.624  1.00  0.00     0.015 A 
HETATM    5  C9  LIG X 999      43.359 130.377  23.942  1.00  0.00    -0.024 A 
HETATM    6  C10 LIG X 999      42.538 131.292  24.619  1.00  0.00     0.012 A 
HETATM    7  C11 LIG X 999      41.975 132.372  23.935  1.00  0.00     0.001 A 
HETATM    8  C12 LIG X 999      42.224 132.546  22.573  1.00  0.00     0.001 A 
HETATM    9  C13 LIG X 999      43.039 131.645  21.885  1.00  0.00     0.014 A 
HETATM   10  C14 LIG X 999      43.617 130.549  22.557  1.00  0.00     0.006 A 
ENDROOT
BRANCH   1  11
HETATM   11  N1  LIG X 999      44.694 129.776  20.475  1.00  0.00    -0.221 NA
HETATM   12  C1  LIG X 999      45.498 130.641  19.924  1.00  0.00     0.176 C 
BRANCH  12  13
HETATM   13  O1  LIG X 999      46.146 131.628  20.672  1.00  0.00    -0.344 OA
HETATM   14  H1  LIG X 999      47.141 131.803  20.610  1.00  0.00     0.219 HD
ENDBRANCH  12  13
BRANCH  12  15
HETATM   15  C15 LIG X 999      45.716 130.598  18.472  1.00  0.00     0.053 A 
HETATM   16  C16 LIG X 999      46.249 129.560  17.727  1.00  0.00     0.156 A 
HETATM   17  N3  LIG X 999      46.277 129.918  16.429  1.00  0.00    -0.185 NA
HETATM   18  N4  LIG X 999      45.792 131.147  16.343  1.00  0.00    -0.285 N 
HETATM   19  C17 LIG X 999      45.602 131.860  15.087  1.00  0.00     0.179 C 
HETATM   20  C18 LIG X 999      45.429 131.591  17.560  1.00  0.00     0.129 A 
ENDBRANCH  12  15
ENDBRANCH   1  11
BRANCH   2  21
HETATM   21  O2  LIG X 999      45.754 127.592  21.870  1.00  0.00    -0.254 OA
BRANCH  21  22
HETATM   22  C4  LIG X 999      45.694 126.200  22.040  1.00  0.00     0.461 C 
HETATM   23  O3  LIG X 999      44.674 125.552  21.676  1.00  0.00    -0.230 OA
HETATM   24  N2  LIG X 999      46.770 125.518  22.712  1.00  0.00     0.009 N 
HETATM   25  H2  LIG X 999      46.576 124.488  22.727  1.00  0.00     0.292 HD
HETATM   26  C5  LIG X 999      46.870 125.992  24.102  1.00  0.00     0.282 C 
HETATM   27  C6  LIG X 999      48.033 125.739  21.993  1.00  0.00     0.282 C 
ENDBRANCH  21  22
ENDBRANCH   2  21
TORSDOF 5
