REMARK VINA RESULT:      -6.5      2.884      5.246
REMARK  1 active torsions:
REMARK  status: ('A' for Active; 'I' for Inactive)
REMARK    1  A    between atoms: C8_8  and  N1_9 
ROOT
HETATM    1  N1  LIG X 999      44.248 131.492  22.732  1.00  0.00    -0.072 NA
HETATM    2  N2  LIG X 999      43.524 130.699  23.334  1.00  0.00    -0.162 NA
HETATM    3  N3  LIG X 999      42.807 129.906  23.942  1.00  0.00     0.068 N 
ENDROOT
BRANCH   1   4
HETATM    4  C8  LIG X 999      44.536 131.372  21.331  1.00  0.00     0.104 A 
HETATM    5  C7  LIG X 999      45.811 130.861  20.963  1.00  0.00     0.038 A 
HETATM    6  C6  LIG X 999      46.163 130.661  19.609  1.00  0.00     0.035 A 
HETATM    7  C5  LIG X 999      45.224 130.987  18.634  1.00  0.00     0.073 A 
HETATM    8  C4  LIG X 999      44.014 131.502  18.996  1.00  0.00     0.021 A 
HETATM    9  N4  LIG X 999      45.365 130.907  17.211  1.00  0.00    -0.209 NA
HETATM   10  C3  LIG X 999      43.273 131.811  17.902  1.00  0.00     0.047 A 
HETATM   11  C9  LIG X 999      43.615 131.737  20.306  1.00  0.00     0.009 A 
HETATM   12  C2  LIG X 999      42.025 132.413  18.032  1.00  0.00     0.018 A 
HETATM   13  C11 LIG X 999      44.107 131.438  16.765  1.00  0.00     0.278 A 
HETATM   14  C1  LIG X 999      41.567 132.692  19.338  1.00  0.00     0.002 A 
HETATM   15  C10 LIG X 999      42.357 132.367  20.472  1.00  0.00     0.015 A 
HETATM   16  O1  LIG X 999      43.792 131.564  15.552  1.00  0.00    -0.265 OA
ENDBRANCH   1   4
TORSDOF 1
