REMARK VINA RESULT:      -8.0      1.756      2.490
REMARK  3 active torsions:
REMARK  status: ('A' for Active; 'I' for Inactive)
REMARK    1  A    between atoms: C3_3  and  S1_4 
REMARK    2  A    between atoms: S1_4  and  C4_7 
REMARK    3  A    between atoms: C13_16  and  N1_17 
ROOT
HETATM    1  C1  LIG X 999      48.382 129.624  13.306  1.00  0.00     0.013 C 
HETATM    2  C2  LIG X 999      47.590 129.643  14.215  1.00  0.00    -0.102 C 
HETATM    3  C3  LIG X 999      46.627 129.671  15.319  1.00  0.00     0.238 C 
ENDROOT
BRANCH   3   4
HETATM    4  S1  LIG X 999      45.667 131.171  15.257  1.00  0.00     0.185 S 
HETATM    5  O1  LIG X 999      44.715 131.105  14.096  1.00  0.00    -0.222 OA
HETATM    6  O2  LIG X 999      46.580 132.350  15.061  1.00  0.00    -0.222 OA
BRANCH   4   7
HETATM    7  C4  LIG X 999      44.759 131.361  16.755  1.00  0.00     0.060 A 
HETATM    8  C5  LIG X 999      43.381 131.600  16.713  1.00  0.00     0.024 A 
HETATM    9  C6  LIG X 999      42.654 131.724  17.898  1.00  0.00     0.011 A 
HETATM   10  C7  LIG X 999      43.290 131.600  19.145  1.00  0.00    -0.019 A 
HETATM   11  C8  LIG X 999      44.686 131.364  19.190  1.00  0.00    -0.048 A 
HETATM   12  C13 LIG X 999      42.476 131.809  20.408  1.00  0.00     0.251 C 
HETATM   13  C9  LIG X 999      45.403 131.232  17.991  1.00  0.00     0.031 A 
HETATM   14  C10 LIG X 999      45.408 131.119  20.495  1.00  0.00     0.039 C 
HETATM   15  C11 LIG X 999      44.629 131.623  21.713  1.00  0.00     0.007 C 
HETATM   16  C12 LIG X 999      43.166 131.182  21.633  1.00  0.00     0.040 C 
BRANCH  12  17
HETATM   17  N1  LIG X 999      42.265 133.243  20.627  1.00  0.00     0.087 N 
HETATM   18  H14 LIG X 999      41.285 133.483  20.352  1.00  0.00     0.313 HD
HETATM   19  H15 LIG X 999      42.326 133.434  21.653  1.00  0.00     0.313 HD
ENDBRANCH  12  17
ENDBRANCH   4   7
ENDBRANCH   3   4
TORSDOF 3
