REMARK VINA RESULT:      -7.0      1.470      1.751
REMARK  3 active torsions:
REMARK  status: ('A' for Active; 'I' for Inactive)
REMARK    1  A    between atoms: C3_3  and  S1_4 
REMARK    2  A    between atoms: S1_4  and  C4_7 
REMARK    3  A    between atoms: C12_15  and  N1_16 
ROOT
HETATM    1  C1  LIG X 999      43.163 131.798  13.714  1.00  0.00     0.013 C 
HETATM    2  C2  LIG X 999      43.824 131.025  14.361  1.00  0.00    -0.102 C 
HETATM    3  C3  LIG X 999      44.627 130.086  15.149  1.00  0.00     0.233 C 
ENDROOT
BRANCH   3   4
HETATM    4  S1  LIG X 999      45.807 130.962  16.166  1.00  0.00     0.159 S 
HETATM    5  O1  LIG X 999      46.382 132.120  15.399  1.00  0.00    -0.227 OA
HETATM    6  O2  LIG X 999      46.918 130.014  16.520  1.00  0.00    -0.227 OA
BRANCH   4   7
HETATM    7  C4  LIG X 999      45.044 131.551  17.684  1.00  0.00     0.116 C 
HETATM    8  C5  LIG X 999      45.431 130.663  18.874  1.00  0.00     0.059 C 
HETATM    9  C6  LIG X 999      44.659 131.003  20.127  1.00  0.00    -0.049 A 
HETATM   10  C7  LIG X 999      45.160 130.564  21.364  1.00  0.00     0.007 A 
HETATM   11  C11 LIG X 999      43.416 131.682  20.077  1.00  0.00    -0.019 A 
HETATM   12  C8  LIG X 999      44.468 130.835  22.544  1.00  0.00     0.001 A 
HETATM   13  C9  LIG X 999      43.268 131.543  22.505  1.00  0.00     0.001 A 
HETATM   14  C10 LIG X 999      42.749 131.972  21.283  1.00  0.00     0.010 A 
HETATM   15  C12 LIG X 999      42.857 132.216  18.768  1.00  0.00     0.252 C 
HETATM   16  C13 LIG X 999      43.519 131.573  17.533  1.00  0.00     0.060 C 
BRANCH  15  17
HETATM   17  N1  LIG X 999      41.402 132.032  18.718  1.00  0.00     0.087 N 
HETATM   18  H12 LIG X 999      40.951 132.958  18.538  1.00  0.00     0.313 HD
HETATM   19  H13 LIG X 999      41.161 131.400  17.920  1.00  0.00     0.313 HD
ENDBRANCH  15  17
ENDBRANCH   4   7
ENDBRANCH   3   4
TORSDOF 3
