REMARK VINA RESULT:      -4.6      7.774      9.874
REMARK  5 active torsions:
REMARK  status: ('A' for Active; 'I' for Inactive)
REMARK    1  A    between atoms: C3_3  and  C4_4 
REMARK    2  A    between atoms: C4_4  and  S1_5 
REMARK    3  A    between atoms: S1_5  and  C5_6 
REMARK    4  A    between atoms: C6_7  and  N1_8 
REMARK    5  A    between atoms: C10_12  and  N2_13 
ROOT
HETATM    1  C1  LIG X 999      53.516 124.561  17.175  1.00  0.00     0.112 C 
HETATM    2  C2  LIG X 999      52.268 124.189  17.839  1.00  0.00    -0.110 C 
HETATM    3  C3  LIG X 999      51.235 123.882  18.379  1.00  0.00    -0.097 C 
ENDROOT
BRANCH   3   4
HETATM    4  C4  LIG X 999      49.975 123.512  19.026  1.00  0.00     0.173 C 
BRANCH   4   5
HETATM    5  S1  LIG X 999      50.294 122.572  20.558  1.00  0.00    -0.115 SA
BRANCH   5   6
HETATM    6  C5  LIG X 999      49.990 123.970  21.671  1.00  0.00     0.038 A 
HETATM    7  C6  LIG X 999      51.058 124.827  22.020  1.00  0.00     0.043 A 
HETATM    8  C7  LIG X 999      50.833 125.894  22.892  1.00  0.00     0.031 A 
HETATM    9  C8  LIG X 999      49.570 126.134  23.424  1.00  0.00     0.017 A 
HETATM   10  C9  LIG X 999      48.481 125.305  23.100  1.00  0.00     0.002 A 
HETATM   11  C10 LIG X 999      47.179 125.536  23.639  1.00  0.00     0.045 A 
HETATM   12  C14 LIG X 999      48.690 124.220  22.188  1.00  0.00    -0.004 A 
HETATM   13  C11 LIG X 999      46.127 124.717  23.202  1.00  0.00     0.003 A 
HETATM   14  C12 LIG X 999      46.332 123.696  22.330  1.00  0.00    -0.021 A 
HETATM   15  C18 LIG X 999      44.703 124.745  23.620  1.00  0.00     0.278 C 
HETATM   16  C13 LIG X 999      47.591 123.413  21.816  1.00  0.00     0.023 A 
HETATM   17  C15 LIG X 999      45.080 122.948  22.086  1.00  0.00     0.276 C 
HETATM   18  N3  LIG X 999      44.005 123.727  22.773  1.00  0.00    -0.067 N 
HETATM   19  C16 LIG X 999      43.147 124.401  21.770  1.00  0.00     0.272 C 
HETATM   20  C17 LIG X 999      43.164 122.838  23.607  1.00  0.00     0.272 C 
BRANCH   7  21
HETATM   21  N1  LIG X 999      52.378 124.646  21.485  1.00  0.00    -0.398 N 
HETATM   22  H6  LIG X 999      53.219 125.099  21.901  1.00  0.00     0.156 HD
HETATM   23  H7  LIG X 999      52.533 124.028  20.658  1.00  0.00     0.156 HD
ENDBRANCH   7  21
BRANCH  11  24
HETATM   24  N2  LIG X 999      46.918 126.550  24.624  1.00  0.00    -0.398 N 
HETATM   25  H10 LIG X 999      46.722 127.534  24.340  1.00  0.00     0.156 HD
HETATM   26  H11 LIG X 999      46.787 126.333  25.635  1.00  0.00     0.156 HD
ENDBRANCH  11  24
ENDBRANCH   5   6
ENDBRANCH   4   5
ENDBRANCH   3   4
TORSDOF 5
