REMARK VINA RESULT:      -8.0      1.369      1.829
REMARK  7 active torsions:
REMARK  status: ('A' for Active; 'I' for Inactive)
REMARK    1  A    between atoms: O1_2  and  C1_3 
REMARK    2  A    between atoms: C1_3  and  C14_20 
REMARK    3  A    between atoms: N1_4  and  C2_5 
REMARK    4  A    between atoms: C2_5  and  O2_6 
REMARK    5  A    between atoms: O2_6  and  C3_7 
REMARK    6  A    between atoms: C3_7  and  O4_9 
REMARK    7  A    between atoms: O4_9  and  C4_10 
ROOT
HETATM    1  C3  LIG X 999      45.157 131.346  19.849  1.00  0.00     0.413 C 
HETATM    2  O3  LIG X 999      44.991 132.592  19.956  1.00  0.00    -0.229 OA
ENDROOT
BRANCH   1   3
HETATM    3  O2  LIG X 999      45.662 130.606  20.920  1.00  0.00    -0.276 OA
BRANCH   3   4
HETATM    4  C2  LIG X 999      44.835 129.814  21.766  1.00  0.00     0.332 C 
BRANCH   4   5
HETATM    5  N1  LIG X 999      43.846 130.661  22.426  1.00  0.00    -0.238 NA
HETATM    6  C1  LIG X 999      42.857 130.285  23.191  1.00  0.00     0.190 C 
BRANCH   6   7
HETATM    7  O1  LIG X 999      42.016 131.262  23.715  1.00  0.00    -0.343 OA
HETATM    8  H1  LIG X 999      41.863 132.138  23.229  1.00  0.00     0.219 HD
ENDBRANCH   6   7
BRANCH   6   9
HETATM    9  C14 LIG X 999      42.571 128.870  23.537  1.00  0.00     0.130 A 
HETATM   10  N2  LIG X 999      41.347 128.308  23.607  1.00  0.00    -0.169 NA
HETATM   11  N3  LIG X 999      41.508 127.042  23.953  1.00  0.00    -0.285 N 
HETATM   12  C15 LIG X 999      40.414 126.089  24.077  1.00  0.00     0.179 C 
HETATM   13  C16 LIG X 999      42.817 126.764  24.084  1.00  0.00     0.114 A 
HETATM   14  C17 LIG X 999      43.531 127.916  23.831  1.00  0.00     0.056 A 
ENDBRANCH   6   9
ENDBRANCH   4   5
ENDBRANCH   3   4
ENDBRANCH   1   3
BRANCH   1  15
HETATM   15  O4  LIG X 999      44.805 130.674  18.673  1.00  0.00    -0.256 OA
BRANCH  15  16
HETATM   16  C4  LIG X 999      45.410 130.868  17.423  1.00  0.00     0.082 A 
HETATM   17  C5  LIG X 999      45.210 132.089  16.768  1.00  0.00     0.038 A 
HETATM   18  C6  LIG X 999      45.780 132.328  15.515  1.00  0.00     0.015 A 
HETATM   19  C7  LIG X 999      46.549 131.337  14.889  1.00  0.00    -0.026 A 
HETATM   20  C8  LIG X 999      47.123 131.565  13.629  1.00  0.00     0.012 A 
HETATM   21  C12 LIG X 999      46.742 130.091  15.533  1.00  0.00    -0.023 A 
HETATM   22  C9  LIG X 999      47.879 130.564  13.012  1.00  0.00     0.001 A 
HETATM   23  C10 LIG X 999      48.067 129.333  13.646  1.00  0.00     0.001 A 
HETATM   24  C11 LIG X 999      47.501 129.094  14.901  1.00  0.00     0.012 A 
HETATM   25  C13 LIG X 999      46.167 129.863  16.793  1.00  0.00     0.049 A 
ENDBRANCH  15  16
ENDBRANCH   1  15
TORSDOF 7
