REMARK VINA RESULT:      -7.4      1.899      3.728
REMARK  1 active torsions:
REMARK  status: ('A' for Active; 'I' for Inactive)
REMARK    1  A    between atoms: C11_13  and  N2_14 
ROOT
HETATM    1  N2  LIG X 999      46.210 130.507  16.125  1.00  0.00    -0.053 NA
HETATM    2  N3  LIG X 999      46.130 130.748  14.921  1.00  0.00    -0.160 NA
HETATM    3  N4  LIG X 999      46.060 130.984  13.716  1.00  0.00     0.068 N 
ENDROOT
BRANCH   1   4
HETATM    4  C11 LIG X 999      45.231 130.952  17.071  1.00  0.00     0.175 A 
HETATM    5  C10 LIG X 999      45.331 130.950  18.467  1.00  0.00     0.026 A 
HETATM    6  C5  LIG X 999      44.150 131.466  18.897  1.00  0.00     0.017 A 
HETATM    7  C9  LIG X 999      46.302 130.563  19.399  1.00  0.00     0.016 A 
HETATM    8  C4  LIG X 999      43.374 131.767  17.830  1.00  0.00     0.046 A 
HETATM    9  C6  LIG X 999      43.805 131.652  20.217  1.00  0.00     0.005 A 
HETATM   10  C3  LIG X 999      42.030 132.345  18.016  1.00  0.00     0.033 A 
HETATM   11  N5  LIG X 999      44.024 131.456  16.690  1.00  0.00    -0.337 N 
HETATM   12  C2  LIG X 999      41.596 132.567  19.278  1.00  0.00     0.034 A 
HETATM   13  C1  LIG X 999      42.459 132.233  20.465  1.00  0.00     0.059 A 
HETATM   14  N1  LIG X 999      42.044 132.446  21.672  1.00  0.00    -0.300 NA
HETATM   15  H1  LIG X 999      41.101 132.854  21.866  1.00  0.00     0.187 HD
HETATM   16  H7  LIG X 999      43.673 131.577  15.715  1.00  0.00     0.167 HD
HETATM   17  C7  LIG X 999      44.756 131.275  21.187  1.00  0.00     0.015 A 
HETATM   18  C8  LIG X 999      46.002 130.731  20.773  1.00  0.00     0.002 A 
ENDBRANCH   1   4
TORSDOF 1
