REMARK VINA RESULT:      -6.7      1.428      2.891
REMARK  3 active torsions:
REMARK  status: ('A' for Active; 'I' for Inactive)
REMARK    1  A    between atoms: C2_2  and  C3_3 
REMARK       I    between atoms: C3_3  and  N1_5 
REMARK    2  A    between atoms: N1_5  and  C4_6 
REMARK    3  A    between atoms: C4_6  and  C6_8 
ROOT
HETATM    1  C6  LIG X 999      43.938 131.516  21.294  1.00  0.00    -0.035 A 
HETATM    2  C7  LIG X 999      42.740 131.996  20.735  1.00  0.00     0.010 A 
HETATM    3  C8  LIG X 999      42.577 132.060  19.350  1.00  0.00     0.013 A 
HETATM    4  C9  LIG X 999      43.613 131.652  18.498  1.00  0.00    -0.026 A 
HETATM    5  C10 LIG X 999      43.459 131.712  17.104  1.00  0.00     0.012 A 
HETATM    6  C11 LIG X 999      44.500 131.305  16.266  1.00  0.00     0.001 A 
HETATM    7  C12 LIG X 999      45.699 130.837  16.809  1.00  0.00     0.001 A 
HETATM    8  C13 LIG X 999      45.864 130.771  18.196  1.00  0.00     0.012 A 
HETATM    9  C14 LIG X 999      44.827 131.177  19.049  1.00  0.00    -0.025 A 
HETATM   10  C15 LIG X 999      44.982 131.117  20.443  1.00  0.00     0.021 A 
ENDROOT
BRANCH   1  11
HETATM   11  C4  LIG X 999      44.120 131.462  22.796  1.00  0.00     0.113 C 
HETATM   12  C5  LIG X 999      42.812 131.834  23.502  1.00  0.00     0.037 C 
BRANCH  11  13
HETATM   13  N1  LIG X 999      44.569 130.128  23.211  1.00  0.00    -0.353 N 
HETATM   14  C3  LIG X 999      43.659 129.025  23.339  1.00  0.00     0.217 C 
HETATM   15  O1  LIG X 999      42.439 129.169  23.055  1.00  0.00    -0.274 OA
HETATM   16  H6  LIG X 999      45.580 129.966  23.420  1.00  0.00     0.163 HD
BRANCH  14  17
HETATM   17  C2  LIG X 999      44.164 127.683  23.773  1.00  0.00     0.098 C 
HETATM   18  C1  LIG X 999      45.187 127.147  22.779  1.00  0.00     0.014 C 
ENDBRANCH  14  17
ENDBRANCH  11  13
ENDBRANCH   1  11
TORSDOF 3
