REMARK VINA RESULT:      -7.2      1.926      2.977
REMARK  1 active torsions:
REMARK  status: ('A' for Active; 'I' for Inactive)
REMARK    1  A    between atoms: C8_8  and  N1_9 
ROOT
HETATM    1  N1  LIG X 999      44.150 131.398  15.565  1.00  0.00    -0.072 NA
HETATM    2  N2  LIG X 999      44.941 131.216  14.639  1.00  0.00    -0.162 NA
HETATM    3  N3  LIG X 999      45.725 131.030  13.710  1.00  0.00     0.068 N 
ENDROOT
BRANCH   1   4
HETATM    4  C8  LIG X 999      44.508 131.208  16.942  1.00  0.00     0.104 A 
HETATM    5  C7  LIG X 999      45.731 130.539  17.218  1.00  0.00     0.038 A 
HETATM    6  C6  LIG X 999      46.187 130.351  18.542  1.00  0.00     0.035 A 
HETATM    7  C5  LIG X 999      45.398 130.837  19.581  1.00  0.00     0.073 A 
HETATM    8  C4  LIG X 999      44.213 131.454  19.307  1.00  0.00     0.021 A 
HETATM    9  N4  LIG X 999      45.632 130.734  20.990  1.00  0.00    -0.209 NA
HETATM   10  C3  LIG X 999      43.569 131.795  20.452  1.00  0.00     0.047 A 
HETATM   11  C9  LIG X 999      43.702 131.654  18.030  1.00  0.00     0.009 A 
HETATM   12  C2  LIG X 999      42.305 132.379  20.414  1.00  0.00     0.018 A 
HETATM   13  C11 LIG X 999      44.452 131.353  21.526  1.00  0.00     0.278 A 
HETATM   14  C1  LIG X 999      41.724 132.596  19.146  1.00  0.00     0.002 A 
HETATM   15  C10 LIG X 999      42.409 132.229  17.957  1.00  0.00     0.015 A 
HETATM   16  O1  LIG X 999      44.225 131.478  22.759  1.00  0.00    -0.265 OA
ENDBRANCH   1   4
TORSDOF 1
