REMARK VINA RESULT:      -5.0      2.237      3.075
REMARK  4 active torsions:
REMARK  status: ('A' for Active; 'I' for Inactive)
REMARK    1  A    between atoms: C3_4  and  O1_5 
REMARK    2  A    between atoms: C3_4  and  O2_6 
REMARK    3  A    between atoms: O2_6  and  C4_7 
REMARK    4  A    between atoms: C7_10  and  N2_11 
ROOT
HETATM    1  C4  LIG X 999      44.204 131.551  19.910  1.00  0.00     0.091 A 
HETATM    2  C5  LIG X 999      43.209 132.515  20.119  1.00  0.00     0.040 A 
HETATM    3  C6  LIG X 999      42.464 132.523  21.295  1.00  0.00     0.033 A 
HETATM    4  C7  LIG X 999      42.677 131.563  22.292  1.00  0.00     0.037 A 
HETATM    5  C8  LIG X 999      43.681 130.573  22.104  1.00  0.00     0.003 A 
HETATM    6  C9  LIG X 999      43.970 129.597  23.083  1.00  0.00     0.014 A 
HETATM    7  C10 LIG X 999      44.954 128.632  22.861  1.00  0.00     0.001 A 
HETATM    8  C11 LIG X 999      45.673 128.622  21.669  1.00  0.00     0.001 A 
HETATM    9  C12 LIG X 999      45.420 129.583  20.692  1.00  0.00     0.015 A 
HETATM   10  C13 LIG X 999      44.434 130.567  20.893  1.00  0.00     0.010 A 
ENDROOT
BRANCH   1  11
HETATM   11  O2  LIG X 999      44.946 131.525  18.717  1.00  0.00    -0.273 OA
BRANCH  11  12
HETATM   12  C3  LIG X 999      44.402 131.391  17.430  1.00  0.00     0.265 C 
HETATM   13  N1  LIG X 999      45.047 130.691  16.526  1.00  0.00    -0.350 N 
HETATM   14  C1  LIG X 999      46.317 130.042  16.888  1.00  0.00     0.153 C 
HETATM   15  C2  LIG X 999      44.528 130.537  15.160  1.00  0.00     0.153 C 
BRANCH  12  16
HETATM   16  O1  LIG X 999      43.200 132.047  17.133  1.00  0.00    -0.327 OA
HETATM   17  H7  LIG X 999      43.142 132.950  16.682  1.00  0.00     0.221 HD
ENDBRANCH  12  16
ENDBRANCH  11  12
ENDBRANCH   1  11
BRANCH   4  18
HETATM   18  N2  LIG X 999      41.847 131.613  23.464  1.00  0.00    -0.398 N 
HETATM   19  H10 LIG X 999      42.130 131.223  24.386  1.00  0.00     0.156 HD
HETATM   20  H11 LIG X 999      40.868 131.971  23.397  1.00  0.00     0.156 HD
ENDBRANCH   4  18
TORSDOF 4
