REMARK VINA RESULT:      -5.2      2.796      3.563
REMARK  5 active torsions:
REMARK  status: ('A' for Active; 'I' for Inactive)
REMARK    1  A    between atoms: C1_1  and  N1_2 
REMARK    2  A    between atoms: C2_5  and  O1_6 
REMARK    3  A    between atoms: C2_5  and  C5_12 
REMARK    4  A    between atoms: O1_6  and  C3_7 
REMARK    5  A    between atoms: C3_7  and  C4_9 
ROOT
HETATM    1  N1  LIG X 999      46.545 132.761  22.045  1.00  0.00    -0.082 NA
HETATM    2  N2  LIG X 999      47.472 133.500  22.375  1.00  0.00    -0.163 NA
HETATM    3  N3  LIG X 999      48.400 134.238  22.704  1.00  0.00     0.068 N 
ENDROOT
BRANCH   1   4
HETATM    4  C1  LIG X 999      46.135 132.675  20.681  1.00  0.00     0.193 C 
HETATM    5  C2  LIG X 999      45.396 131.643  20.260  1.00  0.00     0.101 C 
BRANCH   5   6
HETATM    6  O1  LIG X 999      44.997 130.670  21.188  1.00  0.00    -0.324 OA
BRANCH   6   7
HETATM    7  C3  LIG X 999      44.235 130.926  22.375  1.00  0.00     0.273 C 
HETATM    8 CL1  LIG X 999      42.745 131.864  22.058  1.00  0.00    -0.090 Cl
BRANCH   7   9
HETATM    9  C4  LIG X 999      43.939 129.641  23.165  1.00  0.00     0.309 C 
HETATM   10  F1  LIG X 999      44.126 129.869  24.516  1.00  0.00    -0.229 F 
HETATM   11 CL2  LIG X 999      44.956 128.262  22.658  1.00  0.00    -0.086 Cl
ENDBRANCH   7   9
ENDBRANCH   6   7
ENDBRANCH   5   6
BRANCH   5  12
HETATM   12  C5  LIG X 999      44.947 131.570  18.851  1.00  0.00    -0.000 A 
HETATM   13  C6  LIG X 999      43.598 131.804  18.540  1.00  0.00     0.015 A 
HETATM   14  C7  LIG X 999      43.152 131.739  17.218  1.00  0.00     0.013 A 
HETATM   15  C8  LIG X 999      44.050 131.439  16.184  1.00  0.00    -0.026 A 
HETATM   16  C9  LIG X 999      43.612 131.369  14.852  1.00  0.00     0.012 A 
HETATM   17  C13 LIG X 999      45.414 131.206  16.486  1.00  0.00    -0.025 A 
HETATM   18  C10 LIG X 999      44.517 131.068  13.831  1.00  0.00     0.001 A 
HETATM   19  C11 LIG X 999      45.863 130.837  14.129  1.00  0.00     0.001 A 
HETATM   20  C12 LIG X 999      46.313 130.905  15.451  1.00  0.00     0.012 A 
HETATM   21  C14 LIG X 999      45.853 131.275  17.817  1.00  0.00     0.026 A 
ENDBRANCH   5  12
ENDBRANCH   1   4
TORSDOF 5
