MODEL 1
REMARK VINA RESULT:      -6.4      0.000      0.000
REMARK  3 active torsions:
REMARK  status: ('A' for Active; 'I' for Inactive)
REMARK    1  A    between atoms: C2_2  and  O1_3 
REMARK    2  A    between atoms: O1_3  and  C3_4 
REMARK       I    between atoms: C3_4  and  N1_6 
REMARK    3  A    between atoms: N1_6  and  C4_7 
ROOT
HETATM    1  C4  LIG X 999      44.928 131.324  16.840  1.00  0.00     0.063 A 
HETATM    2  C5  LIG X 999      46.012 130.556  17.283  1.00  0.00     0.032 A 
HETATM    3  C6  LIG X 999      46.161 130.245  18.637  1.00  0.00     0.014 A 
HETATM    4  C7  LIG X 999      45.215 130.687  19.570  1.00  0.00    -0.025 A 
HETATM    5  C8  LIG X 999      45.355 130.377  20.937  1.00  0.00     0.021 A 
HETATM    6  C9  LIG X 999      44.383 130.834  21.829  1.00  0.00    -0.024 A 
HETATM    7  C10 LIG X 999      43.311 131.557  21.405  1.00  0.00    -0.024 A 
HETATM    8  C11 LIG X 999      43.130 131.879  20.060  1.00  0.00     0.021 A 
HETATM    9  C12 LIG X 999      44.094 131.446  19.127  1.00  0.00    -0.023 A 
HETATM   10  C13 LIG X 999      43.956 131.749  17.765  1.00  0.00     0.044 A 
HETATM   11  C14 LIG X 999      42.424 131.885  22.543  1.00  0.00     0.276 C 
HETATM   12  N2  LIG X 999      43.150 131.421  23.767  1.00  0.00    -0.067 N 
HETATM   13  C15 LIG X 999      43.631 132.588  24.546  1.00  0.00     0.272 C 
HETATM   14  C16 LIG X 999      42.262 130.605  24.625  1.00  0.00     0.272 C 
HETATM   15  C17 LIG X 999      44.315 130.609  23.289  1.00  0.00     0.276 C 
ENDROOT
BRANCH   1  16
HETATM   16  N1  LIG X 999      44.812 131.605  15.438  1.00  0.00    -0.188 NA
HETATM   17  C3  LIG X 999      45.454 130.882  14.383  1.00  0.00     0.387 C 
HETATM   18  O2  LIG X 999      45.464 131.372  13.222  1.00  0.00    -0.236 OA
BRANCH  17  19
HETATM   19  O1  LIG X 999      46.017 129.626  14.623  1.00  0.00    -0.303 OA
BRANCH  19  20
HETATM   20  C2  LIG X 999      47.405 129.357  14.457  1.00  0.00     0.176 C 
HETATM   21  C1  LIG X 999      47.954 130.205  13.322  1.00  0.00     0.034 C 
ENDBRANCH  19  20
ENDBRANCH  17  19
ENDBRANCH   1  16
TORSDOF 3
ENDMDL
MODEL 2
REMARK VINA RESULT:      -6.2      1.268      2.254
REMARK  3 active torsions:
REMARK  status: ('A' for Active; 'I' for Inactive)
REMARK    1  A    between atoms: C2_2  and  O1_3 
REMARK    2  A    between atoms: O1_3  and  C3_4 
REMARK       I    between atoms: C3_4  and  N1_6 
REMARK    3  A    between atoms: N1_6  and  C4_7 
ROOT
HETATM    1  C4  LIG X 999      44.924 131.890  16.196  1.00  0.00     0.063 A 
HETATM    2  C5  LIG X 999      43.527 131.915  16.112  1.00  0.00     0.032 A 
HETATM    3  C6  LIG X 999      42.740 131.818  17.263  1.00  0.00     0.014 A 
HETATM    4  C7  LIG X 999      43.343 131.709  18.522  1.00  0.00    -0.025 A 
HETATM    5  C8  LIG X 999      42.560 131.613  19.688  1.00  0.00     0.021 A 
HETATM    6  C9  LIG X 999      43.206 131.513  20.922  1.00  0.00    -0.024 A 
HETATM    7  C10 LIG X 999      44.564 131.516  21.017  1.00  0.00    -0.024 A 
HETATM    8  C11 LIG X 999      45.377 131.618  19.887  1.00  0.00     0.021 A 
HETATM    9  C12 LIG X 999      44.765 131.710  18.622  1.00  0.00    -0.023 A 
HETATM   10  C13 LIG X 999      45.542 131.810  17.459  1.00  0.00     0.044 A 
HETATM   11  C14 LIG X 999      44.985 131.431  22.432  1.00  0.00     0.276 C 
HETATM   12  N2  LIG X 999      43.728 131.208  23.214  1.00  0.00    -0.067 N 
HETATM   13  C15 LIG X 999      43.693 129.821  23.736  1.00  0.00     0.272 C 
HETATM   14  C16 LIG X 999      43.646 132.152  24.352  1.00  0.00     0.272 C 
HETATM   15  C17 LIG X 999      42.591 131.426  22.263  1.00  0.00     0.276 C 
ENDROOT
BRANCH   1  16
HETATM   16  N1  LIG X 999      45.687 132.007  14.986  1.00  0.00    -0.188 NA
HETATM   17  C3  LIG X 999      46.811 131.200  14.623  1.00  0.00     0.387 C 
HETATM   18  O2  LIG X 999      47.535 131.558  13.655  1.00  0.00    -0.236 OA
BRANCH  17  19
HETATM   19  O1  LIG X 999      47.074 130.004  15.296  1.00  0.00    -0.303 OA
BRANCH  19  20
HETATM   20  C2  LIG X 999      46.489 128.761  14.920  1.00  0.00     0.176 C 
HETATM   21  C1  LIG X 999      45.101 128.650  15.528  1.00  0.00     0.034 C 
ENDBRANCH  19  20
ENDBRANCH  17  19
ENDBRANCH   1  16
TORSDOF 3
ENDMDL
MODEL 3
REMARK VINA RESULT:      -5.8      1.000      2.415
REMARK  3 active torsions:
REMARK  status: ('A' for Active; 'I' for Inactive)
REMARK    1  A    between atoms: C2_2  and  O1_3 
REMARK    2  A    between atoms: O1_3  and  C3_4 
REMARK       I    between atoms: C3_4  and  N1_6 
REMARK    3  A    between atoms: N1_6  and  C4_7 
ROOT
HETATM    1  C4  LIG X 999      45.776 130.717  16.948  1.00  0.00     0.063 A 
HETATM    2  C5  LIG X 999      44.592 131.357  16.561  1.00  0.00     0.032 A 
HETATM    3  C6  LIG X 999      43.650 131.754  17.514  1.00  0.00     0.014 A 
HETATM    4  C7  LIG X 999      43.887 131.529  18.876  1.00  0.00    -0.025 A 
HETATM    5  C8  LIG X 999      42.946 131.927  19.844  1.00  0.00     0.021 A 
HETATM    6  C9  LIG X 999      43.230 131.688  21.190  1.00  0.00    -0.024 A 
HETATM    7  C10 LIG X 999      44.390 131.092  21.579  1.00  0.00    -0.024 A 
HETATM    8  C11 LIG X 999      45.353 130.690  20.652  1.00  0.00     0.021 A 
HETATM    9  C12 LIG X 999      45.101 130.903  19.283  1.00  0.00    -0.023 A 
HETATM   10  C13 LIG X 999      46.038 130.512  18.315  1.00  0.00     0.044 A 
HETATM   11  C14 LIG X 999      44.451 130.988  23.053  1.00  0.00     0.276 C 
HETATM   12  N2  LIG X 999      43.113 131.443  23.546  1.00  0.00    -0.067 N 
HETATM   13  C15 LIG X 999      42.344 130.287  24.067  1.00  0.00     0.272 C 
HETATM   14  C16 LIG X 999      43.266 132.445  24.625  1.00  0.00     0.272 C 
HETATM   15  C17 LIG X 999      42.406 132.039  22.367  1.00  0.00     0.276 C 
ENDROOT
BRANCH   1  16
HETATM   16  N1  LIG X 999      46.717 130.341  15.931  1.00  0.00    -0.188 NA
HETATM   17  C3  LIG X 999      46.506 130.432  14.519  1.00  0.00     0.387 C 
HETATM   18  O2  LIG X 999      47.309 129.850  13.741  1.00  0.00    -0.236 OA
BRANCH  17  19
HETATM   19  O1  LIG X 999      45.455 131.197  14.006  1.00  0.00    -0.303 OA
BRANCH  19  20
HETATM   20  C2  LIG X 999      44.156 130.664  13.769  1.00  0.00     0.176 C 
HETATM   21  C1  LIG X 999      43.141 131.795  13.742  1.00  0.00     0.034 C 
ENDBRANCH  19  20
ENDBRANCH  17  19
ENDBRANCH   1  16
TORSDOF 3
ENDMDL
MODEL 4
REMARK VINA RESULT:      -5.1      5.869      8.335
REMARK  3 active torsions:
REMARK  status: ('A' for Active; 'I' for Inactive)
REMARK    1  A    between atoms: C2_2  and  O1_3 
REMARK    2  A    between atoms: O1_3  and  C3_4 
REMARK       I    between atoms: C3_4  and  N1_6 
REMARK    3  A    between atoms: N1_6  and  C4_7 
ROOT
HETATM    1  C4  LIG X 999      43.378 128.190  23.665  1.00  0.00     0.063 A 
HETATM    2  C5  LIG X 999      42.502 127.097  23.644  1.00  0.00     0.032 A 
HETATM    3  C6  LIG X 999      42.958 125.823  23.297  1.00  0.00     0.014 A 
HETATM    4  C7  LIG X 999      44.307 125.619  22.979  1.00  0.00    -0.025 A 
HETATM    5  C8  LIG X 999      44.777 124.339  22.630  1.00  0.00     0.021 A 
HETATM    6  C9  LIG X 999      46.132 124.183  22.327  1.00  0.00    -0.024 A 
HETATM    7  C10 LIG X 999      46.997 125.233  22.372  1.00  0.00    -0.024 A 
HETATM    8  C11 LIG X 999      46.573 126.516  22.721  1.00  0.00     0.021 A 
HETATM    9  C12 LIG X 999      45.212 126.719  23.023  1.00  0.00    -0.023 A 
HETATM   10  C13 LIG X 999      44.741 127.992  23.375  1.00  0.00     0.044 A 
HETATM   11  C14 LIG X 999      48.368 124.790  22.040  1.00  0.00     0.276 C 
HETATM   12  N2  LIG X 999      48.239 123.359  21.619  1.00  0.00    -0.067 N 
HETATM   13  C15 LIG X 999      48.460 123.238  20.157  1.00  0.00     0.272 C 
HETATM   14  C16 LIG X 999      49.227 122.514  22.326  1.00  0.00     0.272 C 
HETATM   15  C17 LIG X 999      46.842 122.939  21.962  1.00  0.00     0.276 C 
ENDROOT
BRANCH   1  16
HETATM   16  N1  LIG X 999      42.863 129.475  24.042  1.00  0.00    -0.188 NA
HETATM   17  C3  LIG X 999      42.882 130.656  23.233  1.00  0.00     0.387 C 
HETATM   18  O2  LIG X 999      42.619 131.767  23.766  1.00  0.00    -0.236 OA
BRANCH  17  19
HETATM   19  O1  LIG X 999      43.136 130.573  21.862  1.00  0.00    -0.303 OA
BRANCH  19  20
HETATM   20  C2  LIG X 999      44.039 131.445  21.190  1.00  0.00     0.176 C 
HETATM   21  C1  LIG X 999      45.322 130.696  20.868  1.00  0.00     0.034 C 
ENDBRANCH  19  20
ENDBRANCH  17  19
ENDBRANCH   1  16
TORSDOF 3
ENDMDL
MODEL 5
REMARK VINA RESULT:      -5.1      1.305      2.431
REMARK  3 active torsions:
REMARK  status: ('A' for Active; 'I' for Inactive)
REMARK    1  A    between atoms: C2_2  and  O1_3 
REMARK    2  A    between atoms: O1_3  and  C3_4 
REMARK       I    between atoms: C3_4  and  N1_6 
REMARK    3  A    between atoms: N1_6  and  C4_7 
ROOT
HETATM    1  C4  LIG X 999      44.869 131.701  15.360  1.00  0.00     0.063 A 
HETATM    2  C5  LIG X 999      43.487 131.931  15.363  1.00  0.00     0.032 A 
HETATM    3  C6  LIG X 999      42.762 131.911  16.558  1.00  0.00     0.014 A 
HETATM    4  C7  LIG X 999      43.414 131.676  17.774  1.00  0.00    -0.025 A 
HETATM    5  C8  LIG X 999      42.693 131.657  18.984  1.00  0.00     0.021 A 
HETATM    6  C9  LIG X 999      43.387 131.425  20.173  1.00  0.00    -0.024 A 
HETATM    7  C10 LIG X 999      44.734 131.228  20.184  1.00  0.00    -0.024 A 
HETATM    8  C11 LIG X 999      45.487 131.248  19.010  1.00  0.00     0.021 A 
HETATM    9  C12 LIG X 999      44.824 131.468  17.787  1.00  0.00    -0.023 A 
HETATM   10  C13 LIG X 999      45.539 131.493  16.581  1.00  0.00     0.044 A 
HETATM   11  C14 LIG X 999      45.219 131.038  21.569  1.00  0.00     0.276 C 
HETATM   12  N2  LIG X 999      43.990 130.974  22.421  1.00  0.00    -0.067 N 
HETATM   13  C15 LIG X 999      43.783 129.590  22.911  1.00  0.00     0.272 C 
HETATM   14  C16 LIG X 999      44.111 131.883  23.584  1.00  0.00     0.272 C 
HETATM   15  C17 LIG X 999      42.844 131.385  21.547  1.00  0.00     0.276 C 
ENDROOT
BRANCH   1  16
HETATM   16  N1  LIG X 999      45.569 131.746  14.109  1.00  0.00    -0.188 NA
HETATM   17  C3  LIG X 999      46.879 131.226  13.863  1.00  0.00     0.387 C 
HETATM   18  O2  LIG X 999      47.473 131.540  12.797  1.00  0.00    -0.236 OA
BRANCH  17  19
HETATM   19  O1  LIG X 999      47.473 130.340  14.767  1.00  0.00    -0.303 OA
BRANCH  19  20
HETATM   20  C2  LIG X 999      47.803 128.997  14.428  1.00  0.00     0.176 C 
HETATM   21  C1  LIG X 999      48.912 128.995  13.388  1.00  0.00     0.034 C 
ENDBRANCH  19  20
ENDBRANCH  17  19
ENDBRANCH   1  16
TORSDOF 3
ENDMDL
MODEL 6
REMARK VINA RESULT:      -5.1      4.789      6.565
REMARK  3 active torsions:
REMARK  status: ('A' for Active; 'I' for Inactive)
REMARK    1  A    between atoms: C2_2  and  O1_3 
REMARK    2  A    between atoms: O1_3  and  C3_4 
REMARK       I    between atoms: C3_4  and  N1_6 
REMARK    3  A    between atoms: N1_6  and  C4_7 
ROOT
HETATM    1  C4  LIG X 999      44.199 130.312  22.384  1.00  0.00     0.063 A 
HETATM    2  C5  LIG X 999      42.987 130.289  23.086  1.00  0.00     0.032 A 
HETATM    3  C6  LIG X 999      42.476 129.090  23.589  1.00  0.00     0.014 A 
HETATM    4  C7  LIG X 999      43.180 127.893  23.410  1.00  0.00    -0.025 A 
HETATM    5  C8  LIG X 999      42.675 126.679  23.915  1.00  0.00     0.021 A 
HETATM    6  C9  LIG X 999      43.416 125.513  23.718  1.00  0.00    -0.024 A 
HETATM    7  C10 LIG X 999      44.609 125.528  23.061  1.00  0.00    -0.024 A 
HETATM    8  C11 LIG X 999      45.149 126.710  22.553  1.00  0.00     0.021 A 
HETATM    9  C12 LIG X 999      44.428 127.909  22.721  1.00  0.00    -0.023 A 
HETATM   10  C13 LIG X 999      44.929 129.120  22.223  1.00  0.00     0.044 A 
HETATM   11  C14 LIG X 999      45.196 124.172  23.020  1.00  0.00     0.276 C 
HETATM   12  N2  LIG X 999      44.151 123.262  23.587  1.00  0.00    -0.067 N 
HETATM   13  C15 LIG X 999      43.570 122.423  22.512  1.00  0.00     0.272 C 
HETATM   14  C16 LIG X 999      44.733 122.380  24.624  1.00  0.00     0.272 C 
HETATM   15  C17 LIG X 999      43.094 124.145  24.177  1.00  0.00     0.276 C 
ENDROOT
BRANCH   1  16
HETATM   16  N1  LIG X 999      44.687 131.571  21.899  1.00  0.00    -0.188 NA
HETATM   17  C3  LIG X 999      44.950 131.898  20.531  1.00  0.00     0.387 C 
HETATM   18  O2  LIG X 999      45.598 132.946  20.265  1.00  0.00    -0.236 OA
BRANCH  17  19
HETATM   19  O1  LIG X 999      44.449 131.097  19.501  1.00  0.00    -0.303 OA
BRANCH  19  20
HETATM   20  C2  LIG X 999      44.596 131.429  18.125  1.00  0.00     0.176 C 
HETATM   21  C1  LIG X 999      45.697 130.580  17.513  1.00  0.00     0.034 C 
ENDBRANCH  19  20
ENDBRANCH  17  19
ENDBRANCH   1  16
TORSDOF 3
ENDMDL
MODEL 7
REMARK VINA RESULT:      -5.0      3.307      7.588
REMARK  3 active torsions:
REMARK  status: ('A' for Active; 'I' for Inactive)
REMARK    1  A    between atoms: C2_2  and  O1_3 
REMARK    2  A    between atoms: O1_3  and  C3_4 
REMARK       I    between atoms: C3_4  and  N1_6 
REMARK    3  A    between atoms: N1_6  and  C4_7 
ROOT
HETATM    1  C4  LIG X 999      43.274 131.998  21.113  1.00  0.00     0.063 A 
HETATM    2  C5  LIG X 999      42.172 132.343  20.321  1.00  0.00     0.032 A 
HETATM    3  C6  LIG X 999      42.229 132.230  18.929  1.00  0.00     0.014 A 
HETATM    4  C7  LIG X 999      43.389 131.753  18.308  1.00  0.00    -0.025 A 
HETATM    5  C8  LIG X 999      43.456 131.633  16.906  1.00  0.00     0.021 A 
HETATM    6  C9  LIG X 999      44.631 131.146  16.332  1.00  0.00    -0.024 A 
HETATM    7  C10 LIG X 999      45.699 130.781  17.094  1.00  0.00    -0.024 A 
HETATM    8  C11 LIG X 999      45.671 130.876  18.486  1.00  0.00     0.021 A 
HETATM    9  C12 LIG X 999      44.507 131.373  19.105  1.00  0.00    -0.023 A 
HETATM   10  C13 LIG X 999      44.435 131.490  20.501  1.00  0.00     0.044 A 
HETATM   11  C14 LIG X 999      46.795 130.272  16.242  1.00  0.00     0.276 C 
HETATM   12  N2  LIG X 999      46.355 130.513  14.831  1.00  0.00    -0.067 N 
HETATM   13  C15 LIG X 999      47.158 131.603  14.227  1.00  0.00     0.272 C 
HETATM   14  C16 LIG X 999      46.517 129.288  14.016  1.00  0.00     0.272 C 
HETATM   15  C17 LIG X 999      44.913 130.916  14.899  1.00  0.00     0.276 C 
ENDROOT
BRANCH   1  16
HETATM   16  N1  LIG X 999      43.161 132.120  22.538  1.00  0.00    -0.188 NA
HETATM   17  C3  LIG X 999      42.733 131.090  23.435  1.00  0.00     0.387 C 
HETATM   18  O2  LIG X 999      42.448 131.394  24.625  1.00  0.00    -0.236 OA
BRANCH  17  19
HETATM   19  O1  LIG X 999      42.682 129.758  23.016  1.00  0.00    -0.303 OA
BRANCH  19  20
HETATM   20  C2  LIG X 999      43.478 128.733  23.600  1.00  0.00     0.176 C 
HETATM   21  C1  LIG X 999      44.695 128.476  22.727  1.00  0.00     0.034 C 
ENDBRANCH  19  20
ENDBRANCH  17  19
ENDBRANCH   1  16
TORSDOF 3
ENDMDL
MODEL 8
REMARK VINA RESULT:      -3.8      3.371      7.637
REMARK  3 active torsions:
REMARK  status: ('A' for Active; 'I' for Inactive)
REMARK    1  A    between atoms: C2_2  and  O1_3 
REMARK    2  A    between atoms: O1_3  and  C3_4 
REMARK       I    between atoms: C3_4  and  N1_6 
REMARK    3  A    between atoms: N1_6  and  C4_7 
ROOT
HETATM    1  C4  LIG X 999      43.340 131.778  21.043  1.00  0.00     0.063 A 
HETATM    2  C5  LIG X 999      42.265 132.220  20.262  1.00  0.00     0.032 A 
HETATM    3  C6  LIG X 999      42.338 132.196  18.866  1.00  0.00     0.014 A 
HETATM    4  C7  LIG X 999      43.488 131.712  18.229  1.00  0.00    -0.025 A 
HETATM    5  C8  LIG X 999      43.571 131.682  16.824  1.00  0.00     0.021 A 
HETATM    6  C9  LIG X 999      44.735 131.184  16.234  1.00  0.00    -0.024 A 
HETATM    7  C10 LIG X 999      45.774 130.726  16.983  1.00  0.00    -0.024 A 
HETATM    8  C11 LIG X 999      45.728 130.731  18.378  1.00  0.00     0.021 A 
HETATM    9  C12 LIG X 999      44.577 131.234  19.014  1.00  0.00    -0.023 A 
HETATM   10  C13 LIG X 999      44.488 131.263  20.413  1.00  0.00     0.044 A 
HETATM   11  C14 LIG X 999      46.862 130.229  16.113  1.00  0.00     0.276 C 
HETATM   12  N2  LIG X 999      46.454 130.580  14.716  1.00  0.00    -0.067 N 
HETATM   13  C15 LIG X 999      47.310 131.673  14.196  1.00  0.00     0.272 C 
HETATM   14  C16 LIG X 999      46.578 129.405  13.824  1.00  0.00     0.272 C 
HETATM   15  C17 LIG X 999      45.029 131.037  14.792  1.00  0.00     0.276 C 
ENDROOT
BRANCH   1  16
HETATM   16  N1  LIG X 999      43.209 131.810  22.471  1.00  0.00    -0.188 NA
HETATM   17  C3  LIG X 999      44.240 132.161  23.400  1.00  0.00     0.387 C 
HETATM   18  O2  LIG X 999      44.069 131.919  24.625  1.00  0.00    -0.236 OA
BRANCH  17  19
HETATM   19  O1  LIG X 999      45.397 132.811  22.963  1.00  0.00    -0.303 OA
BRANCH  19  20
HETATM   20  C2  LIG X 999      46.114 133.738  23.772  1.00  0.00     0.176 C 
HETATM   21  C1  LIG X 999      47.478 134.001  23.154  1.00  0.00     0.034 C 
ENDBRANCH  19  20
ENDBRANCH  17  19
ENDBRANCH   1  16
TORSDOF 3
ENDMDL
