REMARK VINA RESULT:      -4.9      3.032      6.922
REMARK  6 active torsions:
REMARK  status: ('A' for Active; 'I' for Inactive)
REMARK    1  A    between atoms: N1_15  and  C15_17 
REMARK    2  A    between atoms: C15_17  and  C16_18 
REMARK    3  A    between atoms: C16_18  and  C17_19 
REMARK    4  A    between atoms: C17_19  and  C18_20 
REMARK    5  A    between atoms: C18_20  and  C19_21 
REMARK    6  A    between atoms: C19_21  and  N2_22 
ROOT
HETATM    1  C1  LIG X 999      43.896 131.150  24.625  1.00  0.00     0.001 C 
HETATM    2  C2  LIG X 999      43.085 132.165  24.126  1.00  0.00     0.001 C 
HETATM    3  C3  LIG X 999      42.935 132.335  22.748  1.00  0.00     0.013 C 
HETATM    4  C4  LIG X 999      43.558 131.457  21.830  1.00  0.00    -0.013 C 
HETATM    5  C5  LIG X 999      44.477 130.506  22.359  1.00  0.00    -0.025 C 
HETATM    6  C6  LIG X 999      44.606 130.335  23.747  1.00  0.00     0.012 C 
HETATM    7  C7  LIG X 999      45.299 129.771  21.502  1.00  0.00     0.014 C 
HETATM    8  C8  LIG X 999      45.269 130.003  20.135  1.00  0.00     0.031 C 
HETATM    9  C9  LIG X 999      44.340 130.891  19.576  1.00  0.00     0.045 C 
HETATM   10  C10 LIG X 999      43.392 131.552  20.408  1.00  0.00     0.008 C 
HETATM   11  C11 LIG X 999      42.320 132.227  19.750  1.00  0.00    -0.045 C 
HETATM   12  C12 LIG X 999      41.015 132.601  20.412  1.00  0.00     0.049 C 
HETATM   13  C13 LIG X 999      42.393 132.446  18.368  1.00  0.00     0.056 C 
HETATM   14  C14 LIG X 999      43.430 131.896  17.606  1.00  0.00     0.101 C 
HETATM   15  N1  LIG X 999      43.471 132.132  16.315  1.00  0.00    -0.376 N 
HETATM   16  H11 LIG X 999      42.717 132.714  15.881  1.00  0.00     0.161 HD
HETATM   17  N3  LIG X 999      44.345 131.092  18.226  1.00  0.00    -0.342 N 
HETATM   18  H28 LIG X 999      45.075 130.598  17.667  1.00  0.00     0.167 HD
ENDROOT
BRANCH  15  19
HETATM   19  C15 LIG X 999      44.506 131.662  15.385  1.00  0.00     0.121 C 
BRANCH  19  20
HETATM   20  C16 LIG X 999      45.866 132.329  15.658  1.00  0.00     0.020 C 
BRANCH  20  21
HETATM   21  C17 LIG X 999      46.931 132.047  14.580  1.00  0.00     0.004 C 
BRANCH  21  22
HETATM   22  C18 LIG X 999      46.553 130.961  13.552  1.00  0.00     0.035 C 
BRANCH  22  23
HETATM   23  C19 LIG X 999      47.066 129.537  13.887  1.00  0.00     0.216 C 
HETATM   24  C21 LIG X 999      48.559 129.403  13.557  1.00  0.00     0.042 C 
BRANCH  23  25
HETATM   25  N2  LIG X 999      46.791 129.100  15.274  1.00  0.00     0.083 N 
HETATM   26  H21 LIG X 999      47.412 128.293  15.514  1.00  0.00     0.315 HD
HETATM   27  C20 LIG X 999      45.399 128.711  15.532  1.00  0.00     0.307 C 
ENDBRANCH  23  25
ENDBRANCH  22  23
ENDBRANCH  21  22
ENDBRANCH  20  21
ENDBRANCH  19  20
ENDBRANCH  15  19
TORSDOF 6
