REMARK VINA RESULT:      -8.5      0.000      0.000
REMARK  4 active torsions:
REMARK  status: ('A' for Active; 'I' for Inactive)
REMARK       I    between atoms: N1_1  and  C1_2 
REMARK    1  A    between atoms: C1_2  and  C2_4 
REMARK    2  A    between atoms: C11_13  and  O2_14 
REMARK    3  A    between atoms: O2_14  and  C12_15 
REMARK    4  A    between atoms: C12_15  and  C13_17 
ROOT
HETATM    1  C2  LIG X 999      43.401 131.770  18.159  1.00  0.00     0.068 A 
HETATM    2  C3  LIG X 999      43.292 131.668  16.758  1.00  0.00     0.032 A 
HETATM    3  C4  LIG X 999      44.399 131.328  15.971  1.00  0.00    -0.025 A 
HETATM    4  C5  LIG X 999      44.283 131.229  14.574  1.00  0.00     0.012 A 
HETATM    5  C6  LIG X 999      45.391 130.880  13.799  1.00  0.00     0.001 A 
HETATM    6  C7  LIG X 999      46.622 130.624  14.409  1.00  0.00     0.001 A 
HETATM    7  C8  LIG X 999      46.750 130.719  15.797  1.00  0.00     0.012 A 
HETATM    8  C9  LIG X 999      45.644 131.072  16.586  1.00  0.00    -0.023 A 
HETATM    9  C10 LIG X 999      45.761 131.168  17.978  1.00  0.00     0.050 A 
HETATM   10  C11 LIG X 999      44.656 131.530  18.771  1.00  0.00     0.096 A 
ENDROOT
BRANCH  10  11
HETATM   11  O2  LIG X 999      44.775 131.601  20.168  1.00  0.00    -0.274 OA
BRANCH  11  12
HETATM   12  C12 LIG X 999      44.958 130.506  21.025  1.00  0.00     0.298 C 
HETATM   13  O3  LIG X 999      45.833 129.634  20.769  1.00  0.00    -0.259 OA
BRANCH  12  14
HETATM   14  C13 LIG X 999      44.158 130.409  22.266  1.00  0.00     0.039 A 
HETATM   15  C14 LIG X 999      43.341 131.482  22.669  1.00  0.00     0.017 A 
HETATM   16  C15 LIG X 999      42.584 131.393  23.842  1.00  0.00     0.001 A 
HETATM   17  C16 LIG X 999      42.634 130.236  24.623  1.00  0.00     0.000 A 
HETATM   18  C17 LIG X 999      43.440 129.165  24.232  1.00  0.00     0.001 A 
HETATM   19  C18 LIG X 999      44.199 129.248  23.060  1.00  0.00     0.017 A 
ENDBRANCH  12  14
ENDBRANCH  11  12
ENDBRANCH  10  11
BRANCH   1  20
HETATM   20  C1  LIG X 999      42.194 132.138  18.950  1.00  0.00     0.273 C 
HETATM   21  N1  LIG X 999      42.133 133.359  19.684  1.00  0.00    -0.263 NA
HETATM   22  H1  LIG X 999      41.283 133.614  20.236  1.00  0.00     0.190 HD
HETATM   23  O1  LIG X 999      41.195 131.369  18.973  1.00  0.00    -0.266 OA
ENDBRANCH   1  20
TORSDOF 4
