REMARK VINA RESULT:      -6.3      2.388      4.394
REMARK  1 active torsions:
REMARK  status: ('A' for Active; 'I' for Inactive)
REMARK    1  A    between atoms: C1_2  and  C2_3 
ROOT
HETATM    1  C2  LIG X 999      44.694 131.201  14.958  1.00  0.00     0.013 A 
HETATM    2  C3  LIG X 999      45.740 130.573  14.252  1.00  0.00     0.015 A 
HETATM    3  C4  LIG X 999      46.781 129.937  14.922  1.00  0.00     0.002 A 
HETATM    4  C5  LIG X 999      46.809 129.909  16.312  1.00  0.00     0.012 A 
HETATM    5  C6  LIG X 999      45.790 130.521  17.051  1.00  0.00    -0.025 A 
HETATM    6  C7  LIG X 999      45.836 130.482  18.454  1.00  0.00     0.012 A 
HETATM    7  C8  LIG X 999      44.832 131.086  19.208  1.00  0.00     0.001 A 
HETATM    8  C9  LIG X 999      43.774 131.731  18.572  1.00  0.00     0.001 A 
HETATM    9  C10 LIG X 999      43.710 131.781  17.178  1.00  0.00     0.013 A 
HETATM   10  C11 LIG X 999      44.715 131.178  16.384  1.00  0.00    -0.013 A 
ENDROOT
BRANCH   1  11
HETATM   11  C1  LIG X 999      43.615 131.861  14.173  1.00  0.00     0.270 C 
HETATM   12  O1  LIG X 999      42.757 131.176  13.554  1.00  0.00    -0.301 OA
ENDBRANCH   1  11
TORSDOF 1
