REMARK VINA RESULT:      -7.4      3.273      7.111
REMARK  3 active torsions:
REMARK  status: ('A' for Active; 'I' for Inactive)
REMARK    1  A    between atoms: O1_2  and  C2_3 
REMARK    2  A    between atoms: C2_3  and  C3_5 
REMARK    3  A    between atoms: C4_6  and  C5_7 
ROOT
HETATM    1  C5  LIG X 999      45.369 130.806  18.101  1.00  0.00     0.019 A 
HETATM    2  C6  LIG X 999      46.007 130.375  19.270  1.00  0.00     0.021 A 
HETATM    3  C7  LIG X 999      45.441 130.640  20.520  1.00  0.00     0.013 A 
HETATM    4  C8  LIG X 999      44.228 131.340  20.612  1.00  0.00    -0.026 A 
HETATM    5  C9  LIG X 999      43.650 131.612  21.862  1.00  0.00     0.012 A 
HETATM    6  C10 LIG X 999      42.443 132.311  21.939  1.00  0.00     0.001 A 
HETATM    7  C11 LIG X 999      41.804 132.743  20.774  1.00  0.00     0.001 A 
HETATM    8  C12 LIG X 999      42.368 132.479  19.522  1.00  0.00     0.012 A 
HETATM    9  C13 LIG X 999      43.581 131.778  19.430  1.00  0.00    -0.025 A 
HETATM   10  C14 LIG X 999      44.158 131.507  18.180  1.00  0.00     0.032 A 
ENDROOT
BRANCH   1  11
HETATM   11  C4  LIG X 999      45.958 130.530  16.817  1.00  0.00    -0.056 C 
HETATM   12  C3  LIG X 999      46.451 130.298  15.741  1.00  0.00     0.008 C 
BRANCH  12  13
HETATM   13  C2  LIG X 999      47.037 130.024  14.461  1.00  0.00     0.339 C 
HETATM   14  O2  LIG X 999      47.720 128.977  14.301  1.00  0.00    -0.249 OA
BRANCH  13  15
HETATM   15  O1  LIG X 999      46.842 130.922  13.409  1.00  0.00    -0.316 OA
HETATM   16  C1  LIG X 999      47.867 131.244  12.478  1.00  0.00     0.214 C 
ENDBRANCH  13  15
ENDBRANCH  12  13
ENDBRANCH   1  11
TORSDOF 3
