MODEL 1
REMARK VINA RESULT:      -8.3      0.000      0.000
REMARK  5 active torsions:
REMARK  status: ('A' for Active; 'I' for Inactive)
REMARK    1  A    between atoms: C6_6  and  O1_7 
REMARK    2  A    between atoms: O1_7  and  C7_8 
REMARK    3  A    between atoms: C7_8  and  O3_10 
REMARK    4  A    between atoms: O3_10  and  C8_11 
REMARK    5  A    between atoms: C8_11  and  N1_12 
ROOT
HETATM    1  N1  LIG X 999      42.371 132.485  20.668  1.00  0.00    -0.089 NA
HETATM    2  N2  LIG X 999      42.096 132.453  19.468  1.00  0.00    -0.165 NA
HETATM    3  N3  LIG X 999      41.823 132.421  18.270  1.00  0.00     0.068 N 
ENDROOT
BRANCH   1   4
HETATM    4  C8  LIG X 999      43.301 131.526  21.240  1.00  0.00     0.370 C 
BRANCH   4   5
HETATM    5  O3  LIG X 999      44.624 131.860  20.837  1.00  0.00    -0.273 OA
BRANCH   5   6
HETATM    6  C7  LIG X 999      45.372 131.061  19.969  1.00  0.00     0.413 C 
HETATM    7  O2  LIG X 999      46.554 130.731  20.265  1.00  0.00    -0.229 OA
BRANCH   6   8
HETATM    8  O1  LIG X 999      44.808 130.684  18.745  1.00  0.00    -0.256 OA
BRANCH   8   9
HETATM    9  C6  LIG X 999      45.398 130.875  17.486  1.00  0.00     0.082 A 
HETATM   10  C5  LIG X 999      46.154 129.872  16.851  1.00  0.00     0.049 A 
HETATM   11  C4  LIG X 999      46.718 130.103  15.586  1.00  0.00    -0.023 A 
HETATM   12  C3  LIG X 999      47.480 129.110  14.949  1.00  0.00     0.012 A 
HETATM   13  C11 LIG X 999      46.514 131.348  14.943  1.00  0.00    -0.026 A 
HETATM   14  C2  LIG X 999      48.036 129.352  13.691  1.00  0.00     0.001 A 
HETATM   15  C1  LIG X 999      47.837 130.581  13.057  1.00  0.00     0.001 A 
HETATM   16  C12 LIG X 999      47.078 131.578  13.678  1.00  0.00     0.012 A 
HETATM   17  C10 LIG X 999      45.743 132.335  15.572  1.00  0.00     0.015 A 
HETATM   18  C9  LIG X 999      45.186 132.094  16.831  1.00  0.00     0.038 A 
ENDBRANCH   8   9
ENDBRANCH   6   8
ENDBRANCH   5   6
ENDBRANCH   4   5
ENDBRANCH   1   4
TORSDOF 5
ENDMDL
MODEL 2
REMARK VINA RESULT:      -8.2      1.263      1.703
REMARK  5 active torsions:
REMARK  status: ('A' for Active; 'I' for Inactive)
REMARK    1  A    between atoms: C6_6  and  O1_7 
REMARK    2  A    between atoms: O1_7  and  C7_8 
REMARK    3  A    between atoms: C7_8  and  O3_10 
REMARK    4  A    between atoms: O3_10  and  C8_11 
REMARK    5  A    between atoms: C8_11  and  N1_12 
ROOT
HETATM    1  N1  LIG X 999      43.071 131.183  21.532  1.00  0.00    -0.089 NA
HETATM    2  N2  LIG X 999      42.791 131.467  22.697  1.00  0.00    -0.165 NA
HETATM    3  N3  LIG X 999      42.512 131.752  23.860  1.00  0.00     0.068 N 
ENDROOT
BRANCH   1   4
HETATM    4  C8  LIG X 999      42.786 132.114  20.454  1.00  0.00     0.370 C 
BRANCH   4   5
HETATM    5  O3  LIG X 999      43.995 132.425  19.771  1.00  0.00    -0.273 OA
BRANCH   5   6
HETATM    6  C7  LIG X 999      45.028 131.499  19.610  1.00  0.00     0.413 C 
HETATM    7  O2  LIG X 999      46.021 131.510  20.391  1.00  0.00    -0.229 OA
BRANCH   6   8
HETATM    8  O1  LIG X 999      44.969 130.602  18.537  1.00  0.00    -0.256 OA
BRANCH   8   9
HETATM    9  C6  LIG X 999      45.540 130.811  17.272  1.00  0.00     0.082 A 
HETATM   10  C5  LIG X 999      46.342 129.842  16.641  1.00  0.00     0.049 A 
HETATM   11  C4  LIG X 999      46.885 130.090  15.371  1.00  0.00    -0.023 A 
HETATM   12  C3  LIG X 999      47.692 129.131  14.737  1.00  0.00     0.012 A 
HETATM   13  C11 LIG X 999      46.612 131.316  14.717  1.00  0.00    -0.026 A 
HETATM   14  C2  LIG X 999      48.227 129.389  13.472  1.00  0.00     0.001 A 
HETATM   15  C1  LIG X 999      47.960 130.601  12.829  1.00  0.00     0.001 A 
HETATM   16  C12 LIG X 999      47.155 131.563  13.446  1.00  0.00     0.012 A 
HETATM   17  C10 LIG X 999      45.796 132.269  15.343  1.00  0.00     0.015 A 
HETATM   18  C9  LIG X 999      45.260 132.011  16.608  1.00  0.00     0.038 A 
ENDBRANCH   8   9
ENDBRANCH   6   8
ENDBRANCH   5   6
ENDBRANCH   4   5
ENDBRANCH   1   4
TORSDOF 5
ENDMDL
MODEL 3
REMARK VINA RESULT:      -7.8      1.882      2.797
REMARK  5 active torsions:
REMARK  status: ('A' for Active; 'I' for Inactive)
REMARK    1  A    between atoms: C6_6  and  O1_7 
REMARK    2  A    between atoms: O1_7  and  C7_8 
REMARK    3  A    between atoms: C7_8  and  O3_10 
REMARK    4  A    between atoms: O3_10  and  C8_11 
REMARK    5  A    between atoms: C8_11  and  N1_12 
ROOT
HETATM    1  N1  LIG X 999      43.745 131.217  22.533  1.00  0.00    -0.089 NA
HETATM    2  N2  LIG X 999      43.339 130.133  22.951  1.00  0.00    -0.165 NA
HETATM    3  N3  LIG X 999      42.932 129.051  23.370  1.00  0.00     0.068 N 
ENDROOT
BRANCH   1   4
HETATM    4  C8  LIG X 999      43.142 131.831  21.362  1.00  0.00     0.370 C 
BRANCH   4   5
HETATM    5  O3  LIG X 999      43.847 131.413  20.199  1.00  0.00    -0.273 OA
BRANCH   5   6
HETATM    6  C7  LIG X 999      43.481 131.812  18.911  1.00  0.00     0.413 C 
HETATM    7  O2  LIG X 999      42.292 131.667  18.512  1.00  0.00    -0.229 OA
BRANCH   6   8
HETATM    8  O1  LIG X 999      44.467 132.319  18.058  1.00  0.00    -0.256 OA
BRANCH   8   9
HETATM    9  C6  LIG X 999      45.218 131.563  17.145  1.00  0.00     0.082 A 
HETATM   10  C5  LIG X 999      45.712 132.107  15.944  1.00  0.00     0.049 A 
HETATM   11  C4  LIG X 999      46.467 131.316  15.065  1.00  0.00    -0.023 A 
HETATM   12  C3  LIG X 999      46.957 131.850  13.862  1.00  0.00     0.012 A 
HETATM   13  C11 LIG X 999      46.743 129.967  15.395  1.00  0.00    -0.026 A 
HETATM   14  C2  LIG X 999      47.708 131.053  12.994  1.00  0.00     0.001 A 
HETATM   15  C1  LIG X 999      47.978 129.721  13.319  1.00  0.00     0.001 A 
HETATM   16  C12 LIG X 999      47.500 129.177  14.514  1.00  0.00     0.012 A 
HETATM   17  C10 LIG X 999      46.266 129.437  16.601  1.00  0.00     0.015 A 
HETATM   18  C9  LIG X 999      45.516 130.234  17.470  1.00  0.00     0.038 A 
ENDBRANCH   8   9
ENDBRANCH   6   8
ENDBRANCH   5   6
ENDBRANCH   4   5
ENDBRANCH   1   4
TORSDOF 5
ENDMDL
MODEL 4
REMARK VINA RESULT:      -7.6      3.776      6.829
REMARK  5 active torsions:
REMARK  status: ('A' for Active; 'I' for Inactive)
REMARK    1  A    between atoms: C6_6  and  O1_7 
REMARK    2  A    between atoms: O1_7  and  C7_8 
REMARK    3  A    between atoms: C7_8  and  O3_10 
REMARK    4  A    between atoms: O3_10  and  C8_11 
REMARK    5  A    between atoms: C8_11  and  N1_12 
ROOT
HETATM    1  N1  LIG X 999      47.198 129.578  14.702  1.00  0.00    -0.089 NA
HETATM    2  N2  LIG X 999      47.427 130.312  13.741  1.00  0.00    -0.165 NA
HETATM    3  N3  LIG X 999      47.656 131.044  12.781  1.00  0.00     0.068 N 
ENDROOT
BRANCH   1   4
HETATM    4  C8  LIG X 999      45.836 129.370  15.166  1.00  0.00     0.370 C 
BRANCH   4   5
HETATM    5  O3  LIG X 999      45.071 130.543  14.912  1.00  0.00    -0.273 OA
BRANCH   5   6
HETATM    6  C7  LIG X 999      45.078 131.646  15.768  1.00  0.00     0.413 C 
HETATM    7  O2  LIG X 999      46.008 132.498  15.703  1.00  0.00    -0.229 OA
BRANCH   6   8
HETATM    8  O1  LIG X 999      44.070 131.757  16.733  1.00  0.00    -0.256 OA
BRANCH   8   9
HETATM    9  C6  LIG X 999      44.237 131.539  18.109  1.00  0.00     0.082 A 
HETATM   10  C5  LIG X 999      43.267 131.924  19.054  1.00  0.00     0.049 A 
HETATM   11  C4  LIG X 999      43.471 131.676  20.420  1.00  0.00    -0.023 A 
HETATM   12  C3  LIG X 999      42.511 132.064  21.369  1.00  0.00     0.012 A 
HETATM   13  C11 LIG X 999      44.653 131.025  20.847  1.00  0.00    -0.026 A 
HETATM   14  C2  LIG X 999      42.725 131.812  22.727  1.00  0.00     0.001 A 
HETATM   15  C1  LIG X 999      43.893 131.172  23.148  1.00  0.00     0.001 A 
HETATM   16  C12 LIG X 999      44.856 130.778  22.215  1.00  0.00     0.012 A 
HETATM   17  C10 LIG X 999      45.606 130.627  19.900  1.00  0.00     0.015 A 
HETATM   18  C9  LIG X 999      45.392 130.877  18.542  1.00  0.00     0.038 A 
ENDBRANCH   8   9
ENDBRANCH   6   8
ENDBRANCH   5   6
ENDBRANCH   4   5
ENDBRANCH   1   4
TORSDOF 5
ENDMDL
MODEL 5
REMARK VINA RESULT:      -7.6      4.010      6.624
REMARK  5 active torsions:
REMARK  status: ('A' for Active; 'I' for Inactive)
REMARK    1  A    between atoms: C6_6  and  O1_7 
REMARK    2  A    between atoms: O1_7  and  C7_8 
REMARK    3  A    between atoms: C7_8  and  O3_10 
REMARK    4  A    between atoms: O3_10  and  C8_11 
REMARK    5  A    between atoms: C8_11  and  N1_12 
ROOT
HETATM    1  N1  LIG X 999      47.511 129.369  14.314  1.00  0.00    -0.089 NA
HETATM    2  N2  LIG X 999      47.618 130.265  13.477  1.00  0.00    -0.165 NA
HETATM    3  N3  LIG X 999      47.724 131.159  12.639  1.00  0.00     0.068 N 
ENDROOT
BRANCH   1   4
HETATM    4  C8  LIG X 999      46.480 129.432  15.337  1.00  0.00     0.370 C 
BRANCH   4   5
HETATM    5  O3  LIG X 999      45.436 130.293  14.897  1.00  0.00    -0.273 OA
BRANCH   5   6
HETATM    6  C7  LIG X 999      45.148 131.509  15.521  1.00  0.00     0.413 C 
HETATM    7  O2  LIG X 999      46.035 132.402  15.616  1.00  0.00    -0.229 OA
BRANCH   6   8
HETATM    8  O1  LIG X 999      43.881 131.693  16.086  1.00  0.00    -0.256 OA
BRANCH   8   9
HETATM    9  C6  LIG X 999      43.600 131.709  17.461  1.00  0.00     0.082 A 
HETATM   10  C5  LIG X 999      44.574 131.406  18.431  1.00  0.00     0.049 A 
HETATM   11  C4  LIG X 999      44.251 131.445  19.796  1.00  0.00    -0.023 A 
HETATM   12  C3  LIG X 999      45.215 131.137  20.769  1.00  0.00     0.012 A 
HETATM   13  C11 LIG X 999      42.941 131.802  20.198  1.00  0.00    -0.026 A 
HETATM   14  C2  LIG X 999      44.882 131.179  22.126  1.00  0.00     0.001 A 
HETATM   15  C1  LIG X 999      43.589 131.529  22.522  1.00  0.00     0.001 A 
HETATM   16  C12 LIG X 999      42.619 131.841  21.564  1.00  0.00     0.012 A 
HETATM   17  C10 LIG X 999      41.981 132.122  19.228  1.00  0.00     0.015 A 
HETATM   18  C9  LIG X 999      42.314 132.081  17.871  1.00  0.00     0.038 A 
ENDBRANCH   8   9
ENDBRANCH   6   8
ENDBRANCH   5   6
ENDBRANCH   4   5
ENDBRANCH   1   4
TORSDOF 5
ENDMDL
MODEL 6
REMARK VINA RESULT:      -7.5      2.219      2.600
REMARK  5 active torsions:
REMARK  status: ('A' for Active; 'I' for Inactive)
REMARK    1  A    between atoms: C6_6  and  O1_7 
REMARK    2  A    between atoms: O1_7  and  C7_8 
REMARK    3  A    between atoms: C7_8  and  O3_10 
REMARK    4  A    between atoms: O3_10  and  C8_11 
REMARK    5  A    between atoms: C8_11  and  N1_12 
ROOT
HETATM    1  N1  LIG X 999      43.880 129.417  22.549  1.00  0.00    -0.089 NA
HETATM    2  N2  LIG X 999      44.564 128.500  23.003  1.00  0.00    -0.165 NA
HETATM    3  N3  LIG X 999      45.246 127.583  23.456  1.00  0.00     0.068 N 
ENDROOT
BRANCH   1   4
HETATM    4  C8  LIG X 999      44.491 130.685  22.186  1.00  0.00     0.370 C 
BRANCH   4   5
HETATM    5  O3  LIG X 999      45.328 130.494  21.051  1.00  0.00    -0.273 OA
BRANCH   5   6
HETATM    6  C7  LIG X 999      45.206 131.256  19.888  1.00  0.00     0.413 C 
HETATM    7  O2  LIG X 999      45.386 132.506  19.923  1.00  0.00    -0.229 OA
BRANCH   6   8
HETATM    8  O1  LIG X 999      44.824 130.620  18.701  1.00  0.00    -0.256 OA
BRANCH   8   9
HETATM    9  C6  LIG X 999      45.416 130.822  17.445  1.00  0.00     0.082 A 
HETATM   10  C5  LIG X 999      46.190 129.833  16.810  1.00  0.00     0.049 A 
HETATM   11  C4  LIG X 999      46.754 130.075  15.549  1.00  0.00    -0.023 A 
HETATM   12  C3  LIG X 999      47.534 129.096  14.912  1.00  0.00     0.012 A 
HETATM   13  C11 LIG X 999      46.533 131.318  14.907  1.00  0.00    -0.026 A 
HETATM   14  C2  LIG X 999      48.091 129.349  13.656  1.00  0.00     0.001 A 
HETATM   15  C1  LIG X 999      47.874 130.576  13.024  1.00  0.00     0.001 A 
HETATM   16  C12 LIG X 999      47.098 131.559  13.644  1.00  0.00     0.012 A 
HETATM   17  C10 LIG X 999      45.745 132.292  15.535  1.00  0.00     0.015 A 
HETATM   18  C9  LIG X 999      45.187 132.039  16.791  1.00  0.00     0.038 A 
ENDBRANCH   8   9
ENDBRANCH   6   8
ENDBRANCH   5   6
ENDBRANCH   4   5
ENDBRANCH   1   4
TORSDOF 5
ENDMDL
MODEL 7
REMARK VINA RESULT:      -7.1      2.298      3.300
REMARK  5 active torsions:
REMARK  status: ('A' for Active; 'I' for Inactive)
REMARK    1  A    between atoms: C6_6  and  O1_7 
REMARK    2  A    between atoms: O1_7  and  C7_8 
REMARK    3  A    between atoms: C7_8  and  O3_10 
REMARK    4  A    between atoms: O3_10  and  C8_11 
REMARK    5  A    between atoms: C8_11  and  N1_12 
ROOT
HETATM    1  N1  LIG X 999      43.223 129.941  22.822  1.00  0.00    -0.089 NA
HETATM    2  N2  LIG X 999      44.001 129.105  23.280  1.00  0.00    -0.165 NA
HETATM    3  N3  LIG X 999      44.778 128.268  23.738  1.00  0.00     0.068 N 
ENDROOT
BRANCH   1   4
HETATM    4  C8  LIG X 999      43.698 130.978  21.922  1.00  0.00     0.370 C 
BRANCH   4   5
HETATM    5  O3  LIG X 999      42.800 131.092  20.824  1.00  0.00    -0.273 OA
BRANCH   5   6
HETATM    6  C7  LIG X 999      42.961 132.044  19.815  1.00  0.00     0.413 C 
HETATM    7  O2  LIG X 999      41.952 132.604  19.301  1.00  0.00    -0.229 OA
BRANCH   6   8
HETATM    8  O1  LIG X 999      44.251 132.320  19.347  1.00  0.00    -0.256 OA
BRANCH   8   9
HETATM    9  C6  LIG X 999      44.908 131.624  18.321  1.00  0.00     0.082 A 
HETATM   10  C5  LIG X 999      44.928 132.087  16.992  1.00  0.00     0.049 A 
HETATM   11  C4  LIG X 999      45.607 131.364  15.999  1.00  0.00    -0.023 A 
HETATM   12  C3  LIG X 999      45.624 131.815  14.670  1.00  0.00     0.012 A 
HETATM   13  C11 LIG X 999      46.285 130.169  16.341  1.00  0.00    -0.026 A 
HETATM   14  C2  LIG X 999      46.304 131.087  13.690  1.00  0.00     0.001 A 
HETATM   15  C1  LIG X 999      46.971 129.907  14.027  1.00  0.00     0.001 A 
HETATM   16  C12 LIG X 999      46.965 129.447  15.347  1.00  0.00     0.012 A 
HETATM   17  C10 LIG X 999      46.279 129.724  17.670  1.00  0.00     0.015 A 
HETATM   18  C9  LIG X 999      45.600 130.452  18.650  1.00  0.00     0.038 A 
ENDBRANCH   8   9
ENDBRANCH   6   8
ENDBRANCH   5   6
ENDBRANCH   4   5
ENDBRANCH   1   4
TORSDOF 5
ENDMDL
MODEL 8
REMARK VINA RESULT:      -7.1      1.102      1.372
REMARK  5 active torsions:
REMARK  status: ('A' for Active; 'I' for Inactive)
REMARK    1  A    between atoms: C6_6  and  O1_7 
REMARK    2  A    between atoms: O1_7  and  C7_8 
REMARK    3  A    between atoms: C7_8  and  O3_10 
REMARK    4  A    between atoms: O3_10  and  C8_11 
REMARK    5  A    between atoms: C8_11  and  N1_12 
ROOT
HETATM    1  N1  LIG X 999      42.576 132.219  21.716  1.00  0.00    -0.089 NA
HETATM    2  N2  LIG X 999      42.111 132.682  20.675  1.00  0.00    -0.165 NA
HETATM    3  N3  LIG X 999      41.647 133.145  19.635  1.00  0.00     0.068 N 
ENDROOT
BRANCH   1   4
HETATM    4  C8  LIG X 999      43.320 130.970  21.703  1.00  0.00     0.370 C 
BRANCH   4   5
HETATM    5  O3  LIG X 999      44.691 131.239  21.970  1.00  0.00    -0.273 OA
BRANCH   5   6
HETATM    6  C7  LIG X 999      45.669 131.229  20.972  1.00  0.00     0.413 C 
HETATM    7  O2  LIG X 999      46.595 132.087  20.978  1.00  0.00    -0.229 OA
BRANCH   6   8
HETATM    8  O1  LIG X 999      45.568 130.289  19.940  1.00  0.00    -0.256 OA
BRANCH   8   9
HETATM    9  C6  LIG X 999      45.510 130.590  18.571  1.00  0.00     0.082 A 
HETATM   10  C5  LIG X 999      46.358 129.976  17.629  1.00  0.00     0.049 A 
HETATM   11  C4  LIG X 999      46.257 130.301  16.268  1.00  0.00    -0.023 A 
HETATM   12  C3  LIG X 999      47.104 129.698  15.323  1.00  0.00     0.012 A 
HETATM   13  C11 LIG X 999      45.289 131.241  15.839  1.00  0.00    -0.026 A 
HETATM   14  C2  LIG X 999      46.994 130.029  13.970  1.00  0.00     0.001 A 
HETATM   15  C1  LIG X 999      46.041 130.959  13.548  1.00  0.00     0.001 A 
HETATM   16  C12 LIG X 999      45.189 131.565  14.476  1.00  0.00     0.012 A 
HETATM   17  C10 LIG X 999      44.435 131.834  16.779  1.00  0.00     0.015 A 
HETATM   18  C9  LIG X 999      44.543 131.503  18.132  1.00  0.00     0.038 A 
ENDBRANCH   8   9
ENDBRANCH   6   8
ENDBRANCH   5   6
ENDBRANCH   4   5
ENDBRANCH   1   4
TORSDOF 5
ENDMDL
MODEL 9
REMARK VINA RESULT:      -6.6      2.260      2.642
REMARK  5 active torsions:
REMARK  status: ('A' for Active; 'I' for Inactive)
REMARK    1  A    between atoms: C6_6  and  O1_7 
REMARK    2  A    between atoms: O1_7  and  C7_8 
REMARK    3  A    between atoms: C7_8  and  O3_10 
REMARK    4  A    between atoms: O3_10  and  C8_11 
REMARK    5  A    between atoms: C8_11  and  N1_12 
ROOT
HETATM    1  N1  LIG X 999      43.248 130.614  23.441  1.00  0.00    -0.089 NA
HETATM    2  N2  LIG X 999      44.065 129.781  23.050  1.00  0.00    -0.165 NA
HETATM    3  N3  LIG X 999      44.881 128.948  22.658  1.00  0.00     0.068 N 
ENDROOT
BRANCH   1   4
HETATM    4  C8  LIG X 999      42.868 131.733  22.594  1.00  0.00     0.370 C 
BRANCH   4   5
HETATM    5  O3  LIG X 999      42.727 131.277  21.254  1.00  0.00    -0.273 OA
BRANCH   5   6
HETATM    6  C7  LIG X 999      43.409 131.861  20.184  1.00  0.00     0.413 C 
HETATM    7  O2  LIG X 999      43.078 133.005  19.765  1.00  0.00    -0.229 OA
BRANCH   6   8
HETATM    8  O1  LIG X 999      44.423 131.131  19.552  1.00  0.00    -0.256 OA
BRANCH   8   9
HETATM    9  C6  LIG X 999      44.678 131.123  18.173  1.00  0.00     0.082 A 
HETATM   10  C5  LIG X 999      45.830 130.526  17.625  1.00  0.00     0.049 A 
HETATM   11  C4  LIG X 999      46.039 130.534  16.237  1.00  0.00    -0.023 A 
HETATM   12  C3  LIG X 999      47.189 129.946  15.684  1.00  0.00     0.012 A 
HETATM   13  C11 LIG X 999      45.082 131.135  15.385  1.00  0.00    -0.026 A 
HETATM   14  C2  LIG X 999      47.387 129.959  14.301  1.00  0.00     0.001 A 
HETATM   15  C1  LIG X 999      46.443 130.555  13.460  1.00  0.00     0.001 A 
HETATM   16  C12 LIG X 999      45.293 131.141  13.997  1.00  0.00     0.012 A 
HETATM   17  C10 LIG X 999      43.929 131.710  15.935  1.00  0.00     0.015 A 
HETATM   18  C9  LIG X 999      43.729 131.696  17.318  1.00  0.00     0.038 A 
ENDBRANCH   8   9
ENDBRANCH   6   8
ENDBRANCH   5   6
ENDBRANCH   4   5
ENDBRANCH   1   4
TORSDOF 5
ENDMDL
