REMARK VINA RESULT:      -6.8      2.867      7.919
REMARK  7 active torsions:
REMARK  status: ('A' for Active; 'I' for Inactive)
REMARK    1  A    between atoms: O1_2  and  C1_3 
REMARK    2  A    between atoms: C1_3  and  C14_20 
REMARK    3  A    between atoms: N1_4  and  C2_5 
REMARK    4  A    between atoms: C2_5  and  O2_6 
REMARK    5  A    between atoms: O2_6  and  C3_7 
REMARK    6  A    between atoms: C3_7  and  O4_9 
REMARK    7  A    between atoms: O4_9  and  C4_10 
ROOT
HETATM    1  C3  LIG X 999      44.384 130.714  22.036  1.00  0.00     0.413 C 
HETATM    2  O3  LIG X 999      43.531 131.641  22.102  1.00  0.00    -0.229 OA
ENDROOT
BRANCH   1   3
HETATM    3  O2  LIG X 999      45.152 130.542  20.882  1.00  0.00    -0.276 OA
BRANCH   3   4
HETATM    4  C2  LIG X 999      45.397 131.597  19.957  1.00  0.00     0.332 C 
BRANCH   4   5
HETATM    5  N1  LIG X 999      44.185 131.874  19.191  1.00  0.00    -0.238 NA
HETATM    6  C1  LIG X 999      44.000 131.717  17.908  1.00  0.00     0.190 C 
BRANCH   6   7
HETATM    7  O1  LIG X 999      42.761 132.056  17.371  1.00  0.00    -0.343 OA
HETATM    8  H1  LIG X 999      42.643 132.889  16.808  1.00  0.00     0.219 HD
ENDBRANCH   6   7
BRANCH   6   9
HETATM    9  C14 LIG X 999      45.036 131.199  16.979  1.00  0.00     0.130 A 
HETATM   10  N2  LIG X 999      45.446 131.798  15.842  1.00  0.00    -0.169 NA
HETATM   11  N3  LIG X 999      46.368 131.025  15.295  1.00  0.00    -0.285 N 
HETATM   12  C15 LIG X 999      47.091 131.363  14.077  1.00  0.00     0.179 C 
HETATM   13  C16 LIG X 999      46.585 129.947  16.069  1.00  0.00     0.114 A 
HETATM   14  C17 LIG X 999      45.742 130.021  17.158  1.00  0.00     0.056 A 
ENDBRANCH   6   9
ENDBRANCH   4   5
ENDBRANCH   3   4
ENDBRANCH   1   3
BRANCH   1  15
HETATM   15  O4  LIG X 999      44.603 129.862  23.124  1.00  0.00    -0.256 OA
BRANCH  15  16
HETATM   16  C4  LIG X 999      44.241 128.508  23.174  1.00  0.00     0.082 A 
HETATM   17  C5  LIG X 999      42.975 128.176  23.671  1.00  0.00     0.038 A 
HETATM   18  C6  LIG X 999      42.570 126.841  23.755  1.00  0.00     0.015 A 
HETATM   19  C7  LIG X 999      43.436 125.815  23.352  1.00  0.00    -0.026 A 
HETATM   20  C8  LIG X 999      43.040 124.471  23.434  1.00  0.00     0.012 A 
HETATM   21  C12 LIG X 999      44.725 126.138  22.866  1.00  0.00    -0.023 A 
HETATM   22  C9  LIG X 999      43.918 123.456  23.040  1.00  0.00     0.001 A 
HETATM   23  C10 LIG X 999      45.192 123.775  22.563  1.00  0.00     0.001 A 
HETATM   24  C11 LIG X 999      45.597 125.110  22.475  1.00  0.00     0.012 A 
HETATM   25  C13 LIG X 999      45.121 127.482  22.784  1.00  0.00     0.049 A 
ENDBRANCH  15  16
ENDBRANCH   1  15
TORSDOF 7
