REMARK VINA RESULT:      -5.0      1.901      3.323
REMARK  1 active torsions:
REMARK  status: ('A' for Active; 'I' for Inactive)
REMARK    1  A    between atoms: C4_4  and  N1_5 
ROOT
HETATM    1  C1  LIG X 999      45.948 129.712  19.009  1.00  0.00     0.049 C 
HETATM    2  C2  LIG X 999      44.974 130.777  18.568  1.00  0.00    -0.045 C 
HETATM    3  C3  LIG X 999      44.197 131.358  19.582  1.00  0.00     0.055 C 
HETATM    4  C4  LIG X 999      43.090 132.140  19.262  1.00  0.00     0.099 C 
HETATM    5  N2  LIG X 999      42.739 132.311  17.962  1.00  0.00    -0.342 N 
HETATM    6  C5  LIG X 999      43.487 131.805  16.939  1.00  0.00     0.045 C 
HETATM    7  C6  LIG X 999      43.030 131.957  15.624  1.00  0.00     0.031 C 
HETATM    8  C7  LIG X 999      43.759 131.455  14.557  1.00  0.00     0.014 C 
HETATM    9  C8  LIG X 999      45.018 130.887  14.767  1.00  0.00    -0.025 C 
HETATM   10  C9  LIG X 999      45.784 130.490  13.659  1.00  0.00     0.012 C 
HETATM   11  C10 LIG X 999      47.093 130.048  13.832  1.00  0.00     0.001 C 
HETATM   12  C11 LIG X 999      47.661 130.040  15.102  1.00  0.00     0.001 C 
HETATM   13  C12 LIG X 999      46.906 130.419  16.214  1.00  0.00     0.013 C 
HETATM   14  C13 LIG X 999      45.541 130.770  16.087  1.00  0.00    -0.013 C 
HETATM   15  C14 LIG X 999      44.705 131.112  17.204  1.00  0.00     0.008 C 
HETATM   16  H7  LIG X 999      41.868 132.849  17.748  1.00  0.00     0.167 HD
ENDROOT
BRANCH   4  17
HETATM   17  N1  LIG X 999      42.291 132.710  20.303  1.00  0.00    -0.385 N 
HETATM   18  H5  LIG X 999      42.026 133.719  20.284  1.00  0.00     0.157 HD
HETATM   19  H6  LIG X 999      41.958 132.123  21.098  1.00  0.00     0.157 HD
ENDBRANCH   4  17
TORSDOF 1
