REMARK VINA RESULT:      -7.4      1.292      2.638
REMARK  2 active torsions:
REMARK  status: ('A' for Active; 'I' for Inactive)
REMARK    1  A    between atoms: C1_2  and  C2_4 
REMARK    2  A    between atoms: C3_5  and  C4_6 
ROOT
HETATM    1  C4  LIG X 999      45.048 131.157  18.582  1.00  0.00     0.019 A 
HETATM    2  C5  LIG X 999      45.935 130.504  19.447  1.00  0.00     0.021 A 
HETATM    3  C6  LIG X 999      45.663 130.438  20.817  1.00  0.00     0.013 A 
HETATM    4  C7  LIG X 999      44.499 131.026  21.333  1.00  0.00    -0.026 A 
HETATM    5  C8  LIG X 999      44.216 130.967  22.707  1.00  0.00     0.012 A 
HETATM    6  C9  LIG X 999      43.053 131.558  23.209  1.00  0.00     0.001 A 
HETATM    7  C10 LIG X 999      42.166 132.210  22.348  1.00  0.00     0.001 A 
HETATM    8  C11 LIG X 999      42.436 132.277  20.978  1.00  0.00     0.012 A 
HETATM    9  C12 LIG X 999      43.601 131.688  20.459  1.00  0.00    -0.025 A 
HETATM   10  C13 LIG X 999      43.883 131.748  19.087  1.00  0.00     0.032 A 
ENDROOT
BRANCH   1  11
HETATM   11  C3  LIG X 999      45.336 131.221  17.172  1.00  0.00    -0.056 C 
HETATM   12  C2  LIG X 999      45.577 131.274  15.992  1.00  0.00     0.010 C 
BRANCH  12  13
HETATM   13  C1  LIG X 999      45.865 131.338  14.588  1.00  0.00     0.258 C 
HETATM   14  O1  LIG X 999      44.948 131.138  13.749  1.00  0.00    -0.637 OA
HETATM   15  O2  LIG X 999      47.153 131.618  14.155  1.00  0.00    -0.637 OA
ENDBRANCH  12  13
ENDBRANCH   1  11
TORSDOF 2
