MODEL 1
REMARK VINA RESULT:      -6.4      0.000      0.000
REMARK  6 active torsions:
REMARK  status: ('A' for Active; 'I' for Inactive)
REMARK    1  A    between atoms: N1_15  and  C15_17 
REMARK    2  A    between atoms: C15_17  and  C16_18 
REMARK    3  A    between atoms: C16_18  and  C17_19 
REMARK    4  A    between atoms: C17_19  and  C18_20 
REMARK    5  A    between atoms: C18_20  and  C19_21 
REMARK    6  A    between atoms: C19_21  and  N2_22 
ROOT
HETATM    1  C1  LIG X 999      44.774 131.484  15.503  1.00  0.00     0.001 C 
HETATM    2  C2  LIG X 999      43.476 131.741  15.937  1.00  0.00     0.001 C 
HETATM    3  C3  LIG X 999      43.167 131.699  17.298  1.00  0.00     0.013 C 
HETATM    4  C4  LIG X 999      44.166 131.446  18.269  1.00  0.00    -0.013 C 
HETATM    5  C5  LIG X 999      45.454 131.066  17.794  1.00  0.00    -0.025 C 
HETATM    6  C6  LIG X 999      45.756 131.128  16.423  1.00  0.00     0.012 C 
HETATM    7  C7  LIG X 999      46.414 130.576  18.682  1.00  0.00     0.014 C 
HETATM    8  C8  LIG X 999      46.102 130.401  20.022  1.00  0.00     0.031 C 
HETATM    9  C9  LIG X 999      44.864 130.814  20.532  1.00  0.00     0.045 C 
HETATM   10  C10 LIG X 999      43.914 131.447  19.681  1.00  0.00     0.008 C 
HETATM   11  C11 LIG X 999      42.799 132.073  20.316  1.00  0.00    -0.045 C 
HETATM   12  C12 LIG X 999      41.941 133.137  19.674  1.00  0.00     0.049 C 
HETATM   13  C13 LIG X 999      42.542 131.809  21.667  1.00  0.00     0.056 C 
HETATM   14  C14 LIG X 999      43.435 131.054  22.436  1.00  0.00     0.101 C 
HETATM   15  N1  LIG X 999      43.155 130.818  23.697  1.00  0.00    -0.376 N 
HETATM   16  H11 LIG X 999      42.277 131.214  24.105  1.00  0.00     0.161 HD
HETATM   17  N3  LIG X 999      44.596 130.621  21.857  1.00  0.00    -0.342 N 
HETATM   18  H28 LIG X 999      45.319 130.134  22.430  1.00  0.00     0.167 HD
ENDROOT
BRANCH  15  19
HETATM   19  C15 LIG X 999      43.965 130.017  24.624  1.00  0.00     0.121 C 
BRANCH  19  20
HETATM   20  C16 LIG X 999      43.745 128.508  24.419  1.00  0.00     0.020 C 
BRANCH  20  21
HETATM   21  C17 LIG X 999      45.039 127.719  24.133  1.00  0.00     0.004 C 
BRANCH  21  22
HETATM   22  C18 LIG X 999      45.048 126.933  22.806  1.00  0.00     0.035 C 
BRANCH  22  23
HETATM   23  C19 LIG X 999      44.872 125.399  22.954  1.00  0.00     0.216 C 
HETATM   24  C21 LIG X 999      43.539 124.941  22.346  1.00  0.00     0.042 C 
BRANCH  23  25
HETATM   25  N2  LIG X 999      45.998 124.602  22.419  1.00  0.00     0.083 N 
HETATM   26  H21 LIG X 999      46.266 123.869  23.116  1.00  0.00     0.315 HD
HETATM   27  C20 LIG X 999      47.195 125.380  22.076  1.00  0.00     0.307 C 
ENDBRANCH  23  25
ENDBRANCH  22  23
ENDBRANCH  21  22
ENDBRANCH  20  21
ENDBRANCH  19  20
ENDBRANCH  15  19
TORSDOF 6
ENDMDL
MODEL 2
REMARK VINA RESULT:      -6.3      1.911      2.444
REMARK  6 active torsions:
REMARK  status: ('A' for Active; 'I' for Inactive)
REMARK    1  A    between atoms: N1_15  and  C15_17 
REMARK    2  A    between atoms: C15_17  and  C16_18 
REMARK    3  A    between atoms: C16_18  and  C17_19 
REMARK    4  A    between atoms: C17_19  and  C18_20 
REMARK    5  A    between atoms: C18_20  and  C19_21 
REMARK    6  A    between atoms: C19_21  and  N2_22 
ROOT
HETATM    1  C1  LIG X 999      44.764 131.462  15.504  1.00  0.00     0.001 C 
HETATM    2  C2  LIG X 999      43.472 131.746  15.937  1.00  0.00     0.001 C 
HETATM    3  C3  LIG X 999      43.161 131.710  17.298  1.00  0.00     0.013 C 
HETATM    4  C4  LIG X 999      44.153 131.436  18.269  1.00  0.00    -0.013 C 
HETATM    5  C5  LIG X 999      45.433 131.030  17.796  1.00  0.00    -0.025 C 
HETATM    6  C6  LIG X 999      45.737 131.085  16.425  1.00  0.00     0.012 C 
HETATM    7  C7  LIG X 999      46.382 130.519  18.684  1.00  0.00     0.014 C 
HETATM    8  C8  LIG X 999      46.065 130.351  20.025  1.00  0.00     0.031 C 
HETATM    9  C9  LIG X 999      44.836 130.790  20.534  1.00  0.00     0.045 C 
HETATM   10  C10 LIG X 999      43.900 131.443  19.681  1.00  0.00     0.008 C 
HETATM   11  C11 LIG X 999      42.798 132.092  20.315  1.00  0.00    -0.045 C 
HETATM   12  C12 LIG X 999      41.963 133.174  19.672  1.00  0.00     0.049 C 
HETATM   13  C13 LIG X 999      42.535 131.834  21.667  1.00  0.00     0.056 C 
HETATM   14  C14 LIG X 999      43.411 131.060  22.436  1.00  0.00     0.101 C 
HETATM   15  N1  LIG X 999      43.125 130.830  23.696  1.00  0.00    -0.376 N 
HETATM   16  H11 LIG X 999      42.255 131.245  24.104  1.00  0.00     0.161 HD
HETATM   17  N3  LIG X 999      44.563 130.603  21.858  1.00  0.00    -0.342 N 
HETATM   18  H28 LIG X 999      45.275 130.101  22.431  1.00  0.00     0.167 HD
ENDROOT
BRANCH  15  19
HETATM   19  C15 LIG X 999      43.917 130.013  24.625  1.00  0.00     0.121 C 
BRANCH  19  20
HETATM   20  C16 LIG X 999      43.461 128.543  24.624  1.00  0.00     0.020 C 
BRANCH  20  21
HETATM   21  C17 LIG X 999      42.165 128.288  23.828  1.00  0.00     0.004 C 
BRANCH  21  22
HETATM   22  C18 LIG X 999      41.325 127.088  24.309  1.00  0.00     0.035 C 
BRANCH  22  23
HETATM   23  C19 LIG X 999      41.037 126.015  23.226  1.00  0.00     0.216 C 
HETATM   24  C21 LIG X 999      42.146 124.954  23.200  1.00  0.00     0.042 C 
BRANCH  23  25
HETATM   25  N2  LIG X 999      39.704 125.384  23.332  1.00  0.00     0.083 N 
HETATM   26  H21 LIG X 999      39.276 125.629  24.254  1.00  0.00     0.315 HD
HETATM   27  C20 LIG X 999      39.701 123.922  23.190  1.00  0.00     0.307 C 
ENDBRANCH  23  25
ENDBRANCH  22  23
ENDBRANCH  21  22
ENDBRANCH  20  21
ENDBRANCH  19  20
ENDBRANCH  15  19
TORSDOF 6
ENDMDL
MODEL 3
REMARK VINA RESULT:      -5.4      1.608      3.078
REMARK  6 active torsions:
REMARK  status: ('A' for Active; 'I' for Inactive)
REMARK    1  A    between atoms: N1_15  and  C15_17 
REMARK    2  A    between atoms: C15_17  and  C16_18 
REMARK    3  A    between atoms: C16_18  and  C17_19 
REMARK    4  A    between atoms: C17_19  and  C18_20 
REMARK    5  A    between atoms: C18_20  and  C19_21 
REMARK    6  A    between atoms: C19_21  and  N2_22 
ROOT
HETATM    1  C1  LIG X 999      44.694 131.605  14.756  1.00  0.00     0.001 C 
HETATM    2  C2  LIG X 999      45.872 131.442  15.478  1.00  0.00     0.001 C 
HETATM    3  C3  LIG X 999      45.842 131.380  16.873  1.00  0.00     0.013 C 
HETATM    4  C4  LIG X 999      44.618 131.429  17.581  1.00  0.00    -0.013 C 
HETATM    5  C5  LIG X 999      43.442 131.718  16.831  1.00  0.00    -0.025 C 
HETATM    6  C6  LIG X 999      43.484 131.763  15.428  1.00  0.00     0.012 C 
HETATM    7  C7  LIG X 999      42.245 132.014  17.486  1.00  0.00     0.014 C 
HETATM    8  C8  LIG X 999      42.206 132.086  18.872  1.00  0.00     0.031 C 
HETATM    9  C9  LIG X 999      43.328 131.755  19.641  1.00  0.00     0.045 C 
HETATM   10  C10 LIG X 999      44.525 131.313  19.008  1.00  0.00     0.008 C 
HETATM   11  C11 LIG X 999      45.527 130.746  19.853  1.00  0.00    -0.045 C 
HETATM   12  C12 LIG X 999      46.639 129.847  19.369  1.00  0.00     0.049 C 
HETATM   13  C13 LIG X 999      45.420 130.899  21.241  1.00  0.00     0.056 C 
HETATM   14  C14 LIG X 999      44.283 131.476  21.817  1.00  0.00     0.101 C 
HETATM   15  N1  LIG X 999      44.224 131.613  23.121  1.00  0.00    -0.376 N 
HETATM   16  H11 LIG X 999      45.022 131.271  23.704  1.00  0.00     0.161 HD
HETATM   17  N3  LIG X 999      43.248 131.841  21.002  1.00  0.00    -0.342 N 
HETATM   18  H28 LIG X 999      42.354 132.191  21.411  1.00  0.00     0.167 HD
ENDROOT
BRANCH  15  19
HETATM   19  C15 LIG X 999      43.123 132.227  23.875  1.00  0.00     0.121 C 
BRANCH  19  20
HETATM   20  C16 LIG X 999      42.048 131.196  24.260  1.00  0.00     0.020 C 
BRANCH  20  21
HETATM   21  C17 LIG X 999      42.611 129.808  24.625  1.00  0.00     0.004 C 
BRANCH  21  22
HETATM   22  C18 LIG X 999      42.228 128.669  23.658  1.00  0.00     0.035 C 
BRANCH  22  23
HETATM   23  C19 LIG X 999      43.344 127.622  23.406  1.00  0.00     0.216 C 
HETATM   24  C21 LIG X 999      44.714 128.173  23.825  1.00  0.00     0.042 C 
BRANCH  23  25
HETATM   25  N2  LIG X 999      43.093 126.303  24.027  1.00  0.00     0.083 N 
HETATM   26  H21 LIG X 999      43.982 125.939  24.441  1.00  0.00     0.315 HD
HETATM   27  C20 LIG X 999      42.552 125.286  23.116  1.00  0.00     0.307 C 
ENDBRANCH  23  25
ENDBRANCH  22  23
ENDBRANCH  21  22
ENDBRANCH  20  21
ENDBRANCH  19  20
ENDBRANCH  15  19
TORSDOF 6
ENDMDL
MODEL 4
REMARK VINA RESULT:      -4.9      3.032      6.922
REMARK  6 active torsions:
REMARK  status: ('A' for Active; 'I' for Inactive)
REMARK    1  A    between atoms: N1_15  and  C15_17 
REMARK    2  A    between atoms: C15_17  and  C16_18 
REMARK    3  A    between atoms: C16_18  and  C17_19 
REMARK    4  A    between atoms: C17_19  and  C18_20 
REMARK    5  A    between atoms: C18_20  and  C19_21 
REMARK    6  A    between atoms: C19_21  and  N2_22 
ROOT
HETATM    1  C1  LIG X 999      43.896 131.150  24.625  1.00  0.00     0.001 C 
HETATM    2  C2  LIG X 999      43.085 132.165  24.126  1.00  0.00     0.001 C 
HETATM    3  C3  LIG X 999      42.935 132.335  22.748  1.00  0.00     0.013 C 
HETATM    4  C4  LIG X 999      43.558 131.457  21.830  1.00  0.00    -0.013 C 
HETATM    5  C5  LIG X 999      44.477 130.506  22.359  1.00  0.00    -0.025 C 
HETATM    6  C6  LIG X 999      44.606 130.335  23.747  1.00  0.00     0.012 C 
HETATM    7  C7  LIG X 999      45.299 129.771  21.502  1.00  0.00     0.014 C 
HETATM    8  C8  LIG X 999      45.269 130.003  20.135  1.00  0.00     0.031 C 
HETATM    9  C9  LIG X 999      44.340 130.891  19.576  1.00  0.00     0.045 C 
HETATM   10  C10 LIG X 999      43.392 131.552  20.408  1.00  0.00     0.008 C 
HETATM   11  C11 LIG X 999      42.320 132.227  19.750  1.00  0.00    -0.045 C 
HETATM   12  C12 LIG X 999      41.015 132.601  20.412  1.00  0.00     0.049 C 
HETATM   13  C13 LIG X 999      42.393 132.446  18.368  1.00  0.00     0.056 C 
HETATM   14  C14 LIG X 999      43.430 131.896  17.606  1.00  0.00     0.101 C 
HETATM   15  N1  LIG X 999      43.471 132.132  16.315  1.00  0.00    -0.376 N 
HETATM   16  H11 LIG X 999      42.717 132.714  15.881  1.00  0.00     0.161 HD
HETATM   17  N3  LIG X 999      44.345 131.092  18.226  1.00  0.00    -0.342 N 
HETATM   18  H28 LIG X 999      45.075 130.598  17.667  1.00  0.00     0.167 HD
ENDROOT
BRANCH  15  19
HETATM   19  C15 LIG X 999      44.506 131.662  15.385  1.00  0.00     0.121 C 
BRANCH  19  20
HETATM   20  C16 LIG X 999      45.866 132.329  15.658  1.00  0.00     0.020 C 
BRANCH  20  21
HETATM   21  C17 LIG X 999      46.931 132.047  14.580  1.00  0.00     0.004 C 
BRANCH  21  22
HETATM   22  C18 LIG X 999      46.553 130.961  13.552  1.00  0.00     0.035 C 
BRANCH  22  23
HETATM   23  C19 LIG X 999      47.066 129.537  13.887  1.00  0.00     0.216 C 
HETATM   24  C21 LIG X 999      48.559 129.403  13.557  1.00  0.00     0.042 C 
BRANCH  23  25
HETATM   25  N2  LIG X 999      46.791 129.100  15.274  1.00  0.00     0.083 N 
HETATM   26  H21 LIG X 999      47.412 128.293  15.514  1.00  0.00     0.315 HD
HETATM   27  C20 LIG X 999      45.399 128.711  15.532  1.00  0.00     0.307 C 
ENDBRANCH  23  25
ENDBRANCH  22  23
ENDBRANCH  21  22
ENDBRANCH  20  21
ENDBRANCH  19  20
ENDBRANCH  15  19
TORSDOF 6
ENDMDL
MODEL 5
REMARK VINA RESULT:      -4.2      3.083      7.056
REMARK  6 active torsions:
REMARK  status: ('A' for Active; 'I' for Inactive)
REMARK    1  A    between atoms: N1_15  and  C15_17 
REMARK    2  A    between atoms: C15_17  and  C16_18 
REMARK    3  A    between atoms: C16_18  and  C17_19 
REMARK    4  A    between atoms: C17_19  and  C18_20 
REMARK    5  A    between atoms: C18_20  and  C19_21 
REMARK    6  A    between atoms: C19_21  and  N2_22 
ROOT
HETATM    1  C1  LIG X 999      43.635 130.991  24.625  1.00  0.00     0.001 C 
HETATM    2  C2  LIG X 999      42.824 131.987  24.088  1.00  0.00     0.001 C 
HETATM    3  C3  LIG X 999      42.775 132.189  22.707  1.00  0.00     0.013 C 
HETATM    4  C4  LIG X 999      43.503 131.361  21.820  1.00  0.00    -0.013 C 
HETATM    5  C5  LIG X 999      44.416 130.432  22.397  1.00  0.00    -0.025 C 
HETATM    6  C6  LIG X 999      44.444 130.229  23.787  1.00  0.00     0.012 C 
HETATM    7  C7  LIG X 999      45.332 129.754  21.591  1.00  0.00     0.014 C 
HETATM    8  C8  LIG X 999      45.399 130.021  20.231  1.00  0.00     0.031 C 
HETATM    9  C9  LIG X 999      44.481 130.887  19.622  1.00  0.00     0.045 C 
HETATM   10  C10 LIG X 999      43.444 131.488  20.392  1.00  0.00     0.008 C 
HETATM   11  C11 LIG X 999      42.400 132.138  19.668  1.00  0.00    -0.045 C 
HETATM   12  C12 LIG X 999      41.034 132.443  20.234  1.00  0.00     0.049 C 
HETATM   13  C13 LIG X 999      42.572 132.397  18.302  1.00  0.00     0.056 C 
HETATM   14  C14 LIG X 999      43.686 131.909  17.611  1.00  0.00     0.101 C 
HETATM   15  N1  LIG X 999      43.818 132.182  16.333  1.00  0.00    -0.376 N 
HETATM   16  H11 LIG X 999      43.077 132.745  15.855  1.00  0.00     0.161 HD
HETATM   17  N3  LIG X 999      44.583 131.125  18.281  1.00  0.00    -0.342 N 
HETATM   18  H28 LIG X 999      45.374 130.675  17.771  1.00  0.00     0.167 HD
ENDROOT
BRANCH  15  19
HETATM   19  C15 LIG X 999      44.941 131.778  15.477  1.00  0.00     0.121 C 
BRANCH  19  20
HETATM   20  C16 LIG X 999      44.694 130.408  14.819  1.00  0.00     0.020 C 
BRANCH  20  21
HETATM   21  C17 LIG X 999      45.640 129.295  15.312  1.00  0.00     0.004 C 
BRANCH  21  22
HETATM   22  C18 LIG X 999      47.136 129.527  15.018  1.00  0.00     0.035 C 
BRANCH  22  23
HETATM   23  C19 LIG X 999      47.478 129.772  13.525  1.00  0.00     0.216 C 
HETATM   24  C21 LIG X 999      47.568 131.275  13.225  1.00  0.00     0.042 C 
BRANCH  23  25
HETATM   25  N2  LIG X 999      48.688 129.065  13.052  1.00  0.00     0.083 N 
HETATM   26  H21 LIG X 999      48.571 128.037  13.202  1.00  0.00     0.315 HD
HETATM   27  C20 LIG X 999      49.939 129.490  13.694  1.00  0.00     0.307 C 
ENDBRANCH  23  25
ENDBRANCH  22  23
ENDBRANCH  21  22
ENDBRANCH  20  21
ENDBRANCH  19  20
ENDBRANCH  15  19
TORSDOF 6
ENDMDL
