MODEL 1
REMARK VINA RESULT:      -6.7      0.000      0.000
REMARK  1 active torsions:
REMARK  status: ('A' for Active; 'I' for Inactive)
REMARK    1  A    between atoms: C13_15  and  N2_16 
ROOT
HETATM    1  N1  LIG X 999      46.876 130.317  15.371  1.00  0.00    -0.191 NA
HETATM    2  C1  LIG X 999      46.072 130.607  16.151  1.00  0.00     0.109 C 
HETATM    3  C2  LIG X 999      45.074 130.969  17.122  1.00  0.00     0.113 A 
HETATM    4  S1  LIG X 999      43.602 131.677  16.730  1.00  0.00    -0.076 SA
HETATM    5  C3  LIG X 999      43.120 131.897  18.322  1.00  0.00     0.019 A 
HETATM    6  C4  LIG X 999      41.954 132.519  18.750  1.00  0.00     0.021 A 
HETATM    7  C5  LIG X 999      41.727 132.645  20.122  1.00  0.00     0.013 A 
HETATM    8  C6  LIG X 999      42.634 132.093  21.050  1.00  0.00    -0.025 A 
HETATM    9  C7  LIG X 999      42.354 132.175  22.423  1.00  0.00     0.012 A 
HETATM   10  C8  LIG X 999      43.193 131.558  23.350  1.00  0.00     0.001 A 
HETATM   11  C9  LIG X 999      44.299 130.829  22.916  1.00  0.00     0.001 A 
HETATM   12  C10 LIG X 999      44.600 130.745  21.554  1.00  0.00     0.013 A 
HETATM   13  C11 LIG X 999      43.811 131.421  20.600  1.00  0.00    -0.012 A 
HETATM   14  C12 LIG X 999      44.079 131.399  19.204  1.00  0.00     0.020 A 
HETATM   15  C13 LIG X 999      45.223 130.920  18.511  1.00  0.00     0.066 A 
ENDROOT
BRANCH  15  16
HETATM   16  N2  LIG X 999      46.484 130.619  19.118  1.00  0.00    -0.397 N 
HETATM   17  H7  LIG X 999      46.525 130.237  20.088  1.00  0.00     0.156 HD
HETATM   18  H8  LIG X 999      47.344 130.529  18.532  1.00  0.00     0.156 HD
ENDBRANCH  15  16
TORSDOF 1
ENDMDL
MODEL 2
REMARK VINA RESULT:      -6.7      1.894      2.871
REMARK  1 active torsions:
REMARK  status: ('A' for Active; 'I' for Inactive)
REMARK    1  A    between atoms: C13_15  and  N2_16 
ROOT
HETATM    1  N1  LIG X 999      43.666 131.750  14.046  1.00  0.00    -0.191 NA
HETATM    2  C1  LIG X 999      43.954 131.621  15.159  1.00  0.00     0.109 C 
HETATM    3  C2  LIG X 999      44.311 131.458  16.543  1.00  0.00     0.113 A 
HETATM    4  S1  LIG X 999      45.748 130.760  17.062  1.00  0.00    -0.076 SA
HETATM    5  C3  LIG X 999      45.354 130.813  18.692  1.00  0.00     0.019 A 
HETATM    6  C4  LIG X 999      46.117 130.315  19.741  1.00  0.00     0.021 A 
HETATM    7  C5  LIG X 999      45.617 130.417  21.040  1.00  0.00     0.013 A 
HETATM    8  C6  LIG X 999      44.392 131.069  21.285  1.00  0.00    -0.025 A 
HETATM    9  C7  LIG X 999      43.939 131.217  22.606  1.00  0.00     0.012 A 
HETATM   10  C8  LIG X 999      42.776 131.937  22.875  1.00  0.00     0.001 A 
HETATM   11  C9  LIG X 999      42.071 132.541  21.835  1.00  0.00     0.001 A 
HETATM   12  C10 LIG X 999      42.500 132.397  20.513  1.00  0.00     0.013 A 
HETATM   13  C11 LIG X 999      43.632 131.613  20.205  1.00  0.00    -0.012 A 
HETATM   14  C12 LIG X 999      44.103 131.403  18.881  1.00  0.00     0.020 A 
HETATM   15  C13 LIG X 999      43.486 131.719  17.641  1.00  0.00     0.066 A 
ENDROOT
BRANCH  15  16
HETATM   16  N2  LIG X 999      42.106 132.059  17.474  1.00  0.00    -0.397 N 
HETATM   17  H7  LIG X 999      41.683 132.835  18.029  1.00  0.00     0.156 HD
HETATM   18  H8  LIG X 999      41.578 131.728  16.637  1.00  0.00     0.156 HD
ENDBRANCH  15  16
TORSDOF 1
ENDMDL
MODEL 3
REMARK VINA RESULT:      -6.5      2.195      5.011
REMARK  1 active torsions:
REMARK  status: ('A' for Active; 'I' for Inactive)
REMARK    1  A    between atoms: C13_15  and  N2_16 
ROOT
HETATM    1  N1  LIG X 999      44.547 130.865  24.621  1.00  0.00    -0.191 NA
HETATM    2  C1  LIG X 999      44.260 131.107  23.526  1.00  0.00     0.109 C 
HETATM    3  C2  LIG X 999      43.904 131.405  22.165  1.00  0.00     0.113 A 
HETATM    4  S1  LIG X 999      42.466 132.149  21.716  1.00  0.00    -0.076 SA
HETATM    5  C3  LIG X 999      42.740 132.010  20.067  1.00  0.00     0.019 A 
HETATM    6  C4  LIG X 999      41.871 132.394  19.053  1.00  0.00     0.021 A 
HETATM    7  C5  LIG X 999      42.251 132.174  17.728  1.00  0.00     0.013 A 
HETATM    8  C6  LIG X 999      43.517 131.633  17.427  1.00  0.00    -0.025 A 
HETATM    9  C7  LIG X 999      43.904 131.480  16.086  1.00  0.00     0.012 A 
HETATM   10  C8  LIG X 999      45.186 131.030  15.770  1.00  0.00     0.001 A 
HETATM   11  C9  LIG X 999      46.102 130.759  16.785  1.00  0.00     0.001 A 
HETATM   12  C10 LIG X 999      45.733 130.896  18.126  1.00  0.00     0.013 A 
HETATM   13  C11 LIG X 999      44.420 131.277  18.475  1.00  0.00    -0.012 A 
HETATM   14  C12 LIG X 999      43.973 131.406  19.818  1.00  0.00     0.020 A 
HETATM   15  C13 LIG X 999      44.610 131.010  21.025  1.00  0.00     0.066 A 
ENDROOT
BRANCH  15  16
HETATM   16  N2  LIG X 999      45.728 130.120  21.109  1.00  0.00    -0.397 N 
HETATM   17  H7  LIG X 999      46.163 129.905  22.033  1.00  0.00     0.156 HD
HETATM   18  H8  LIG X 999      45.958 129.485  20.313  1.00  0.00     0.156 HD
ENDBRANCH  15  16
TORSDOF 1
ENDMDL
MODEL 4
REMARK VINA RESULT:      -6.4      1.211      1.679
REMARK  1 active torsions:
REMARK  status: ('A' for Active; 'I' for Inactive)
REMARK    1  A    between atoms: C13_15  and  N2_16 
ROOT
HETATM    1  N1  LIG X 999      46.626 130.620  13.377  1.00  0.00    -0.191 NA
HETATM    2  C1  LIG X 999      45.959 130.793  14.307  1.00  0.00     0.109 C 
HETATM    3  C2  LIG X 999      45.132 131.010  15.463  1.00  0.00     0.113 A 
HETATM    4  S1  LIG X 999      43.580 131.650  15.396  1.00  0.00    -0.076 SA
HETATM    5  C3  LIG X 999      43.376 131.709  17.060  1.00  0.00     0.019 A 
HETATM    6  C4  LIG X 999      42.274 132.217  17.737  1.00  0.00     0.021 A 
HETATM    7  C5  LIG X 999      42.288 132.216  19.133  1.00  0.00     0.013 A 
HETATM    8  C6  LIG X 999      43.370 131.651  19.837  1.00  0.00    -0.025 A 
HETATM    9  C7  LIG X 999      43.333 131.602  21.240  1.00  0.00     0.012 A 
HETATM   10  C8  LIG X 999      44.353 130.968  21.950  1.00  0.00     0.001 A 
HETATM   11  C9  LIG X 999      45.400 130.351  21.268  1.00  0.00     0.001 A 
HETATM   12  C10 LIG X 999      45.459 130.397  19.872  1.00  0.00     0.013 A 
HETATM   13  C11 LIG X 999      44.482 131.095  19.133  1.00  0.00    -0.012 A 
HETATM   14  C12 LIG X 999      44.500 131.205  17.716  1.00  0.00     0.020 A 
HETATM   15  C13 LIG X 999      45.526 130.859  16.796  1.00  0.00     0.066 A 
ENDROOT
BRANCH  15  16
HETATM   16  N2  LIG X 999      46.887 130.591  17.147  1.00  0.00    -0.397 N 
HETATM   17  H7  LIG X 999      47.189 129.623  17.391  1.00  0.00     0.156 HD
HETATM   18  H8  LIG X 999      47.636 131.282  16.920  1.00  0.00     0.156 HD
ENDBRANCH  15  16
TORSDOF 1
ENDMDL
MODEL 5
REMARK VINA RESULT:      -6.0      1.884      5.667
REMARK  1 active torsions:
REMARK  status: ('A' for Active; 'I' for Inactive)
REMARK    1  A    between atoms: C13_15  and  N2_16 
ROOT
HETATM    1  N1  LIG X 999      44.150 131.167  22.164  1.00  0.00    -0.191 NA
HETATM    2  C1  LIG X 999      44.163 131.264  21.011  1.00  0.00     0.109 C 
HETATM    3  C2  LIG X 999      44.178 131.383  19.578  1.00  0.00     0.113 A 
HETATM    4  S1  LIG X 999      42.950 132.102  18.685  1.00  0.00    -0.076 SA
HETATM    5  C3  LIG X 999      43.618 131.729  17.192  1.00  0.00     0.019 A 
HETATM    6  C4  LIG X 999      43.057 131.996  15.950  1.00  0.00     0.021 A 
HETATM    7  C5  LIG X 999      43.741 131.584  14.804  1.00  0.00     0.013 A 
HETATM    8  C6  LIG X 999      45.005 130.968  14.909  1.00  0.00    -0.025 A 
HETATM    9  C7  LIG X 999      45.704 130.620  13.742  1.00  0.00     0.012 A 
HETATM   10  C8  LIG X 999      46.992 130.092  13.824  1.00  0.00     0.001 A 
HETATM   11  C9  LIG X 999      47.606 129.935  15.066  1.00  0.00     0.001 A 
HETATM   12  C10 LIG X 999      46.922 130.266  16.239  1.00  0.00     0.013 A 
HETATM   13  C11 LIG X 999      45.592 130.732  16.189  1.00  0.00    -0.012 A 
HETATM   14  C12 LIG X 999      44.832 131.059  17.346  1.00  0.00     0.020 A 
HETATM   15  C13 LIG X 999      45.120 130.813  18.715  1.00  0.00     0.066 A 
ENDROOT
BRANCH  15  16
HETATM   16  N2  LIG X 999      46.122 129.909  19.194  1.00  0.00    -0.397 N 
HETATM   17  H7  LIG X 999      46.266 129.776  20.219  1.00  0.00     0.156 HD
HETATM   18  H8  LIG X 999      46.535 129.193  18.557  1.00  0.00     0.156 HD
ENDBRANCH  15  16
TORSDOF 1
ENDMDL
MODEL 6
REMARK VINA RESULT:      -5.6      2.797      5.861
REMARK  1 active torsions:
REMARK  status: ('A' for Active; 'I' for Inactive)
REMARK    1  A    between atoms: C13_15  and  N2_16 
ROOT
HETATM    1  N1  LIG X 999      40.504 133.598  21.453  1.00  0.00    -0.191 NA
HETATM    2  C1  LIG X 999      41.361 133.057  20.895  1.00  0.00     0.109 C 
HETATM    3  C2  LIG X 999      42.427 132.386  20.201  1.00  0.00     0.113 A 
HETATM    4  S1  LIG X 999      43.730 131.655  20.970  1.00  0.00    -0.076 SA
HETATM    5  C3  LIG X 999      44.533 131.261  19.551  1.00  0.00     0.019 A 
HETATM    6  C4  LIG X 999      45.779 130.656  19.451  1.00  0.00     0.021 A 
HETATM    7  C5  LIG X 999      46.315 130.430  18.182  1.00  0.00     0.013 A 
HETATM    8  C6  LIG X 999      45.574 130.753  17.026  1.00  0.00    -0.025 A 
HETATM    9  C7  LIG X 999      46.105 130.459  15.760  1.00  0.00     0.012 A 
HETATM   10  C8  LIG X 999      45.351 130.689  14.610  1.00  0.00     0.001 A 
HETATM   11  C9  LIG X 999      44.052 131.185  14.713  1.00  0.00     0.001 A 
HETATM   12  C10 LIG X 999      43.510 131.493  15.964  1.00  0.00     0.013 A 
HETATM   13  C11 LIG X 999      44.277 131.341  17.137  1.00  0.00    -0.012 A 
HETATM   14  C12 LIG X 999      43.796 131.663  18.436  1.00  0.00     0.020 A 
HETATM   15  C13 LIG X 999      42.617 132.358  18.816  1.00  0.00     0.066 A 
ENDROOT
BRANCH  15  16
HETATM   16  N2  LIG X 999      41.805 133.141  17.934  1.00  0.00    -0.397 N 
HETATM   17  H7  LIG X 999      41.912 134.178  17.899  1.00  0.00     0.156 HD
HETATM   18  H8  LIG X 999      41.293 132.687  17.146  1.00  0.00     0.156 HD
ENDBRANCH  15  16
TORSDOF 1
ENDMDL
MODEL 7
REMARK VINA RESULT:      -4.7      6.114      7.807
REMARK  1 active torsions:
REMARK  status: ('A' for Active; 'I' for Inactive)
REMARK    1  A    between atoms: C13_15  and  N2_16 
ROOT
HETATM    1  N1  LIG X 999      44.239 131.227  24.379  1.00  0.00    -0.191 NA
HETATM    2  C1  LIG X 999      44.034 130.115  24.135  1.00  0.00     0.109 C 
HETATM    3  C2  LIG X 999      43.779 128.733  23.831  1.00  0.00     0.113 A 
HETATM    4  S1  LIG X 999      44.960 127.654  23.318  1.00  0.00    -0.076 SA
HETATM    5  C3  LIG X 999      43.894 126.385  23.059  1.00  0.00     0.019 A 
HETATM    6  C4  LIG X 999      44.213 125.133  22.547  1.00  0.00     0.021 A 
HETATM    7  C5  LIG X 999      43.188 124.203  22.366  1.00  0.00     0.013 A 
HETATM    8  C6  LIG X 999      41.868 124.509  22.756  1.00  0.00    -0.025 A 
HETATM    9  C7  LIG X 999      40.865 123.535  22.625  1.00  0.00     0.012 A 
HETATM   10  C8  LIG X 999      39.574 123.788  23.087  1.00  0.00     0.001 A 
HETATM   11  C9  LIG X 999      39.279 124.999  23.711  1.00  0.00     0.001 A 
HETATM   12  C10 LIG X 999      40.262 125.984  23.842  1.00  0.00     0.013 A 
HETATM   13  C11 LIG X 999      41.556 125.784  23.317  1.00  0.00    -0.012 A 
HETATM   14  C12 LIG X 999      42.591 126.756  23.392  1.00  0.00     0.020 A 
HETATM   15  C13 LIG X 999      42.523 128.121  23.780  1.00  0.00     0.066 A 
ENDROOT
BRANCH  15  16
HETATM   16  N2  LIG X 999      41.316 128.881  23.901  1.00  0.00    -0.397 N 
HETATM   17  H7  LIG X 999      41.348 129.923  23.924  1.00  0.00     0.156 HD
HETATM   18  H8  LIG X 999      40.391 128.436  23.710  1.00  0.00     0.156 HD
ENDBRANCH  15  16
TORSDOF 1
ENDMDL
MODEL 8
REMARK VINA RESULT:      -4.7      7.257      8.825
REMARK  1 active torsions:
REMARK  status: ('A' for Active; 'I' for Inactive)
REMARK    1  A    between atoms: C13_15  and  N2_16 
ROOT
HETATM    1  N1  LIG X 999      42.885 130.456  23.690  1.00  0.00    -0.191 NA
HETATM    2  C1  LIG X 999      42.747 129.308  23.713  1.00  0.00     0.109 C 
HETATM    3  C2  LIG X 999      42.575 127.880  23.740  1.00  0.00     0.113 A 
HETATM    4  S1  LIG X 999      43.814 126.783  23.448  1.00  0.00    -0.076 SA
HETATM    5  C3  LIG X 999      42.827 125.428  23.519  1.00  0.00     0.019 A 
HETATM    6  C4  LIG X 999      43.216 124.113  23.296  1.00  0.00     0.021 A 
HETATM    7  C5  LIG X 999      42.249 123.108  23.365  1.00  0.00     0.013 A 
HETATM    8  C6  LIG X 999      40.920 123.418  23.717  1.00  0.00    -0.025 A 
HETATM    9  C7  LIG X 999      39.979 122.384  23.843  1.00  0.00     0.012 A 
HETATM   10  C8  LIG X 999      38.683 122.661  24.276  1.00  0.00     0.001 A 
HETATM   11  C9  LIG X 999      38.322 123.963  24.616  1.00  0.00     0.001 A 
HETATM   12  C10 LIG X 999      39.242 125.008  24.488  1.00  0.00     0.013 A 
HETATM   13  C11 LIG X 999      40.536 124.768  23.982  1.00  0.00    -0.012 A 
HETATM   14  C12 LIG X 999      41.508 125.789  23.800  1.00  0.00     0.020 A 
HETATM   15  C13 LIG X 999      41.360 127.201  23.869  1.00  0.00     0.066 A 
ENDROOT
BRANCH  15  16
HETATM   16  N2  LIG X 999      40.109 127.897  23.851  1.00  0.00    -0.397 N 
HETATM   17  H7  LIG X 999      39.917 128.619  23.124  1.00  0.00     0.156 HD
HETATM   18  H8  LIG X 999      39.291 127.525  24.384  1.00  0.00     0.156 HD
ENDBRANCH  15  16
TORSDOF 1
ENDMDL
MODEL 9
REMARK VINA RESULT:      -4.6      9.179      9.928
REMARK  1 active torsions:
REMARK  status: ('A' for Active; 'I' for Inactive)
REMARK    1  A    between atoms: C13_15  and  N2_16 
ROOT
HETATM    1  N1  LIG X 999      51.698 122.375  16.748  1.00  0.00    -0.191 NA
HETATM    2  C1  LIG X 999      51.377 122.824  17.765  1.00  0.00     0.109 C 
HETATM    3  C2  LIG X 999      50.978 123.383  19.029  1.00  0.00     0.113 A 
HETATM    4  S1  LIG X 999      49.495 123.081  19.759  1.00  0.00    -0.076 SA
HETATM    5  C3  LIG X 999      49.742 124.144  21.033  1.00  0.00     0.019 A 
HETATM    6  C4  LIG X 999      48.834 124.447  22.040  1.00  0.00     0.021 A 
HETATM    7  C5  LIG X 999      49.197 125.386  23.008  1.00  0.00     0.013 A 
HETATM    8  C6  LIG X 999      50.483 125.963  22.997  1.00  0.00    -0.025 A 
HETATM    9  C7  LIG X 999      50.849 126.856  24.017  1.00  0.00     0.012 A 
HETATM   10  C8  LIG X 999      52.145 127.369  24.072  1.00  0.00     0.001 A 
HETATM   11  C9  LIG X 999      53.094 126.973  23.132  1.00  0.00     0.001 A 
HETATM   12  C10 LIG X 999      52.746 126.092  22.104  1.00  0.00     0.013 A 
HETATM   13  C11 LIG X 999      51.424 125.618  21.980  1.00  0.00    -0.012 A 
HETATM   14  C12 LIG X 999      50.999 124.744  20.942  1.00  0.00     0.020 A 
HETATM   15  C13 LIG X 999      51.679 124.347  19.760  1.00  0.00     0.066 A 
ENDROOT
BRANCH  15  16
HETATM   16  N2  LIG X 999      52.843 124.988  19.227  1.00  0.00    -0.397 N 
HETATM   17  H7  LIG X 999      52.748 125.811  18.592  1.00  0.00     0.156 HD
HETATM   18  H8  LIG X 999      53.780 124.820  19.654  1.00  0.00     0.156 HD
ENDBRANCH  15  16
TORSDOF 1
ENDMDL
