REMARK VINA RESULT:      -7.7      0.000      0.000
REMARK  2 active torsions:
REMARK  status: ('A' for Active; 'I' for Inactive)
REMARK    1  A    between atoms: C2_5  and  C3_6 
REMARK    2  A    between atoms: N3_17  and  C13_18 
ROOT
HETATM    1  H1  LIG X 999      43.822 131.396  13.633  1.00  0.00     0.190 HD
HETATM    2  N1  LIG X 999      43.249 131.713  14.445  1.00  0.00    -0.260 NA
HETATM    3  C1  LIG X 999      43.644 131.600  15.672  1.00  0.00     0.269 A 
HETATM    4  O1  LIG X 999      42.915 131.952  16.701  1.00  0.00    -0.255 OA
HETATM    5  C2  LIG X 999      43.634 131.629  17.757  1.00  0.00     0.203 A 
HETATM    6  N2  LIG X 999      44.820 131.088  17.396  1.00  0.00    -0.137 NA
HETATM    7  N3  LIG X 999      44.822 131.075  16.073  1.00  0.00    -0.189 N 
ENDROOT
BRANCH   5   8
HETATM    8  C3  LIG X 999      43.231 131.866  19.163  1.00  0.00     0.030 A 
HETATM    9  C4  LIG X 999      42.195 132.788  19.396  1.00  0.00     0.017 A 
HETATM   10  C5  LIG X 999      41.705 133.008  20.682  1.00  0.00     0.002 A 
HETATM   11  C6  LIG X 999      42.239 132.314  21.764  1.00  0.00     0.012 A 
HETATM   12  C7  LIG X 999      43.291 131.409  21.574  1.00  0.00    -0.025 A 
HETATM   13  C8  LIG X 999      43.838 130.736  22.679  1.00  0.00     0.012 A 
HETATM   14  C12 LIG X 999      43.813 131.184  20.269  1.00  0.00    -0.011 A 
HETATM   15  C9  LIG X 999      44.909 129.861  22.509  1.00  0.00     0.001 A 
HETATM   16  C10 LIG X 999      45.453 129.659  21.242  1.00  0.00     0.001 A 
HETATM   17  C11 LIG X 999      44.920 130.317  20.131  1.00  0.00     0.013 A 
ENDBRANCH   5   8
BRANCH   7  18
HETATM   18  C13 LIG X 999      45.924 130.605  15.281  1.00  0.00     0.107 A 
HETATM   19  C14 LIG X 999      46.237 129.238  15.231  1.00  0.00     0.054 A 
HETATM   20  C15 LIG X 999      47.294 128.803  14.428  1.00  0.00     0.122 A 
HETATM   21  N4  LIG X 999      48.005 129.697  13.691  1.00  0.00    -0.230 NA
HETATM   22  C16 LIG X 999      47.714 131.025  13.706  1.00  0.00     0.251 A 
HETATM   23  F1  LIG X 999      48.445 131.882  12.954  1.00  0.00    -0.181 F 
HETATM   24  C17 LIG X 999      46.663 131.503  14.495  1.00  0.00     0.203 A 
HETATM   25  F2  LIG X 999      46.380 132.831  14.511  1.00  0.00    -0.199 F 
ENDBRANCH   7  18
TORSDOF 2
