REMARK VINA RESULT:      -8.9      0.000      0.000
REMARK  3 active torsions:
REMARK  status: ('A' for Active; 'I' for Inactive)
REMARK    1  A    between atoms: C1_1  and  C2_6 
REMARK    2  A    between atoms: N1_2  and  N2_3 
REMARK    3  A    between atoms: C2_6  and  C3_8 
ROOT
HETATM    1  C3  LIG X 999      45.617 131.047  17.259  1.00  0.00     0.016 A 
HETATM    2  C4  LIG X 999      45.422 132.232  16.529  1.00  0.00     0.016 A 
HETATM    3  C5  LIG X 999      45.942 132.368  15.240  1.00  0.00     0.013 A 
HETATM    4  C6  LIG X 999      46.678 131.325  14.661  1.00  0.00    -0.026 A 
HETATM    5  C7  LIG X 999      47.204 131.453  13.367  1.00  0.00     0.012 A 
HETATM    6  C8  LIG X 999      47.942 130.407  12.804  1.00  0.00     0.001 A 
HETATM    7  C9  LIG X 999      48.161 129.231  13.527  1.00  0.00     0.001 A 
HETATM    8  C10 LIG X 999      47.642 129.092  14.817  1.00  0.00     0.012 A 
HETATM    9  C11 LIG X 999      46.896 130.133  15.394  1.00  0.00    -0.025 A 
HETATM   10  C12 LIG X 999      46.370 130.005  16.688  1.00  0.00     0.028 A 
ENDROOT
BRANCH   1  11
HETATM   11  C2  LIG X 999      45.066 130.932  18.632  1.00  0.00     0.201 C 
HETATM   12  O1  LIG X 999      45.595 130.120  19.438  1.00  0.00    -0.286 OA
BRANCH  11  13
HETATM   13  C1  LIG X 999      43.929 131.742  19.107  1.00  0.00     0.195 C 
HETATM   14  N1  LIG X 999      42.833 131.828  18.416  1.00  0.00    -0.164 NA
BRANCH  14  15
HETATM   15  N2  LIG X 999      41.726 132.609  18.799  1.00  0.00    -0.177 N 
HETATM   16  H2  LIG X 999      40.977 132.804  18.100  1.00  0.00     0.214 HD
HETATM   17  N3  LIG X 999      41.611 133.076  19.977  1.00  0.00    -0.031 N 
ENDBRANCH  14  15
ENDBRANCH  11  13
ENDBRANCH   1  11
TORSDOF 3
