REMARK VINA RESULT:      -5.5      1.611      3.273
REMARK  3 active torsions:
REMARK  status: ('A' for Active; 'I' for Inactive)
REMARK    1  A    between atoms: C3_3  and  O1_4 
REMARK    2  A    between atoms: O1_4  and  C4_5 
REMARK    3  A    between atoms: C5_6  and  C6_7 
ROOT
HETATM    1  C1  LIG X 999      44.777 131.324  14.174  1.00  0.00     0.014 C 
HETATM    2  C2  LIG X 999      44.137 131.354  15.194  1.00  0.00    -0.091 C 
HETATM    3  C3  LIG X 999      43.358 131.391  16.433  1.00  0.00     0.268 C 
ENDROOT
BRANCH   3   4
HETATM    4  O1  LIG X 999      44.073 132.132  17.414  1.00  0.00    -0.338 OA
BRANCH   4   5
HETATM    5  C4  LIG X 999      44.426 131.561  18.640  1.00  0.00     0.094 A 
HETATM    6  C5  LIG X 999      45.566 130.732  18.729  1.00  0.00     0.036 A 
HETATM    7  C7  LIG X 999      45.899 130.147  19.962  1.00  0.00     0.018 A 
HETATM    8  C8  LIG X 999      45.125 130.385  21.097  1.00  0.00     0.013 A 
HETATM    9  C9  LIG X 999      44.002 131.218  21.024  1.00  0.00    -0.023 A 
HETATM   10  C10 LIG X 999      43.228 131.466  22.169  1.00  0.00     0.012 A 
HETATM   11  C14 LIG X 999      43.648 131.818  19.790  1.00  0.00     0.009 A 
HETATM   12  C11 LIG X 999      42.114 132.304  22.097  1.00  0.00     0.001 A 
HETATM   13  C12 LIG X 999      41.764 132.902  20.884  1.00  0.00     0.001 A 
HETATM   14  C13 LIG X 999      42.524 132.664  19.737  1.00  0.00     0.015 A 
BRANCH   6  15
HETATM   15  C6  LIG X 999      46.407 130.486  17.538  1.00  0.00     0.272 C 
HETATM   16  O2  LIG X 999      46.253 129.451  16.836  1.00  0.00    -0.301 OA
ENDBRANCH   6  15
ENDBRANCH   4   5
ENDBRANCH   3   4
TORSDOF 3
