REMARK VINA RESULT:      -5.7      8.010      9.478
REMARK  2 active torsions:
REMARK  status: ('A' for Active; 'I' for Inactive)
REMARK    1  A    between atoms: C2_5  and  C3_6 
REMARK    2  A    between atoms: N3_18  and  C13_19 
ROOT
HETATM    1  H1  LIG X 999      45.729 127.440  21.705  1.00  0.00     0.190 HD
HETATM    2  N1  LIG X 999      46.114 126.523  22.027  1.00  0.00    -0.260 NA
HETATM    3  C1  LIG X 999      45.325 125.565  22.394  1.00  0.00     0.268 A 
HETATM    4  O1  LIG X 999      44.014 125.648  22.381  1.00  0.00    -0.257 OA
HETATM    5  C2  LIG X 999      43.596 124.461  22.773  1.00  0.00     0.177 A 
HETATM    6  N2  LIG X 999      44.640 123.648  23.041  1.00  0.00    -0.269 N 
HETATM    7  H9  LIG X 999      44.610 122.671  23.410  1.00  0.00     0.190 HD
HETATM    8  N3  LIG X 999      45.737 124.350  22.807  1.00  0.00    -0.212 N 
ENDROOT
BRANCH   5   9
HETATM    9  C3  LIG X 999      42.173 124.100  22.946  1.00  0.00     0.028 A 
HETATM   10  C4  LIG X 999      41.804 122.773  22.679  1.00  0.00     0.017 A 
HETATM   11  C5  LIG X 999      40.469 122.375  22.747  1.00  0.00     0.002 A 
HETATM   12  C6  LIG X 999      39.478 123.294  23.088  1.00  0.00     0.012 A 
HETATM   13  C7  LIG X 999      39.819 124.618  23.396  1.00  0.00    -0.025 A 
HETATM   14  C8  LIG X 999      38.819 125.528  23.771  1.00  0.00     0.012 A 
HETATM   15  C12 LIG X 999      41.178 125.034  23.345  1.00  0.00    -0.011 A 
HETATM   16  C9  LIG X 999      39.152 126.837  24.119  1.00  0.00     0.001 A 
HETATM   17  C10 LIG X 999      40.486 127.245  24.110  1.00  0.00     0.001 A 
HETATM   18  C11 LIG X 999      41.494 126.353  23.737  1.00  0.00     0.013 A 
ENDBRANCH   5   9
BRANCH   8  19
HETATM   19  C13 LIG X 999      47.076 123.845  22.942  1.00  0.00     0.105 A 
HETATM   20  C14 LIG X 999      47.682 123.813  24.207  1.00  0.00     0.054 A 
HETATM   21  C15 LIG X 999      48.985 123.325  24.337  1.00  0.00     0.122 A 
HETATM   22  N4  LIG X 999      49.663 122.895  23.241  1.00  0.00    -0.230 NA
HETATM   23  C16 LIG X 999      49.109 122.928  22.000  1.00  0.00     0.251 A 
HETATM   24  F1  LIG X 999      49.829 122.505  20.933  1.00  0.00    -0.181 F 
HETATM   25  C17 LIG X 999      47.808 123.407  21.825  1.00  0.00     0.202 A 
HETATM   26  F2  LIG X 999      47.289 123.489  20.574  1.00  0.00    -0.199 F 
ENDBRANCH   8  19
TORSDOF 2
