REMARK VINA RESULT:      -6.6      3.247      6.066
REMARK  4 active torsions:
REMARK  status: ('A' for Active; 'I' for Inactive)
REMARK    1  A    between atoms: C3_3  and  O1_4 
REMARK    2  A    between atoms: O1_4  and  C4_5 
REMARK    3  A    between atoms: C4_5  and  O2_6 
REMARK    4  A    between atoms: C5_8  and  C6_9 
ROOT
HETATM    1  C1  LIG X 999      45.326 126.909  22.456  1.00  0.00     0.014 C 
HETATM    2  C2  LIG X 999      45.012 127.655  23.349  1.00  0.00    -0.091 C 
HETATM    3  C3  LIG X 999      44.631 128.562  24.433  1.00  0.00     0.270 C 
ENDROOT
BRANCH   3   4
HETATM    4  O1  LIG X 999      44.586 129.896  23.933  1.00  0.00    -0.319 OA
BRANCH   4   5
HETATM    5  C4  LIG X 999      43.870 130.307  22.796  1.00  0.00     0.179 C 
HETATM    6  C5  LIG X 999      44.434 131.039  21.818  1.00  0.00     0.075 C 
BRANCH   5   7
HETATM    7  O2  LIG X 999      42.539 129.914  22.685  1.00  0.00    -0.341 OA
HETATM    8  H4  LIG X 999      42.002 129.673  23.508  1.00  0.00     0.220 HD
ENDBRANCH   5   7
BRANCH   6   9
HETATM    9  C6  LIG X 999      43.692 131.493  20.617  1.00  0.00    -0.021 A 
HETATM   10  C7  LIG X 999      42.479 132.187  20.782  1.00  0.00     0.012 A 
HETATM   11  C8  LIG X 999      41.777 132.674  19.680  1.00  0.00     0.002 A 
HETATM   12  C9  LIG X 999      42.276 132.490  18.393  1.00  0.00     0.012 A 
HETATM   13  C10 LIG X 999      43.486 131.812  18.194  1.00  0.00    -0.025 A 
HETATM   14  C11 LIG X 999      43.983 131.632  16.893  1.00  0.00     0.012 A 
HETATM   15  C15 LIG X 999      44.210 131.305  19.308  1.00  0.00    -0.015 A 
HETATM   16  C12 LIG X 999      45.182 130.949  16.686  1.00  0.00     0.001 A 
HETATM   17  C13 LIG X 999      45.894 130.438  17.771  1.00  0.00     0.001 A 
HETATM   18  C14 LIG X 999      45.414 130.609  19.072  1.00  0.00     0.013 A 
ENDBRANCH   6   9
ENDBRANCH   4   5
ENDBRANCH   3   4
TORSDOF 4
