REMARK VINA RESULT:      -6.5      0.000      0.000
REMARK  2 active torsions:
REMARK  status: ('A' for Active; 'I' for Inactive)
REMARK       I    between atoms: N1_1  and  C1_2 
REMARK    1  A    between atoms: C1_2  and  C2_4 
REMARK    2  A    between atoms: C11_13  and  O2_14 
ROOT
HETATM    1  C2  LIG X 999      45.614 130.371  14.642  1.00  0.00     0.116 C 
HETATM    2  C3  LIG X 999      44.806 131.130  13.563  1.00  0.00     0.017 C 
HETATM    3  C4  LIG X 999      43.336 131.323  13.971  1.00  0.00     0.002 C 
HETATM    4  C5  LIG X 999      43.209 131.993  15.349  1.00  0.00     0.012 C 
HETATM    5  C6  LIG X 999      43.993 131.188  16.394  1.00  0.00     0.047 C 
HETATM    6  C7  LIG X 999      43.828 131.719  17.798  1.00  0.00    -0.019 C 
HETATM    7  C8  LIG X 999      44.682 131.324  18.750  1.00  0.00    -0.004 C 
HETATM    8  C9  LIG X 999      45.857 130.492  18.401  1.00  0.00    -0.001 C 
HETATM    9  C10 LIG X 999      46.223 130.329  17.120  1.00  0.00     0.012 C 
HETATM   10  C11 LIG X 999      45.502 131.093  16.015  1.00  0.00     0.095 C 
ENDROOT
BRANCH   1  11
HETATM   11  C1  LIG X 999      47.050 130.214  14.195  1.00  0.00     0.222 C 
HETATM   12  N1  LIG X 999      47.714 128.955  14.322  1.00  0.00    -0.370 N 
HETATM   13  H1  LIG X 999      47.223 128.127  14.727  1.00  0.00     0.159 HD
HETATM   14  H2  LIG X 999      48.706 128.851  14.015  1.00  0.00     0.159 HD
HETATM   15  O1  LIG X 999      47.678 131.198  13.720  1.00  0.00    -0.273 OA
ENDBRANCH   1  11
BRANCH  10  16
HETATM   16  O2  LIG X 999      46.069 132.382  15.893  1.00  0.00    -0.384 OA
HETATM   17  H15 LIG X 999      46.896 132.320  15.349  1.00  0.00     0.211 HD
ENDBRANCH  10  16
TORSDOF 2
