REMARK VINA RESULT:      -5.2      3.257      6.535
REMARK  4 active torsions:
REMARK  status: ('A' for Active; 'I' for Inactive)
REMARK    1  A    between atoms: C2_2  and  C3_3 
REMARK    2  A    between atoms: C2_2  and  N1_9 
REMARK    3  A    between atoms: C3_3  and  C4_4 
REMARK       I    between atoms: N1_9  and  C8_10 
REMARK       I    between atoms: C8_10  and  N2_12 
REMARK    4  A    between atoms: N2_12  and  C9_13 
ROOT
HETATM    1  C9  LIG X 999      44.133 126.557  22.927  1.00  0.00     0.056 A 
HETATM    2  C10 LIG X 999      43.267 125.561  23.404  1.00  0.00     0.003 A 
HETATM    3  C11 LIG X 999      42.123 125.873  24.078  1.00  0.00    -0.021 A 
HETATM    4  C12 LIG X 999      41.762 127.191  24.339  1.00  0.00     0.022 A 
HETATM    5  C13 LIG X 999      42.597 128.226  23.878  1.00  0.00    -0.023 A 
HETATM    6  C14 LIG X 999      42.257 129.566  24.117  1.00  0.00     0.012 A 
HETATM    7  C15 LIG X 999      43.084 130.593  23.661  1.00  0.00     0.001 A 
HETATM    8  C16 LIG X 999      44.257 130.295  22.965  1.00  0.00     0.001 A 
HETATM    9  C17 LIG X 999      44.613 128.967  22.715  1.00  0.00     0.014 A 
HETATM   10  C18 LIG X 999      43.791 127.914  23.161  1.00  0.00     0.002 A 
HETATM   11  C19 LIG X 999      41.377 124.648  24.437  1.00  0.00     0.276 C 
HETATM   12  N3  LIG X 999      42.066 123.535  23.713  1.00  0.00    -0.067 N 
HETATM   13  C20 LIG X 999      41.253 123.106  22.549  1.00  0.00     0.272 C 
HETATM   14  C21 LIG X 999      42.271 122.375  24.610  1.00  0.00     0.272 C 
HETATM   15  C22 LIG X 999      43.374 124.089  23.244  1.00  0.00     0.278 C 
ENDROOT
BRANCH   1  16
HETATM   16  N2  LIG X 999      45.298 126.204  22.171  1.00  0.00    -0.307 N 
HETATM   17  C8  LIG X 999      46.510 125.757  22.792  1.00  0.00     0.321 C 
HETATM   18  N1  LIG X 999      47.623 125.367  21.975  1.00  0.00    -0.338 N 
HETATM   19  O1  LIG X 999      46.603 125.729  24.050  1.00  0.00    -0.247 OA
HETATM   20  H10 LIG X 999      47.498 125.364  20.937  1.00  0.00     0.164 HD
HETATM   21  H11 LIG X 999      45.299 126.387  21.142  1.00  0.00     0.170 HD
BRANCH  18  22
HETATM   22  C2  LIG X 999      48.886 124.865  22.526  1.00  0.00     0.086 C 
HETATM   23  C1  LIG X 999      48.681 123.443  23.050  1.00  0.00     0.032 C 
BRANCH  22  24
HETATM   24  C3  LIG X 999      49.376 125.791  23.651  1.00  0.00     0.071 C 
BRANCH  24  25
HETATM   25  C4  LIG X 999      50.735 126.344  23.348  1.00  0.00    -0.016 A 
HETATM   26  C5  LIG X 999      51.597 125.893  22.356  1.00  0.00     0.015 A 
HETATM   27  C6  LIG X 999      52.818 126.576  22.339  1.00  0.00     0.008 A 
HETATM   28  C7  LIG X 999      52.928 127.549  23.324  1.00  0.00     0.050 A 
HETATM   29  S1  LIG X 999      51.503 127.563  24.216  1.00  0.00    -0.106 SA
ENDBRANCH  24  25
ENDBRANCH  22  24
ENDBRANCH  18  22
ENDBRANCH   1  16
TORSDOF 4
