MODEL 1
REMARK VINA RESULT:      -6.8      0.000      0.000
REMARK  4 active torsions:
REMARK  status: ('A' for Active; 'I' for Inactive)
REMARK    1  A    between atoms: C1_1  and  C2_6 
REMARK    2  A    between atoms: N1_2  and  N2_3 
REMARK    3  A    between atoms: C2_6  and  C3_8 
REMARK    4  A    between atoms: C11_16  and  N4_17 
ROOT
HETATM    1  N4  LIG X 999      43.643 131.736  15.664  1.00  0.00    -0.105 NA
HETATM    2  N5  LIG X 999      43.266 131.680  14.492  1.00  0.00    -0.167 NA
HETATM    3  N6  LIG X 999      42.888 131.623  13.323  1.00  0.00     0.068 N 
ENDROOT
BRANCH   1   4
HETATM    4  C11 LIG X 999      45.003 132.145  16.009  1.00  0.00     0.179 C 
HETATM    5  C10 LIG X 999      46.011 131.232  15.331  1.00  0.00    -0.024 A 
HETATM    6  C5  LIG X 999      46.622 130.156  16.023  1.00  0.00    -0.049 A 
HETATM    7  C9  LIG X 999      46.282 131.411  13.964  1.00  0.00     0.010 A 
HETATM    8  C4  LIG X 999      46.471 129.987  17.517  1.00  0.00     0.051 C 
HETATM    9  C6  LIG X 999      47.499 129.303  15.335  1.00  0.00     0.007 A 
HETATM   10  C3  LIG X 999      45.222 130.695  18.069  1.00  0.00     0.068 C 
HETATM   11  C12 LIG X 999      45.159 132.135  17.537  1.00  0.00     0.048 C 
HETATM   12  C7  LIG X 999      47.749 129.490  13.974  1.00  0.00     0.001 A 
HETATM   13  C8  LIG X 999      47.144 130.544  13.290  1.00  0.00     0.001 A 
BRANCH  10  14
HETATM   14  C2  LIG X 999      45.207 130.696  19.583  1.00  0.00     0.172 C 
HETATM   15  O1  LIG X 999      46.037 129.992  20.219  1.00  0.00    -0.291 OA
BRANCH  14  16
HETATM   16  C1  LIG X 999      44.289 131.558  20.348  1.00  0.00     0.190 C 
HETATM   17  N1  LIG X 999      43.503 131.061  21.250  1.00  0.00    -0.165 NA
BRANCH  17  18
HETATM   18  N2  LIG X 999      42.615 131.866  21.979  1.00  0.00    -0.177 N 
HETATM   19  H2  LIG X 999      41.915 132.471  21.494  1.00  0.00     0.214 HD
HETATM   20  N3  LIG X 999      42.652 131.851  23.247  1.00  0.00    -0.031 N 
ENDBRANCH  17  18
ENDBRANCH  14  16
ENDBRANCH  10  14
ENDBRANCH   1   4
TORSDOF 4
ENDMDL
MODEL 2
REMARK VINA RESULT:      -6.7      2.877      7.305
REMARK  4 active torsions:
REMARK  status: ('A' for Active; 'I' for Inactive)
REMARK    1  A    between atoms: C1_1  and  C2_6 
REMARK    2  A    between atoms: N1_2  and  N2_3 
REMARK    3  A    between atoms: C2_6  and  C3_8 
REMARK    4  A    between atoms: C11_16  and  N4_17 
ROOT
HETATM    1  N4  LIG X 999      45.484 129.046  20.915  1.00  0.00    -0.105 NA
HETATM    2  N5  LIG X 999      45.267 128.464  21.979  1.00  0.00    -0.167 NA
HETATM    3  N6  LIG X 999      45.050 127.883  23.041  1.00  0.00     0.068 N 
ENDROOT
BRANCH   1   4
HETATM    4  C11 LIG X 999      45.695 130.491  20.864  1.00  0.00     0.179 C 
HETATM    5  C10 LIG X 999      44.412 131.220  21.221  1.00  0.00    -0.024 A 
HETATM    6  C5  LIG X 999      43.553 131.747  20.223  1.00  0.00    -0.049 A 
HETATM    7  C9  LIG X 999      44.026 131.303  22.570  1.00  0.00     0.010 A 
HETATM    8  C4  LIG X 999      43.967 131.802  18.771  1.00  0.00     0.051 C 
HETATM    9  C6  LIG X 999      42.346 132.356  20.601  1.00  0.00     0.007 A 
HETATM   10  C3  LIG X 999      45.071 130.785  18.432  1.00  0.00     0.068 C 
HETATM   11  C12 LIG X 999      46.203 130.877  19.467  1.00  0.00     0.048 C 
HETATM   12  C7  LIG X 999      41.976 132.421  21.945  1.00  0.00     0.001 A 
HETATM   13  C8  LIG X 999      42.815 131.898  22.929  1.00  0.00     0.001 A 
BRANCH  10  14
HETATM   14  C2  LIG X 999      45.619 131.004  17.037  1.00  0.00     0.172 C 
HETATM   15  O1  LIG X 999      45.552 132.146  16.508  1.00  0.00    -0.291 OA
BRANCH  14  16
HETATM   16  C1  LIG X 999      46.300 129.929  16.295  1.00  0.00     0.190 C 
HETATM   17  N1  LIG X 999      46.921 130.174  15.184  1.00  0.00    -0.165 NA
BRANCH  17  18
HETATM   18  N2  LIG X 999      47.565 129.160  14.460  1.00  0.00    -0.177 N 
HETATM   19  H2  LIG X 999      47.414 128.153  14.693  1.00  0.00     0.214 HD
HETATM   20  N3  LIG X 999      48.332 129.467  13.497  1.00  0.00    -0.031 N 
ENDBRANCH  17  18
ENDBRANCH  14  16
ENDBRANCH  10  14
ENDBRANCH   1   4
TORSDOF 4
ENDMDL
MODEL 3
REMARK VINA RESULT:      -6.6      3.146      6.735
REMARK  4 active torsions:
REMARK  status: ('A' for Active; 'I' for Inactive)
REMARK    1  A    between atoms: C1_1  and  C2_6 
REMARK    2  A    between atoms: N1_2  and  N2_3 
REMARK    3  A    between atoms: C2_6  and  C3_8 
REMARK    4  A    between atoms: C11_16  and  N4_17 
ROOT
HETATM    1  N4  LIG X 999      45.760 130.127  18.916  1.00  0.00    -0.105 NA
HETATM    2  N5  LIG X 999      45.702 129.772  20.095  1.00  0.00    -0.167 NA
HETATM    3  N6  LIG X 999      45.644 129.417  21.271  1.00  0.00     0.068 N 
ENDROOT
BRANCH   1   4
HETATM    4  C11 LIG X 999      45.488 131.507  18.521  1.00  0.00     0.179 C 
HETATM    5  C10 LIG X 999      44.098 131.918  18.977  1.00  0.00    -0.024 A 
HETATM    6  C5  LIG X 999      42.991 131.903  18.092  1.00  0.00    -0.049 A 
HETATM    7  C9  LIG X 999      43.892 132.243  20.329  1.00  0.00     0.010 A 
HETATM    8  C4  LIG X 999      43.165 131.686  16.608  1.00  0.00     0.051 C 
HETATM    9  C6  LIG X 999      41.714 132.229  18.578  1.00  0.00     0.007 A 
HETATM   10  C3  LIG X 999      44.481 130.964  16.266  1.00  0.00     0.068 C 
HETATM   11  C12 LIG X 999      45.652 131.637  16.999  1.00  0.00     0.048 C 
HETATM   12  C7  LIG X 999      41.527 132.540  19.926  1.00  0.00     0.001 A 
HETATM   13  C8  LIG X 999      42.614 132.550  20.800  1.00  0.00     0.001 A 
BRANCH  10  14
HETATM   14  C2  LIG X 999      44.737 130.951  14.774  1.00  0.00     0.172 C 
HETATM   15  O1  LIG X 999      43.869 131.412  13.984  1.00  0.00    -0.291 OA
BRANCH  14  16
HETATM   16  C1  LIG X 999      46.012 130.477  14.211  1.00  0.00     0.190 C 
HETATM   17  N1  LIG X 999      46.598 129.420  14.681  1.00  0.00    -0.165 NA
BRANCH  17  18
HETATM   18  N2  LIG X 999      47.818 128.961  14.164  1.00  0.00    -0.177 N 
HETATM   19  H2  LIG X 999      48.209 128.035  14.448  1.00  0.00     0.214 HD
HETATM   20  N3  LIG X 999      48.453 129.673  13.327  1.00  0.00    -0.031 N 
ENDBRANCH  17  18
ENDBRANCH  14  16
ENDBRANCH  10  14
ENDBRANCH   1   4
TORSDOF 4
ENDMDL
MODEL 4
REMARK VINA RESULT:      -6.6      1.294      1.772
REMARK  4 active torsions:
REMARK  status: ('A' for Active; 'I' for Inactive)
REMARK    1  A    between atoms: C1_1  and  C2_6 
REMARK    2  A    between atoms: N1_2  and  N2_3 
REMARK    3  A    between atoms: C2_6  and  C3_8 
REMARK    4  A    between atoms: C11_16  and  N4_17 
ROOT
HETATM    1  N4  LIG X 999      43.161 131.858  16.951  1.00  0.00    -0.105 NA
HETATM    2  N5  LIG X 999      42.349 132.025  17.862  1.00  0.00    -0.167 NA
HETATM    3  N6  LIG X 999      41.537 132.192  18.771  1.00  0.00     0.068 N 
ENDROOT
BRANCH   1   4
HETATM    4  C11 LIG X 999      44.568 132.221  17.107  1.00  0.00     0.179 C 
HETATM    5  C10 LIG X 999      45.430 131.380  16.182  1.00  0.00    -0.024 A 
HETATM    6  C5  LIG X 999      46.123 130.233  16.648  1.00  0.00    -0.049 A 
HETATM    7  C9  LIG X 999      45.478 131.700  14.814  1.00  0.00     0.010 A 
HETATM    8  C4  LIG X 999      46.214 129.907  18.121  1.00  0.00     0.051 C 
HETATM    9  C6  LIG X 999      46.855 129.452  15.740  1.00  0.00     0.007 A 
HETATM   10  C3  LIG X 999      45.088 130.560  18.942  1.00  0.00     0.068 C 
HETATM   11  C12 LIG X 999      44.972 132.049  18.579  1.00  0.00     0.048 C 
HETATM   12  C7  LIG X 999      46.884 129.781  14.384  1.00  0.00     0.001 A 
HETATM   13  C8  LIG X 999      46.199 130.904  13.922  1.00  0.00     0.001 A 
BRANCH  10  14
HETATM   14  C2  LIG X 999      45.321 130.402  20.429  1.00  0.00     0.172 C 
HETATM   15  O1  LIG X 999      46.193 129.591  20.845  1.00  0.00    -0.291 OA
BRANCH  14  16
HETATM   16  C1  LIG X 999      44.603 131.225  21.418  1.00  0.00     0.190 C 
HETATM   17  N1  LIG X 999      43.337 131.052  21.637  1.00  0.00    -0.165 NA
BRANCH  17  18
HETATM   18  N2  LIG X 999      42.636 131.835  22.567  1.00  0.00    -0.177 N 
HETATM   19  H2  LIG X 999      41.941 132.548  22.254  1.00  0.00     0.214 HD
HETATM   20  N3  LIG X 999      42.838 131.665  23.808  1.00  0.00    -0.031 N 
ENDBRANCH  17  18
ENDBRANCH  14  16
ENDBRANCH  10  14
ENDBRANCH   1   4
TORSDOF 4
ENDMDL
MODEL 5
REMARK VINA RESULT:      -6.3      2.817      7.301
REMARK  4 active torsions:
REMARK  status: ('A' for Active; 'I' for Inactive)
REMARK    1  A    between atoms: C1_1  and  C2_6 
REMARK    2  A    between atoms: N1_2  and  N2_3 
REMARK    3  A    between atoms: C2_6  and  C3_8 
REMARK    4  A    between atoms: C11_16  and  N4_17 
ROOT
HETATM    1  N4  LIG X 999      45.715 129.417  20.687  1.00  0.00    -0.105 NA
HETATM    2  N5  LIG X 999      45.354 128.752  21.659  1.00  0.00    -0.167 NA
HETATM    3  N6  LIG X 999      44.994 128.087  22.630  1.00  0.00     0.068 N 
ENDROOT
BRANCH   1   4
HETATM    4  C11 LIG X 999      45.692 130.878  20.711  1.00  0.00     0.179 C 
HETATM    5  C10 LIG X 999      44.501 131.370  21.514  1.00  0.00    -0.024 A 
HETATM    6  C5  LIG X 999      43.303 131.794  20.884  1.00  0.00    -0.049 A 
HETATM    7  C9  LIG X 999      44.560 131.327  22.918  1.00  0.00     0.010 A 
HETATM    8  C4  LIG X 999      43.219 131.982  19.388  1.00  0.00     0.051 C 
HETATM    9  C6  LIG X 999      42.208 132.179  21.673  1.00  0.00     0.007 A 
HETATM   10  C3  LIG X 999      44.288 131.176  18.630  1.00  0.00     0.068 C 
HETATM   11  C12 LIG X 999      45.667 131.405  19.268  1.00  0.00     0.048 C 
HETATM   12  C7  LIG X 999      42.281 132.121  23.066  1.00  0.00     0.001 A 
HETATM   13  C8  LIG X 999      43.456 131.699  23.688  1.00  0.00     0.001 A 
BRANCH  10  14
HETATM   14  C2  LIG X 999      44.325 131.545  17.161  1.00  0.00     0.172 C 
HETATM   15  O1  LIG X 999      43.254 131.828  16.559  1.00  0.00    -0.291 OA
BRANCH  14  16
HETATM   16  C1  LIG X 999      45.594 131.653  16.421  1.00  0.00     0.190 C 
HETATM   17  N1  LIG X 999      45.609 131.718  15.127  1.00  0.00    -0.165 NA
BRANCH  17  18
HETATM   18  N2  LIG X 999      46.809 131.810  14.407  1.00  0.00    -0.177 N 
HETATM   19  H2  LIG X 999      47.545 132.502  14.673  1.00  0.00     0.214 HD
HETATM   20  N3  LIG X 999      47.012 131.033  13.424  1.00  0.00    -0.031 N 
ENDBRANCH  17  18
ENDBRANCH  14  16
ENDBRANCH  10  14
ENDBRANCH   1   4
TORSDOF 4
ENDMDL
MODEL 6
REMARK VINA RESULT:      -6.0      2.268      2.675
REMARK  4 active torsions:
REMARK  status: ('A' for Active; 'I' for Inactive)
REMARK    1  A    between atoms: C1_1  and  C2_6 
REMARK    2  A    between atoms: N1_2  and  N2_3 
REMARK    3  A    between atoms: C2_6  and  C3_8 
REMARK    4  A    between atoms: C11_16  and  N4_17 
ROOT
HETATM    1  N4  LIG X 999      43.161 131.689  16.972  1.00  0.00    -0.105 NA
HETATM    2  N5  LIG X 999      42.371 131.944  17.883  1.00  0.00    -0.167 NA
HETATM    3  N6  LIG X 999      41.582 132.198  18.791  1.00  0.00     0.068 N 
ENDROOT
BRANCH   1   4
HETATM    4  C11 LIG X 999      44.542 132.165  17.004  1.00  0.00     0.179 C 
HETATM    5  C10 LIG X 999      45.397 131.356  16.044  1.00  0.00    -0.024 A 
HETATM    6  C5  LIG X 999      46.212 130.286  16.494  1.00  0.00    -0.049 A 
HETATM    7  C9  LIG X 999      45.315 131.623  14.666  1.00  0.00     0.010 A 
HETATM    8  C4  LIG X 999      46.440 130.029  17.965  1.00  0.00     0.051 C 
HETATM    9  C6  LIG X 999      46.933 129.527  15.559  1.00  0.00     0.007 A 
HETATM   10  C3  LIG X 999      45.331 130.626  18.848  1.00  0.00     0.068 C 
HETATM   11  C12 LIG X 999      45.069 132.085  18.444  1.00  0.00     0.048 C 
HETATM   12  C7  LIG X 999      46.833 129.802  14.194  1.00  0.00     0.001 A 
HETATM   13  C8  LIG X 999      46.027 130.849  13.748  1.00  0.00     0.001 A 
BRANCH  10  14
HETATM   14  C2  LIG X 999      45.688 130.547  20.318  1.00  0.00     0.172 C 
HETATM   15  O1  LIG X 999      45.902 129.425  20.852  1.00  0.00    -0.291 OA
BRANCH  14  16
HETATM   16  C1  LIG X 999      45.864 131.757  21.139  1.00  0.00     0.190 C 
HETATM   17  N1  LIG X 999      47.017 132.344  21.225  1.00  0.00    -0.165 NA
BRANCH  17  18
HETATM   18  N2  LIG X 999      47.204 133.490  22.011  1.00  0.00    -0.177 N 
HETATM   19  H2  LIG X 999      46.450 133.838  22.645  1.00  0.00     0.214 HD
HETATM   20  N3  LIG X 999      48.310 134.110  21.964  1.00  0.00    -0.031 N 
ENDBRANCH  17  18
ENDBRANCH  14  16
ENDBRANCH  10  14
ENDBRANCH   1   4
TORSDOF 4
ENDMDL
MODEL 7
REMARK VINA RESULT:      -5.4      2.803      6.469
REMARK  4 active torsions:
REMARK  status: ('A' for Active; 'I' for Inactive)
REMARK    1  A    between atoms: C1_1  and  C2_6 
REMARK    2  A    between atoms: N1_2  and  N2_3 
REMARK    3  A    between atoms: C2_6  and  C3_8 
REMARK    4  A    between atoms: C11_16  and  N4_17 
ROOT
HETATM    1  N4  LIG X 999      41.981 132.761  18.830  1.00  0.00    -0.105 NA
HETATM    2  N5  LIG X 999      41.502 133.226  19.866  1.00  0.00    -0.167 NA
HETATM    3  N6  LIG X 999      41.023 133.690  20.899  1.00  0.00     0.068 N 
ENDROOT
BRANCH   1   4
HETATM    4  C11 LIG X 999      42.525 131.406  18.781  1.00  0.00     0.179 C 
HETATM    5  C10 LIG X 999      43.672 131.267  19.767  1.00  0.00    -0.024 A 
HETATM    6  C5  LIG X 999      45.025 131.358  19.351  1.00  0.00    -0.049 A 
HETATM    7  C9  LIG X 999      43.383 131.124  21.135  1.00  0.00     0.010 A 
HETATM    8  C4  LIG X 999      45.404 131.386  17.889  1.00  0.00     0.051 C 
HETATM    9  C6  LIG X 999      46.048 131.287  20.310  1.00  0.00     0.007 A 
HETATM   10  C3  LIG X 999      44.249 131.854  16.987  1.00  0.00     0.068 C 
HETATM   11  C12 LIG X 999      42.964 131.090  17.344  1.00  0.00     0.048 C 
HETATM   12  C7  LIG X 999      45.742 131.155  21.665  1.00  0.00     0.001 A 
HETATM   13  C8  LIG X 999      44.412 131.071  22.077  1.00  0.00     0.001 A 
BRANCH  10  14
HETATM   14  C2  LIG X 999      44.578 131.668  15.521  1.00  0.00     0.172 C 
HETATM   15  O1  LIG X 999      43.662 131.742  14.658  1.00  0.00    -0.291 OA
BRANCH  14  16
HETATM   16  C1  LIG X 999      45.961 131.469  15.056  1.00  0.00     0.190 C 
HETATM   17  N1  LIG X 999      46.210 130.862  13.939  1.00  0.00    -0.165 NA
BRANCH  17  18
HETATM   18  N2  LIG X 999      47.522 130.655  13.487  1.00  0.00    -0.177 N 
HETATM   19  H2  LIG X 999      48.044 131.409  12.987  1.00  0.00     0.214 HD
HETATM   20  N3  LIG X 999      48.091 129.541  13.700  1.00  0.00    -0.031 N 
ENDBRANCH  17  18
ENDBRANCH  14  16
ENDBRANCH  10  14
ENDBRANCH   1   4
TORSDOF 4
ENDMDL
MODEL 8
REMARK VINA RESULT:      -5.4      1.333      1.550
REMARK  4 active torsions:
REMARK  status: ('A' for Active; 'I' for Inactive)
REMARK    1  A    between atoms: C1_1  and  C2_6 
REMARK    2  A    between atoms: N1_2  and  N2_3 
REMARK    3  A    between atoms: C2_6  and  C3_8 
REMARK    4  A    between atoms: C11_16  and  N4_17 
ROOT
HETATM    1  N4  LIG X 999      43.687 131.744  15.687  1.00  0.00    -0.105 NA
HETATM    2  N5  LIG X 999      43.265 131.668  14.532  1.00  0.00    -0.167 NA
HETATM    3  N6  LIG X 999      42.842 131.593  13.379  1.00  0.00     0.068 N 
ENDROOT
BRANCH   1   4
HETATM    4  C11 LIG X 999      45.056 132.166  15.973  1.00  0.00     0.179 C 
HETATM    5  C10 LIG X 999      46.044 131.210  15.328  1.00  0.00    -0.024 A 
HETATM    6  C5  LIG X 999      46.670 130.175  16.068  1.00  0.00    -0.049 A 
HETATM    7  C9  LIG X 999      46.282 131.305  13.945  1.00  0.00     0.010 A 
HETATM    8  C4  LIG X 999      46.555 130.096  17.572  1.00  0.00     0.051 C 
HETATM    9  C6  LIG X 999      47.526 129.278  15.411  1.00  0.00     0.007 A 
HETATM   10  C3  LIG X 999      45.322 130.842  18.111  1.00  0.00     0.068 C 
HETATM   11  C12 LIG X 999      45.250 132.248  17.495  1.00  0.00     0.048 C 
HETATM   12  C7  LIG X 999      47.743 129.381  14.036  1.00  0.00     0.001 A 
HETATM   13  C8  LIG X 999      47.124 130.395  13.305  1.00  0.00     0.001 A 
BRANCH  10  14
HETATM   14  C2  LIG X 999      45.345 130.935  19.622  1.00  0.00     0.172 C 
HETATM   15  O1  LIG X 999      45.194 132.053  20.185  1.00  0.00    -0.291 OA
BRANCH  14  16
HETATM   16  C1  LIG X 999      45.468 129.737  20.470  1.00  0.00     0.190 C 
HETATM   17  N1  LIG X 999      44.911 129.685  21.639  1.00  0.00    -0.165 NA
BRANCH  17  18
HETATM   18  N2  LIG X 999      45.028 128.556  22.463  1.00  0.00    -0.177 N 
HETATM   19  H2  LIG X 999      45.844 127.909  22.377  1.00  0.00     0.214 HD
HETATM   20  N3  LIG X 999      44.139 128.322  23.337  1.00  0.00    -0.031 N 
ENDBRANCH  17  18
ENDBRANCH  14  16
ENDBRANCH  10  14
ENDBRANCH   1   4
TORSDOF 4
ENDMDL
MODEL 9
REMARK VINA RESULT:      -5.3      2.408      7.118
REMARK  4 active torsions:
REMARK  status: ('A' for Active; 'I' for Inactive)
REMARK    1  A    between atoms: C1_1  and  C2_6 
REMARK    2  A    between atoms: N1_2  and  N2_3 
REMARK    3  A    between atoms: C2_6  and  C3_8 
REMARK    4  A    between atoms: C11_16  and  N4_17 
ROOT
HETATM    1  N4  LIG X 999      45.197 128.935  21.415  1.00  0.00    -0.105 NA
HETATM    2  N5  LIG X 999      45.092 128.386  22.514  1.00  0.00    -0.167 NA
HETATM    3  N6  LIG X 999      44.986 127.838  23.610  1.00  0.00     0.068 N 
ENDROOT
BRANCH   1   4
HETATM    4  C11 LIG X 999      45.502 130.359  21.299  1.00  0.00     0.179 C 
HETATM    5  C10 LIG X 999      44.243 131.182  21.509  1.00  0.00    -0.024 A 
HETATM    6  C5  LIG X 999      43.499 131.695  20.416  1.00  0.00    -0.049 A 
HETATM    7  C9  LIG X 999      43.761 131.370  22.816  1.00  0.00     0.010 A 
HETATM    8  C4  LIG X 999      44.026 131.636  19.002  1.00  0.00     0.051 C 
HETATM    9  C6  LIG X 999      42.307 132.395  20.661  1.00  0.00     0.007 A 
HETATM   10  C3  LIG X 999      45.087 130.538  18.812  1.00  0.00     0.068 C 
HETATM   11  C12 LIG X 999      46.139 130.627  19.928  1.00  0.00     0.048 C 
HETATM   12  C7  LIG X 999      41.839 132.565  21.965  1.00  0.00     0.001 A 
HETATM   13  C8  LIG X 999      42.565 132.056  23.041  1.00  0.00     0.001 A 
BRANCH  10  14
HETATM   14  C2  LIG X 999      45.753 130.637  17.456  1.00  0.00     0.172 C 
HETATM   15  O1  LIG X 999      46.718 129.876  17.173  1.00  0.00    -0.291 OA
BRANCH  14  16
HETATM   16  C1  LIG X 999      45.261 131.557  16.416  1.00  0.00     0.190 C 
HETATM   17  N1  LIG X 999      44.553 131.123  15.421  1.00  0.00    -0.165 NA
BRANCH  17  18
HETATM   18  N2  LIG X 999      44.086 131.984  14.417  1.00  0.00    -0.177 N 
HETATM   19  H2  LIG X 999      44.591 132.871  14.190  1.00  0.00     0.214 HD
HETATM   20  N3  LIG X 999      43.044 131.678  13.762  1.00  0.00    -0.031 N 
ENDBRANCH  17  18
ENDBRANCH  14  16
ENDBRANCH  10  14
ENDBRANCH   1   4
TORSDOF 4
ENDMDL
