REMARK VINA RESULT:      -7.5      3.590      5.462
REMARK  3 active torsions:
REMARK  status: ('A' for Active; 'I' for Inactive)
REMARK    1  A    between atoms: N1_1  and  C1_2 
REMARK    2  A    between atoms: C1_2  and  C2_3 
REMARK    3  A    between atoms: C2_3  and  C3_5 
ROOT
HETATM    1  C3  LIG X 999      44.687 131.190  18.766  1.00  0.00     0.012 A 
HETATM    2  C4  LIG X 999      43.617 131.757  18.047  1.00  0.00     0.016 A 
HETATM    3  C5  LIG X 999      43.622 131.774  16.650  1.00  0.00     0.013 A 
HETATM    4  C6  LIG X 999      44.698 131.226  15.941  1.00  0.00    -0.026 A 
HETATM    5  C7  LIG X 999      44.712 131.239  14.537  1.00  0.00     0.012 A 
HETATM    6  C8  LIG X 999      45.792 130.691  13.841  1.00  0.00     0.001 A 
HETATM    7  C9  LIG X 999      46.865 130.130  14.537  1.00  0.00     0.001 A 
HETATM    8  C10 LIG X 999      46.864 130.111  15.935  1.00  0.00     0.012 A 
HETATM    9  C11 LIG X 999      45.783 130.657  16.647  1.00  0.00    -0.025 A 
HETATM   10  C12 LIG X 999      45.771 130.643  18.050  1.00  0.00     0.027 A 
ENDROOT
BRANCH   1  11
HETATM   11  C2  LIG X 999      44.659 131.185  20.253  1.00  0.00     0.187 C 
HETATM   12  O1  LIG X 999      45.597 130.628  20.886  1.00  0.00    -0.290 OA
BRANCH  11  13
HETATM   13  C1  LIG X 999      43.518 131.800  21.024  1.00  0.00     0.350 C 
BRANCH  13  14
HETATM   14  N1  LIG X 999      42.794 130.789  21.791  1.00  0.00     0.085 N 
HETATM   15  H1  LIG X 999      43.497 130.241  22.339  1.00  0.00     0.313 HD
HETATM   16  H2  LIG X 999      42.355 130.119  21.118  1.00  0.00     0.313 HD
ENDBRANCH  13  14
ENDBRANCH  11  13
ENDBRANCH   1  11
TORSDOF 3
