REMARK VINA RESULT:      -8.1      0.705      1.816
REMARK  5 active torsions:
REMARK  status: ('A' for Active; 'I' for Inactive)
REMARK    1  A    between atoms: N1_1  and  C1_2 
REMARK    2  A    between atoms: C1_2  and  C2_3 
REMARK    3  A    between atoms: C2_3  and  C3_4 
REMARK    4  A    between atoms: C3_4  and  O1_5 
REMARK    5  A    between atoms: O1_5  and  C4_6 
ROOT
HETATM    1  C4  LIG X 999      45.468 130.979  17.287  1.00  0.00     0.069 A 
HETATM    2  C5  LIG X 999      45.302 132.187  16.582  1.00  0.00     0.037 A 
HETATM    3  C6  LIG X 999      45.881 132.356  15.321  1.00  0.00     0.015 A 
HETATM    4  C7  LIG X 999      46.632 131.323  14.744  1.00  0.00    -0.026 A 
HETATM    5  C8  LIG X 999      47.217 131.483  13.478  1.00  0.00     0.012 A 
HETATM    6  C9  LIG X 999      47.965 130.444  12.915  1.00  0.00     0.001 A 
HETATM    7  C10 LIG X 999      48.133 129.243  13.609  1.00  0.00     0.001 A 
HETATM    8  C11 LIG X 999      47.556 129.071  14.869  1.00  0.00     0.012 A 
HETATM    9  C12 LIG X 999      46.803 130.106  15.447  1.00  0.00    -0.023 A 
HETATM   10  C13 LIG X 999      46.218 129.946  16.712  1.00  0.00     0.049 A 
ENDROOT
BRANCH   1  11
HETATM   11  O1  LIG X 999      44.905 130.765  18.553  1.00  0.00    -0.351 OA
BRANCH  11  12
HETATM   12  C3  LIG X 999      44.876 131.735  19.598  1.00  0.00     0.177 C 
BRANCH  12  13
HETATM   13  C2  LIG X 999      43.584 131.595  20.409  1.00  0.00     0.056 C 
BRANCH  13  14
HETATM   14  C1  LIG X 999      42.446 132.483  19.891  1.00  0.00     0.269 C 
BRANCH  14  15
HETATM   15  N1  LIG X 999      42.222 132.268  18.463  1.00  0.00     0.078 N 
HETATM   16  H1  LIG X 999      41.498 132.948  18.138  1.00  0.00     0.312 HD
HETATM   17  H2  LIG X 999      43.103 132.522  17.960  1.00  0.00     0.312 HD
ENDBRANCH  14  15
ENDBRANCH  13  14
ENDBRANCH  12  13
ENDBRANCH  11  12
ENDBRANCH   1  11
TORSDOF 5
