REMARK VINA RESULT:      -5.1      8.535      9.311
REMARK  2 active torsions:
REMARK  status: ('A' for Active; 'I' for Inactive)
REMARK    1  A    between atoms: C2_2  and  N1_3 
REMARK    2  A    between atoms: C3_6  and  O1_7 
ROOT
HETATM    1  N1  LIG X 999      52.568 124.015  19.900  1.00  0.00    -0.070 NA
HETATM    2  N2  LIG X 999      52.669 124.279  18.700  1.00  0.00    -0.162 NA
HETATM    3  N3  LIG X 999      52.772 124.539  17.502  1.00  0.00     0.068 N 
ENDROOT
BRANCH   1   4
HETATM    4  C2  LIG X 999      51.372 124.284  20.649  1.00  0.00     0.127 A 
HETATM    5  C1  LIG X 999      50.193 123.546  20.432  1.00  0.00     0.049 A 
HETATM    6  C11 LIG X 999      49.037 123.822  21.173  1.00  0.00    -0.023 A 
HETATM    7  C6  LIG X 999      49.058 124.854  22.151  1.00  0.00    -0.022 A 
HETATM    8  C10 LIG X 999      47.854 123.087  20.955  1.00  0.00     0.021 A 
HETATM    9  C5  LIG X 999      50.234 125.585  22.362  1.00  0.00     0.051 A 
HETATM   10  C7  LIG X 999      47.895 125.136  22.896  1.00  0.00     0.021 A 
HETATM   11  C3  LIG X 999      51.395 125.304  21.615  1.00  0.00     0.100 A 
HETATM   12  C8  LIG X 999      46.746 124.380  22.655  1.00  0.00    -0.024 A 
HETATM   13  C9  LIG X 999      46.727 123.391  21.720  1.00  0.00    -0.024 A 
HETATM   14  C15 LIG X 999      45.421 124.515  23.296  1.00  0.00     0.276 C 
HETATM   15  C12 LIG X 999      45.386 122.772  21.646  1.00  0.00     0.276 C 
HETATM   16  N4  LIG X 999      44.599 123.380  22.766  1.00  0.00    -0.067 N 
HETATM   17  C13 LIG X 999      44.376 122.375  23.832  1.00  0.00     0.272 C 
HETATM   18  C14 LIG X 999      43.288 123.866  22.280  1.00  0.00     0.272 C 
BRANCH  11  19
HETATM   19  O1  LIG X 999      52.590 126.018  21.804  1.00  0.00    -0.353 OA
HETATM   20  C4  LIG X 999      52.836 126.911  22.884  1.00  0.00     0.210 C 
ENDBRANCH  11  19
ENDBRANCH   1   4
TORSDOF 2
