REMARK VINA RESULT:      -5.6      3.210      7.150
REMARK  7 active torsions:
REMARK  status: ('A' for Active; 'I' for Inactive)
REMARK    1  A    between atoms: O1_2  and  C1_3 
REMARK    2  A    between atoms: C1_3  and  O2_18 
REMARK    3  A    between atoms: N1_4  and  C2_5 
REMARK    4  A    between atoms: C3_6  and  N2_7 
REMARK    5  A    between atoms: O2_18  and  C12_19 
REMARK    6  A    between atoms: C12_19  and  C14_21 
REMARK    7  A    between atoms: C14_21  and  O3_22 
ROOT
HETATM    1  N2  LIG X 999      42.536 127.979  24.230  1.00  0.00    -0.070 NA
HETATM    2  N3  LIG X 999      41.383 127.668  23.929  1.00  0.00    -0.162 NA
HETATM    3  N4  LIG X 999      40.229 127.365  23.628  1.00  0.00     0.068 N 
ENDROOT
BRANCH   1   4
HETATM    4  C3  LIG X 999      43.688 127.309  23.699  1.00  0.00     0.122 A 
HETATM    5  C2  LIG X 999      44.562 127.903  22.750  1.00  0.00     0.094 A 
HETATM    6  C11 LIG X 999      45.736 127.235  22.376  1.00  0.00     0.046 A 
HETATM    7  C10 LIG X 999      46.023 125.959  22.878  1.00  0.00    -0.024 A 
HETATM    8  C5  LIG X 999      45.125 125.341  23.776  1.00  0.00    -0.024 A 
HETATM    9  C9  LIG X 999      47.190 125.283  22.486  1.00  0.00     0.012 A 
HETATM   10  C4  LIG X 999      43.965 126.021  24.175  1.00  0.00     0.049 A 
HETATM   11  C6  LIG X 999      45.408 124.057  24.269  1.00  0.00     0.012 A 
HETATM   12  C7  LIG X 999      46.572 123.394  23.873  1.00  0.00     0.001 A 
HETATM   13  C8  LIG X 999      47.462 124.006  22.984  1.00  0.00     0.001 A 
BRANCH   5  14
HETATM   14  N1  LIG X 999      44.281 129.160  22.121  1.00  0.00    -0.200 NA
HETATM   15  C1  LIG X 999      44.308 130.307  22.733  1.00  0.00     0.285 C 
BRANCH  15  16
HETATM   16  O1  LIG X 999      44.625 130.372  24.087  1.00  0.00    -0.325 OA
HETATM   17  H1  LIG X 999      44.437 131.212  24.620  1.00  0.00     0.221 HD
ENDBRANCH  15  16
BRANCH  15  18
HETATM   18  O2  LIG X 999      44.009 131.499  22.053  1.00  0.00    -0.308 OA
BRANCH  18  19
HETATM   19  C12 LIG X 999      43.629 131.635  20.675  1.00  0.00     0.152 C 
HETATM   20  C13 LIG X 999      42.375 132.500  20.495  1.00  0.00     0.042 C 
BRANCH  19  21
HETATM   21  C14 LIG X 999      44.807 132.085  19.792  1.00  0.00     0.199 C 
BRANCH  21  22
HETATM   22  O3  LIG X 999      45.242 131.035  18.955  1.00  0.00    -0.393 OA
HETATM   23  C15 LIG X 999      45.000 131.375  17.609  1.00  0.00     0.201 C 
ENDBRANCH  21  22
ENDBRANCH  19  21
ENDBRANCH  18  19
ENDBRANCH  15  18
ENDBRANCH   5  14
ENDBRANCH   1   4
TORSDOF 7
