REMARK VINA RESULT:      -6.0      2.790      4.451
REMARK  7 active torsions:
REMARK  status: ('A' for Active; 'I' for Inactive)
REMARK    1  A    between atoms: S1_2  and  C1_3 
REMARK    2  A    between atoms: C1_3  and  N2_11 
REMARK    3  A    between atoms: N1_4  and  C2_6 
REMARK    4  A    between atoms: C2_6  and  C3_7 
REMARK    5  A    between atoms: C3_7  and  C4_8 
REMARK    6  A    between atoms: C4_8  and  S2_9 
REMARK    7  A    between atoms: N2_11  and  C5_14 
ROOT
HETATM    1  N2  LIG X 999      42.581 131.829  22.436  1.00  0.00     0.006 N 
HETATM    2  H10 LIG X 999      41.630 131.404  22.341  1.00  0.00     0.293 HD
HETATM    3  H11 LIG X 999      42.432 132.861  22.530  1.00  0.00     0.293 HD
ENDROOT
BRANCH   1   4
HETATM    4  C1  LIG X 999      43.222 131.333  23.639  1.00  0.00     0.240 C 
HETATM    5  N1  LIG X 999      43.070 130.118  24.078  1.00  0.00    -0.365 N 
HETATM    6  H2  LIG X 999      43.558 129.851  24.947  1.00  0.00     0.161 HD
BRANCH   4   7
HETATM    7  S1  LIG X 999      44.204 132.478  24.625  1.00  0.00    -0.100 SA
HETATM    8  H1  LIG X 999      43.972 133.546  23.738  1.00  0.00     0.110 HD
ENDBRANCH   4   7
BRANCH   5   9
HETATM    9  C2  LIG X 999      42.315 129.069  23.415  1.00  0.00     0.122 C 
BRANCH   9  10
HETATM   10  C3  LIG X 999      41.801 128.056  24.447  1.00  0.00     0.029 C 
BRANCH  10  11
HETATM   11  C4  LIG X 999      40.874 127.004  23.827  1.00  0.00     0.072 C 
BRANCH  11  12
HETATM   12  S2  LIG X 999      39.135 127.279  24.298  1.00  0.00    -0.182 SA
HETATM   13  H9  LIG X 999      39.050 128.496  23.597  1.00  0.00     0.101 HD
ENDBRANCH  11  12
ENDBRANCH  10  11
ENDBRANCH   9  10
ENDBRANCH   5   9
ENDBRANCH   1   4
BRANCH   1  14
HETATM   14  C5  LIG X 999      43.395 131.616  21.262  1.00  0.00     0.141 A 
HETATM   15  C6  LIG X 999      44.724 131.174  21.389  1.00  0.00     0.038 A 
HETATM   16  C7  LIG X 999      45.521 130.970  20.259  1.00  0.00     0.014 A 
HETATM   17  C8  LIG X 999      44.993 131.183  18.978  1.00  0.00    -0.026 A 
HETATM   18  C9  LIG X 999      45.786 130.988  17.837  1.00  0.00     0.012 A 
HETATM   19  C13 LIG X 999      43.646 131.591  18.834  1.00  0.00    -0.024 A 
HETATM   20  C10 LIG X 999      45.247 131.195  16.564  1.00  0.00     0.001 A 
HETATM   21  C11 LIG X 999      43.916 131.596  16.421  1.00  0.00     0.001 A 
HETATM   22  C12 LIG X 999      43.116 131.793  17.550  1.00  0.00     0.012 A 
HETATM   23  C14 LIG X 999      42.855 131.792  19.974  1.00  0.00     0.049 A 
ENDBRANCH   1  14
TORSDOF 7
