REMARK VINA RESULT:      -4.5      2.507      6.558
REMARK  5 active torsions:
REMARK  status: ('A' for Active; 'I' for Inactive)
REMARK    1  A    between atoms: C3_3  and  C4_4 
REMARK    2  A    between atoms: C4_4  and  S1_5 
REMARK    3  A    between atoms: S1_5  and  C5_6 
REMARK    4  A    between atoms: C6_7  and  N1_8 
REMARK    5  A    between atoms: C10_12  and  N2_13 
ROOT
HETATM    1  C1  LIG X 999      47.032 129.968  14.850  1.00  0.00     0.112 C 
HETATM    2  C2  LIG X 999      46.341 130.292  16.097  1.00  0.00    -0.110 C 
HETATM    3  C3  LIG X 999      45.770 130.567  17.122  1.00  0.00    -0.097 C 
ENDROOT
BRANCH   3   4
HETATM    4  C4  LIG X 999      45.076 130.910  18.365  1.00  0.00     0.173 C 
BRANCH   4   5
HETATM    5  S1  LIG X 999      46.188 130.703  19.797  1.00  0.00    -0.115 SA
BRANCH   5   6
HETATM    6  C5  LIG X 999      44.855 130.500  21.009  1.00  0.00     0.038 A 
HETATM    7  C6  LIG X 999      43.905 131.533  21.177  1.00  0.00     0.043 A 
HETATM    8  C7  LIG X 999      42.887 131.390  22.122  1.00  0.00     0.031 A 
HETATM    9  C8  LIG X 999      42.788 130.243  22.904  1.00  0.00     0.017 A 
HETATM   10  C9  LIG X 999      43.712 129.192  22.765  1.00  0.00     0.002 A 
HETATM   11  C10 LIG X 999      43.625 128.009  23.560  1.00  0.00     0.045 A 
HETATM   12  C14 LIG X 999      44.748 129.314  21.782  1.00  0.00    -0.004 A 
HETATM   13  C11 LIG X 999      44.533 126.971  23.303  1.00  0.00     0.003 A 
HETATM   14  C12 LIG X 999      45.508 127.090  22.364  1.00  0.00    -0.021 A 
HETATM   15  C18 LIG X 999      44.657 125.663  23.995  1.00  0.00     0.278 C 
HETATM   16  C13 LIG X 999      45.651 128.242  21.600  1.00  0.00     0.023 A 
HETATM   17  C15 LIG X 999      46.369 125.890  22.340  1.00  0.00     0.276 C 
HETATM   18  N3  LIG X 999      45.718 124.907  23.259  1.00  0.00    -0.067 N 
HETATM   19  C16 LIG X 999      45.108 123.807  22.475  1.00  0.00     0.272 C 
HETATM   20  C17 LIG X 999      46.707 124.336  24.203  1.00  0.00     0.272 C 
BRANCH   7  21
HETATM   21  N1  LIG X 999      43.941 132.729  20.385  1.00  0.00    -0.398 N 
HETATM   22  H6  LIG X 999      43.184 133.445  20.415  1.00  0.00     0.156 HD
HETATM   23  H7  LIG X 999      44.753 132.925  19.759  1.00  0.00     0.156 HD
ENDBRANCH   7  21
BRANCH  11  24
HETATM   24  N2  LIG X 999      42.667 127.858  24.621  1.00  0.00    -0.398 N 
HETATM   25  H10 LIG X 999      41.725 127.449  24.437  1.00  0.00     0.156 HD
HETATM   26  H11 LIG X 999      42.903 128.025  25.622  1.00  0.00     0.156 HD
ENDBRANCH  11  24
ENDBRANCH   5   6
ENDBRANCH   4   5
ENDBRANCH   3   4
TORSDOF 5
