REMARK VINA RESULT:      -1.8      6.015      7.518
REMARK  4 active torsions:
REMARK  status: ('A' for Active; 'I' for Inactive)
REMARK    1  A    between atoms: C5_5  and  O1_6 
REMARK    2  A    between atoms: O1_6  and  C6_7 
REMARK       I    between atoms: C6_7  and  N1_9 
REMARK    3  A    between atoms: C9_12  and  N2_13 
REMARK    4  A    between atoms: C11_18  and  N5_19 
ROOT
HETATM    1  N2  LIG X 999      45.774 129.829  20.446  1.00  0.00    -0.068 NA
HETATM    2  N3  LIG X 999      45.475 130.410  19.402  1.00  0.00    -0.162 NA
HETATM    3  N4  LIG X 999      45.179 130.986  18.356  1.00  0.00     0.068 N 
ENDROOT
BRANCH   1   4
HETATM    4  C9  LIG X 999      44.914 129.797  21.598  1.00  0.00     0.151 C 
HETATM    5  C5  LIG X 999      45.051 128.672  22.450  1.00  0.00     0.114 C 
HETATM    6  C4  LIG X 999      44.647 128.624  23.810  1.00  0.00     0.040 C 
HETATM    7  C3  LIG X 999      44.383 129.727  24.625  1.00  0.00     0.003 C 
HETATM    8  C2  LIG X 999      45.017 130.963  24.477  1.00  0.00     0.000 C 
HETATM    9  C1  LIG X 999      44.329 132.171  24.615  1.00  0.00     0.000 C 
HETATM   10  C13 LIG X 999      42.976 132.359  24.273  1.00  0.00     0.002 C 
HETATM   11  C12 LIG X 999      42.218 131.542  23.408  1.00  0.00     0.036 C 
HETATM   12  C11 LIG X 999      42.745 130.630  22.462  1.00  0.00     0.117 C 
HETATM   13  C10 LIG X 999      43.985 130.847  21.828  1.00  0.00     0.100 C 
HETATM   14 CL1  LIG X 999      44.398 132.494  21.335  1.00  0.00    -0.079 Cl
BRANCH   5  15
HETATM   15  O1  LIG X 999      45.660 127.539  21.888  1.00  0.00    -0.259 OA
BRANCH  15  16
HETATM   16  C6  LIG X 999      45.307 126.212  22.175  1.00  0.00     0.367 C 
HETATM   17  O2  LIG X 999      44.096 125.859  22.164  1.00  0.00    -0.238 OA
HETATM   18  N1  LIG X 999      46.336 125.239  22.425  1.00  0.00    -0.336 N 
HETATM   19  C7  LIG X 999      45.973 123.847  22.703  1.00  0.00     0.154 C 
HETATM   20  C8  LIG X 999      47.739 125.660  22.404  1.00  0.00     0.154 C 
ENDBRANCH  15  16
ENDBRANCH   5  15
BRANCH  12  21
HETATM   21  N5  LIG X 999      42.006 129.451  22.106  1.00  0.00    -0.071 NA
HETATM   22  N6  LIG X 999      41.482 128.721  22.949  1.00  0.00    -0.162 NA
HETATM   23  N7  LIG X 999      40.958 127.990  23.788  1.00  0.00     0.068 N 
ENDBRANCH  12  21
ENDBRANCH   1   4
TORSDOF 4
