MODEL 1
REMARK VINA RESULT:      -7.7      0.000      0.000
REMARK  1 active torsions:
REMARK  status: ('A' for Active; 'I' for Inactive)
REMARK    1  A    between atoms: C11_13  and  N2_14 
ROOT
HETATM    1  N2  LIG X 999      47.554 129.514  14.406  1.00  0.00    -0.053 NA
HETATM    2  N3  LIG X 999      47.800 130.168  13.392  1.00  0.00    -0.160 NA
HETATM    3  N4  LIG X 999      48.052 130.813  12.376  1.00  0.00     0.068 N 
ENDROOT
BRANCH   1   4
HETATM    4  C11 LIG X 999      46.693 129.993  15.446  1.00  0.00     0.175 A 
HETATM    5  C10 LIG X 999      45.466 130.651  15.303  1.00  0.00     0.026 A 
HETATM    6  C5  LIG X 999      45.054 130.890  16.574  1.00  0.00     0.017 A 
HETATM    7  C9  LIG X 999      44.674 131.064  14.224  1.00  0.00     0.016 A 
HETATM    8  C4  LIG X 999      45.970 130.408  17.445  1.00  0.00     0.046 A 
HETATM    9  C6  LIG X 999      43.882 131.526  16.916  1.00  0.00     0.005 A 
HETATM   10  C3  LIG X 999      45.768 130.536  18.900  1.00  0.00     0.033 A 
HETATM   11  N5  LIG X 999      46.994 129.848  16.767  1.00  0.00    -0.337 N 
HETATM   12  C2  LIG X 999      44.644 131.148  19.340  1.00  0.00     0.034 A 
HETATM   13  C1  LIG X 999      43.624 131.684  18.372  1.00  0.00     0.059 A 
HETATM   14  N1  LIG X 999      42.548 132.269  18.793  1.00  0.00    -0.300 NA
HETATM   15  H1  LIG X 999      42.350 132.390  19.812  1.00  0.00     0.187 HD
HETATM   16  H7  LIG X 999      47.842 129.396  17.173  1.00  0.00     0.167 HD
HETATM   17  C7  LIG X 999      43.055 131.958  15.859  1.00  0.00     0.015 A 
HETATM   18  C8  LIG X 999      43.456 131.724  14.516  1.00  0.00     0.002 A 
ENDBRANCH   1   4
TORSDOF 1
ENDMDL
MODEL 2
REMARK VINA RESULT:      -7.4      1.899      3.728
REMARK  1 active torsions:
REMARK  status: ('A' for Active; 'I' for Inactive)
REMARK    1  A    between atoms: C11_13  and  N2_14 
ROOT
HETATM    1  N2  LIG X 999      46.210 130.507  16.125  1.00  0.00    -0.053 NA
HETATM    2  N3  LIG X 999      46.130 130.748  14.921  1.00  0.00    -0.160 NA
HETATM    3  N4  LIG X 999      46.060 130.984  13.716  1.00  0.00     0.068 N 
ENDROOT
BRANCH   1   4
HETATM    4  C11 LIG X 999      45.231 130.952  17.071  1.00  0.00     0.175 A 
HETATM    5  C10 LIG X 999      45.331 130.950  18.467  1.00  0.00     0.026 A 
HETATM    6  C5  LIG X 999      44.150 131.466  18.897  1.00  0.00     0.017 A 
HETATM    7  C9  LIG X 999      46.302 130.563  19.399  1.00  0.00     0.016 A 
HETATM    8  C4  LIG X 999      43.374 131.767  17.830  1.00  0.00     0.046 A 
HETATM    9  C6  LIG X 999      43.805 131.652  20.217  1.00  0.00     0.005 A 
HETATM   10  C3  LIG X 999      42.030 132.345  18.016  1.00  0.00     0.033 A 
HETATM   11  N5  LIG X 999      44.024 131.456  16.690  1.00  0.00    -0.337 N 
HETATM   12  C2  LIG X 999      41.596 132.567  19.278  1.00  0.00     0.034 A 
HETATM   13  C1  LIG X 999      42.459 132.233  20.465  1.00  0.00     0.059 A 
HETATM   14  N1  LIG X 999      42.044 132.446  21.672  1.00  0.00    -0.300 NA
HETATM   15  H1  LIG X 999      41.101 132.854  21.866  1.00  0.00     0.187 HD
HETATM   16  H7  LIG X 999      43.673 131.577  15.715  1.00  0.00     0.167 HD
HETATM   17  C7  LIG X 999      44.756 131.275  21.187  1.00  0.00     0.015 A 
HETATM   18  C8  LIG X 999      46.002 130.731  20.773  1.00  0.00     0.002 A 
ENDBRANCH   1   4
TORSDOF 1
ENDMDL
MODEL 3
REMARK VINA RESULT:      -7.2      2.308      3.248
REMARK  1 active torsions:
REMARK  status: ('A' for Active; 'I' for Inactive)
REMARK    1  A    between atoms: C11_13  and  N2_14 
ROOT
HETATM    1  N2  LIG X 999      46.183 130.415  16.819  1.00  0.00    -0.053 NA
HETATM    2  N3  LIG X 999      46.252 131.226  15.895  1.00  0.00    -0.160 NA
HETATM    3  N4  LIG X 999      46.328 132.028  14.966  1.00  0.00     0.068 N 
ENDROOT
BRANCH   1   4
HETATM    4  C11 LIG X 999      45.518 130.705  18.055  1.00  0.00     0.175 A 
HETATM    5  C10 LIG X 999      44.259 131.290  18.230  1.00  0.00     0.026 A 
HETATM    6  C5  LIG X 999      44.090 131.346  19.576  1.00  0.00     0.017 A 
HETATM    7  C9  LIG X 999      43.256 131.773  17.381  1.00  0.00     0.016 A 
HETATM    8  C4  LIG X 999      45.178 130.827  20.190  1.00  0.00     0.046 A 
HETATM    9  C6  LIG X 999      42.979 131.854  20.210  1.00  0.00     0.005 A 
HETATM   10  C3  LIG X 999      45.256 130.767  21.661  1.00  0.00     0.033 A 
HETATM   11  N5  LIG X 999      46.075 130.424  19.266  1.00  0.00    -0.337 N 
HETATM   12  C2  LIG X 999      44.212 131.242  22.379  1.00  0.00     0.034 A 
HETATM   13  C1  LIG X 999      43.001 131.819  21.696  1.00  0.00     0.059 A 
HETATM   14  N1  LIG X 999      42.001 132.273  22.383  1.00  0.00    -0.300 NA
HETATM   15  H1  LIG X 999      41.999 132.257  23.428  1.00  0.00     0.187 HD
HETATM   16  H7  LIG X 999      47.006 129.987  19.444  1.00  0.00     0.167 HD
HETATM   17  C7  LIG X 999      41.944 132.351  19.391  1.00  0.00     0.015 A 
HETATM   18  C8  LIG X 999      42.088 132.307  17.978  1.00  0.00     0.002 A 
ENDBRANCH   1   4
TORSDOF 1
ENDMDL
MODEL 4
REMARK VINA RESULT:      -7.0      1.700      6.266
REMARK  1 active torsions:
REMARK  status: ('A' for Active; 'I' for Inactive)
REMARK    1  A    between atoms: C11_13  and  N2_14 
ROOT
HETATM    1  N2  LIG X 999      41.854 132.865  20.548  1.00  0.00    -0.053 NA
HETATM    2  N3  LIG X 999      41.938 132.559  21.738  1.00  0.00    -0.160 NA
HETATM    3  N4  LIG X 999      42.013 132.262  22.929  1.00  0.00     0.068 N 
ENDROOT
BRANCH   1   4
HETATM    4  C11 LIG X 999      42.719 132.318  19.545  1.00  0.00     0.175 A 
HETATM    5  C10 LIG X 999      43.950 131.680  19.736  1.00  0.00     0.026 A 
HETATM    6  C5  LIG X 999      44.364 131.352  18.486  1.00  0.00     0.017 A 
HETATM    7  C9  LIG X 999      44.745 131.354  20.842  1.00  0.00     0.016 A 
HETATM    8  C4  LIG X 999      43.445 131.762  17.582  1.00  0.00     0.046 A 
HETATM    9  C6  LIG X 999      45.541 130.701  18.192  1.00  0.00     0.005 A 
HETATM   10  C3  LIG X 999      43.648 131.529  16.141  1.00  0.00     0.033 A 
HETATM   11  N5  LIG X 999      42.417 132.363  18.218  1.00  0.00    -0.337 N 
HETATM   12  C2  LIG X 999      44.777 130.895  15.747  1.00  0.00     0.034 A 
HETATM   13  C1  LIG X 999      45.800 130.438  16.751  1.00  0.00     0.059 A 
HETATM   14  N1  LIG X 999      46.880 129.831  16.374  1.00  0.00    -0.300 NA
HETATM   15  H1  LIG X 999      47.079 129.638  15.366  1.00  0.00     0.187 HD
HETATM   16  H7  LIG X 999      41.566 132.778  17.781  1.00  0.00     0.167 HD
HETATM   17  C7  LIG X 999      46.371 130.354  19.277  1.00  0.00     0.015 A 
HETATM   18  C8  LIG X 999      45.968 130.682  20.600  1.00  0.00     0.002 A 
ENDBRANCH   1   4
TORSDOF 1
ENDMDL
MODEL 5
REMARK VINA RESULT:      -6.7      2.891      6.108
REMARK  1 active torsions:
REMARK  status: ('A' for Active; 'I' for Inactive)
REMARK    1  A    between atoms: C11_13  and  N2_14 
ROOT
HETATM    1  N2  LIG X 999      44.529 131.371  22.958  1.00  0.00    -0.053 NA
HETATM    2  N3  LIG X 999      43.559 130.981  23.609  1.00  0.00    -0.160 NA
HETATM    3  N4  LIG X 999      42.597 130.594  24.270  1.00  0.00     0.068 N 
ENDROOT
BRANCH   1   4
HETATM    4  C11 LIG X 999      44.573 131.315  21.527  1.00  0.00     0.175 A 
HETATM    5  C10 LIG X 999      43.599 131.759  20.625  1.00  0.00     0.026 A 
HETATM    6  C5  LIG X 999      44.115 131.484  19.400  1.00  0.00     0.017 A 
HETATM    7  C9  LIG X 999      42.340 132.363  20.732  1.00  0.00     0.016 A 
HETATM    8  C4  LIG X 999      45.331 130.907  19.540  1.00  0.00     0.046 A 
HETATM    9  C6  LIG X 999      43.490 131.754  18.203  1.00  0.00     0.005 A 
HETATM   10  C3  LIG X 999      46.114 130.503  18.358  1.00  0.00     0.033 A 
HETATM   11  N5  LIG X 999      45.633 130.793  20.850  1.00  0.00    -0.337 N 
HETATM   12  C2  LIG X 999      45.586 130.726  17.132  1.00  0.00     0.034 A 
HETATM   13  C1  LIG X 999      44.235 131.369  16.975  1.00  0.00     0.059 A 
HETATM   14  N1  LIG X 999      43.730 131.582  15.802  1.00  0.00    -0.300 NA
HETATM   15  H1  LIG X 999      44.238 131.318  14.928  1.00  0.00     0.187 HD
HETATM   16  H7  LIG X 999      46.503 130.387  21.260  1.00  0.00     0.167 HD
HETATM   17  C7  LIG X 999      42.219 132.362  18.266  1.00  0.00     0.015 A 
HETATM   18  C8  LIG X 999      41.650 132.665  19.533  1.00  0.00     0.002 A 
ENDBRANCH   1   4
TORSDOF 1
ENDMDL
MODEL 6
REMARK VINA RESULT:      -5.3      8.795     10.543
REMARK  1 active torsions:
REMARK  status: ('A' for Active; 'I' for Inactive)
REMARK    1  A    between atoms: C11_13  and  N2_14 
ROOT
HETATM    1  N2  LIG X 999      50.651 133.141  24.439  1.00  0.00    -0.053 NA
HETATM    2  N3  LIG X 999      51.621 132.398  24.290  1.00  0.00    -0.160 NA
HETATM    3  N4  LIG X 999      52.587 131.649  24.152  1.00  0.00     0.068 N 
ENDROOT
BRANCH   1   4
HETATM    4  C11 LIG X 999      50.376 134.239  23.561  1.00  0.00     0.175 A 
HETATM    5  C10 LIG X 999      51.144 135.393  23.371  1.00  0.00     0.026 A 
HETATM    6  C5  LIG X 999      50.460 136.113  22.446  1.00  0.00     0.017 A 
HETATM    7  C9  LIG X 999      52.345 135.890  23.892  1.00  0.00     0.016 A 
HETATM    8  C4  LIG X 999      49.340 135.443  22.088  1.00  0.00     0.046 A 
HETATM    9  C6  LIG X 999      50.852 137.337  21.952  1.00  0.00     0.005 A 
HETATM   10  C3  LIG X 999      48.411 136.005  21.092  1.00  0.00     0.033 A 
HETATM   11  N5  LIG X 999      49.269 134.279  22.768  1.00  0.00    -0.337 N 
HETATM   12  C2  LIG X 999      48.706 137.208  20.545  1.00  0.00     0.034 A 
HETATM   13  C1  LIG X 999      49.952 137.953  20.941  1.00  0.00     0.059 A 
HETATM   14  N1  LIG X 999      50.236 139.103  20.418  1.00  0.00    -0.300 NA
HETATM   15  H1  LIG X 999      49.615 139.552  19.707  1.00  0.00     0.187 HD
HETATM   16  H7  LIG X 999      48.518 133.557  22.699  1.00  0.00     0.167 HD
HETATM   17  C7  LIG X 999      52.056 137.874  22.451  1.00  0.00     0.015 A 
HETATM   18  C8  LIG X 999      52.798 137.146  23.420  1.00  0.00     0.002 A 
ENDBRANCH   1   4
TORSDOF 1
ENDMDL
MODEL 7
REMARK VINA RESULT:      -5.1      8.673     10.254
REMARK  1 active torsions:
REMARK  status: ('A' for Active; 'I' for Inactive)
REMARK    1  A    between atoms: C11_13  and  N2_14 
ROOT
HETATM    1  N2  LIG X 999      50.278 132.839  24.566  1.00  0.00    -0.053 NA
HETATM    2  N3  LIG X 999      51.035 131.875  24.462  1.00  0.00    -0.160 NA
HETATM    3  N4  LIG X 999      51.785 130.905  24.366  1.00  0.00     0.068 N 
ENDROOT
BRANCH   1   4
HETATM    4  C11 LIG X 999      50.530 134.095  23.924  1.00  0.00     0.175 A 
HETATM    5  C10 LIG X 999      49.757 134.721  22.940  1.00  0.00     0.026 A 
HETATM    6  C5  LIG X 999      50.418 135.875  22.667  1.00  0.00     0.017 A 
HETATM    7  C9  LIG X 999      48.571 134.420  22.260  1.00  0.00     0.016 A 
HETATM    8  C4  LIG X 999      51.528 135.955  23.437  1.00  0.00     0.046 A 
HETATM    9  C6  LIG X 999      50.013 136.816  21.747  1.00  0.00     0.005 A 
HETATM   10  C3  LIG X 999      52.431 137.115  23.339  1.00  0.00     0.033 A 
HETATM   11  N5  LIG X 999      51.616 134.861  24.223  1.00  0.00    -0.337 N 
HETATM   12  C2  LIG X 999      52.122 138.098  22.462  1.00  0.00     0.034 A 
HETATM   13  C1  LIG X 999      50.887 138.011  21.606  1.00  0.00     0.059 A 
HETATM   14  N1  LIG X 999      50.590 138.951  20.767  1.00  0.00    -0.300 NA
HETATM   15  H1  LIG X 999      51.192 139.798  20.653  1.00  0.00     0.187 HD
HETATM   16  H7  LIG X 999      52.365 134.647  24.918  1.00  0.00     0.167 HD
HETATM   17  C7  LIG X 999      48.822 136.551  21.040  1.00  0.00     0.015 A 
HETATM   18  C8  LIG X 999      48.105 135.352  21.301  1.00  0.00     0.002 A 
ENDBRANCH   1   4
TORSDOF 1
ENDMDL
MODEL 8
REMARK VINA RESULT:      -5.0      8.609     10.124
REMARK  1 active torsions:
REMARK  status: ('A' for Active; 'I' for Inactive)
REMARK    1  A    between atoms: C11_13  and  N2_14 
ROOT
HETATM    1  N2  LIG X 999      52.052 134.789  24.596  1.00  0.00    -0.053 NA
HETATM    2  N3  LIG X 999      52.631 133.744  24.298  1.00  0.00    -0.160 NA
HETATM    3  N4  LIG X 999      53.212 132.699  24.012  1.00  0.00     0.068 N 
ENDROOT
BRANCH   1   4
HETATM    4  C11 LIG X 999      51.380 135.605  23.629  1.00  0.00     0.175 A 
HETATM    5  C10 LIG X 999      50.207 135.304  22.927  1.00  0.00     0.026 A 
HETATM    6  C5  LIG X 999      49.988 136.391  22.143  1.00  0.00     0.017 A 
HETATM    7  C9  LIG X 999      49.320 134.222  22.882  1.00  0.00     0.016 A 
HETATM    8  C4  LIG X 999      50.965 137.304  22.352  1.00  0.00     0.046 A 
HETATM    9  C6  LIG X 999      48.931 136.534  21.273  1.00  0.00     0.005 A 
HETATM   10  C3  LIG X 999      50.967 138.585  21.623  1.00  0.00     0.033 A 
HETATM   11  N5  LIG X 999      51.837 136.836  23.269  1.00  0.00    -0.337 N 
HETATM   12  C2  LIG X 999      49.968 138.824  20.741  1.00  0.00     0.034 A 
HETATM   13  C1  LIG X 999      48.881 137.809  20.509  1.00  0.00     0.059 A 
HETATM   14  N1  LIG X 999      47.925 138.038  19.666  1.00  0.00    -0.300 NA
HETATM   15  H1  LIG X 999      47.874 138.927  19.120  1.00  0.00     0.187 HD
HETATM   16  H7  LIG X 999      52.689 137.320  23.628  1.00  0.00     0.167 HD
HETATM   17  C7  LIG X 999      48.013 135.467  21.197  1.00  0.00     0.015 A 
HETATM   18  C8  LIG X 999      48.212 134.314  22.004  1.00  0.00     0.002 A 
ENDBRANCH   1   4
TORSDOF 1
ENDMDL
