REMARK VINA RESULT:      -4.9      3.523      6.793
REMARK  3 active torsions:
REMARK  status: ('A' for Active; 'I' for Inactive)
REMARK    1  A    between atoms: C3_3  and  N1_4 
REMARK    2  A    between atoms: C3_3  and  C4_7 
REMARK    3  A    between atoms: C3_3  and  C14_17 
ROOT
HETATM    1  C1  LIG X 999      45.156 132.902  23.913  1.00  0.00     0.015 C 
HETATM    2  C2  LIG X 999      44.519 132.108  23.265  1.00  0.00    -0.075 C 
HETATM    3  C3  LIG X 999      43.732 131.132  22.465  1.00  0.00     0.183 C 
ENDROOT
BRANCH   3   4
HETATM    4  N1  LIG X 999      42.350 131.632  22.426  1.00  0.00    -0.085 NA
HETATM    5  N2  LIG X 999      41.974 132.458  21.591  1.00  0.00    -0.165 NA
HETATM    6  N3  LIG X 999      41.599 133.281  20.757  1.00  0.00     0.068 N 
ENDBRANCH   3   4
BRANCH   3   7
HETATM    7  C4  LIG X 999      44.301 131.056  21.033  1.00  0.00    -0.012 A 
HETATM    8  C5  LIG X 999      45.647 130.688  20.814  1.00  0.00     0.012 A 
HETATM    9  C6  LIG X 999      46.184 130.643  19.526  1.00  0.00     0.013 A 
HETATM   10  C7  LIG X 999      45.396 130.978  18.420  1.00  0.00    -0.026 A 
HETATM   11  C8  LIG X 999      45.930 130.937  17.122  1.00  0.00     0.012 A 
HETATM   12  C12 LIG X 999      44.052 131.369  18.614  1.00  0.00    -0.025 A 
HETATM   13  C9  LIG X 999      45.134 131.283  16.026  1.00  0.00     0.001 A 
HETATM   14  C10 LIG X 999      43.806 131.672  16.217  1.00  0.00     0.001 A 
HETATM   15  C11 LIG X 999      43.264 131.717  17.505  1.00  0.00     0.012 A 
HETATM   16  C13 LIG X 999      43.518 131.411  19.911  1.00  0.00     0.023 A 
ENDBRANCH   3   7
BRANCH   3  17
HETATM   17  C14 LIG X 999      43.742 129.714  23.176  1.00  0.00    -0.005 C 
HETATM   18  C15 LIG X 999      44.627 128.709  22.396  1.00  0.00     0.018 C 
HETATM   19  C16 LIG X 999      44.283 129.796  24.625  1.00  0.00     0.018 C 
HETATM   20  C17 LIG X 999      42.308 129.123  23.236  1.00  0.00     0.018 C 
ENDBRANCH   3  17
TORSDOF 3
