MODEL 1
REMARK VINA RESULT:      -8.4      0.000      0.000
REMARK  4 active torsions:
REMARK  status: ('A' for Active; 'I' for Inactive)
REMARK    1  A    between atoms: O1_2  and  C1_3 
REMARK    2  A    between atoms: C1_3  and  C5_11 
REMARK       I    between atoms: N1_4  and  C2_5 
REMARK    3  A    between atoms: C2_5  and  O3_7 
REMARK    4  A    between atoms: O3_7  and  C3_8 
ROOT
HETATM    1  C5  LIG X 999      44.661 131.275  19.140  1.00  0.00     0.054 A 
HETATM    2  C6  LIG X 999      43.530 131.822  18.492  1.00  0.00     0.122 A 
HETATM    3  O4  LIG X 999      42.474 132.363  19.218  1.00  0.00    -0.191 OA
HETATM    4  C7  LIG X 999      43.443 131.821  17.096  1.00  0.00     0.053 A 
HETATM    5  C8  LIG X 999      44.471 131.275  16.318  1.00  0.00    -0.023 A 
HETATM    6  C9  LIG X 999      44.384 131.272  14.917  1.00  0.00     0.012 A 
HETATM    7  C10 LIG X 999      45.417 130.724  14.152  1.00  0.00     0.001 A 
HETATM    8  C11 LIG X 999      46.540 130.176  14.777  1.00  0.00     0.001 A 
HETATM    9  C12 LIG X 999      46.636 130.172  16.170  1.00  0.00     0.012 A 
HETATM   10  C13 LIG X 999      45.606 130.720  16.951  1.00  0.00    -0.025 A 
HETATM   11  C14 LIG X 999      45.693 130.723  18.350  1.00  0.00     0.031 A 
ENDROOT
BRANCH   1  12
HETATM   12  C1  LIG X 999      44.781 131.272  20.626  1.00  0.00     0.181 C 
HETATM   13  N1  LIG X 999      43.836 130.723  21.340  1.00  0.00    -0.162 NA
HETATM   14  C2  LIG X 999      43.705 130.705  22.767  1.00  0.00     0.390 C 
HETATM   15  O2  LIG X 999      44.210 131.619  23.475  1.00  0.00    -0.236 OA
BRANCH  12  16
HETATM   16  O1  LIG X 999      45.918 131.827  21.220  1.00  0.00    -0.344 OA
HETATM   17  H1  LIG X 999      46.600 132.383  20.722  1.00  0.00     0.219 HD
ENDBRANCH  12  16
BRANCH  14  18
HETATM   18  O3  LIG X 999      42.929 129.704  23.358  1.00  0.00    -0.282 OA
BRANCH  18  19
HETATM   19  C3  LIG X 999      43.484 128.538  23.963  1.00  0.00     0.225 C 
HETATM   20 CL1  LIG X 999      44.950 128.029  23.078  1.00  0.00    -0.095 Cl
HETATM   21  C4  LIG X 999      42.456 127.417  23.932  1.00  0.00     0.057 C 
ENDBRANCH  18  19
ENDBRANCH  14  18
ENDBRANCH   1  12
TORSDOF 4
ENDMDL
MODEL 2
REMARK VINA RESULT:      -8.0      2.303      3.707
REMARK  4 active torsions:
REMARK  status: ('A' for Active; 'I' for Inactive)
REMARK    1  A    between atoms: O1_2  and  C1_3 
REMARK    2  A    between atoms: C1_3  and  C5_11 
REMARK       I    between atoms: N1_4  and  C2_5 
REMARK    3  A    between atoms: C2_5  and  O3_7 
REMARK    4  A    between atoms: O3_7  and  C3_8 
ROOT
HETATM    1  C5  LIG X 999      44.845 131.150  16.651  1.00  0.00     0.054 A 
HETATM    2  C6  LIG X 999      45.737 130.251  17.278  1.00  0.00     0.122 A 
HETATM    3  O4  LIG X 999      45.577 129.887  18.611  1.00  0.00    -0.191 OA
HETATM    4  C7  LIG X 999      46.816 129.712  16.570  1.00  0.00     0.053 A 
HETATM    5  C8  LIG X 999      47.032 130.057  15.230  1.00  0.00    -0.023 A 
HETATM    6  C9  LIG X 999      48.116 129.518  14.518  1.00  0.00     0.012 A 
HETATM    7  C10 LIG X 999      48.321 129.871  13.181  1.00  0.00     0.001 A 
HETATM    8  C11 LIG X 999      47.450 130.761  12.548  1.00  0.00     0.001 A 
HETATM    9  C12 LIG X 999      46.369 131.304  13.247  1.00  0.00     0.012 A 
HETATM   10  C13 LIG X 999      46.152 130.958  14.590  1.00  0.00    -0.025 A 
HETATM   11  C14 LIG X 999      45.070 131.496  15.301  1.00  0.00     0.031 A 
ENDROOT
BRANCH   1  12
HETATM   12  C1  LIG X 999      43.683 131.730  17.383  1.00  0.00     0.181 C 
HETATM   13  N1  LIG X 999      43.649 131.654  18.686  1.00  0.00    -0.162 NA
HETATM   14  C2  LIG X 999      42.589 132.049  19.565  1.00  0.00     0.390 C 
HETATM   15  O2  LIG X 999      41.390 132.061  19.171  1.00  0.00    -0.236 OA
BRANCH  12  16
HETATM   16  O1  LIG X 999      42.673 132.373  16.660  1.00  0.00    -0.344 OA
HETATM   17  H1  LIG X 999      42.577 133.377  16.597  1.00  0.00     0.219 HD
ENDBRANCH  12  16
BRANCH  14  18
HETATM   18  O3  LIG X 999      42.893 132.337  20.898  1.00  0.00    -0.282 OA
BRANCH  18  19
HETATM   19  C3  LIG X 999      43.099 131.332  21.889  1.00  0.00     0.225 C 
HETATM   20 CL1  LIG X 999      42.593 131.939  23.490  1.00  0.00    -0.095 Cl
HETATM   21  C4  LIG X 999      44.574 130.959  21.929  1.00  0.00     0.057 C 
ENDBRANCH  18  19
ENDBRANCH  14  18
ENDBRANCH   1  12
TORSDOF 4
ENDMDL
MODEL 3
REMARK VINA RESULT:      -7.6      3.327      6.817
REMARK  4 active torsions:
REMARK  status: ('A' for Active; 'I' for Inactive)
REMARK    1  A    between atoms: O1_2  and  C1_3 
REMARK    2  A    between atoms: C1_3  and  C5_11 
REMARK       I    between atoms: N1_4  and  C2_5 
REMARK    3  A    between atoms: C2_5  and  O3_7 
REMARK    4  A    between atoms: O3_7  and  C3_8 
ROOT
HETATM    1  C5  LIG X 999      43.557 131.589  19.697  1.00  0.00     0.054 A 
HETATM    2  C6  LIG X 999      42.537 132.375  20.281  1.00  0.00     0.122 A 
HETATM    3  O4  LIG X 999      41.809 133.290  19.527  1.00  0.00    -0.191 OA
HETATM    4  C7  LIG X 999      42.242 132.256  21.643  1.00  0.00     0.053 A 
HETATM    5  C8  LIG X 999      42.955 131.362  22.451  1.00  0.00    -0.023 A 
HETATM    6  C9  LIG X 999      42.661 131.243  23.819  1.00  0.00     0.012 A 
HETATM    7  C10 LIG X 999      43.380 130.346  24.614  1.00  0.00     0.001 A 
HETATM    8  C11 LIG X 999      44.394 129.565  24.053  1.00  0.00     0.001 A 
HETATM    9  C12 LIG X 999      44.695 129.676  22.693  1.00  0.00     0.012 A 
HETATM   10  C13 LIG X 999      43.980 130.573  21.883  1.00  0.00    -0.025 A 
HETATM   11  C14 LIG X 999      44.273 130.692  20.517  1.00  0.00     0.031 A 
ENDROOT
BRANCH   1  12
HETATM   12  C1  LIG X 999      43.883 131.693  18.246  1.00  0.00     0.181 C 
HETATM   13  N1  LIG X 999      45.079 131.369  17.837  1.00  0.00    -0.162 NA
HETATM   14  C2  LIG X 999      45.625 131.493  16.518  1.00  0.00     0.390 C 
HETATM   15  O2  LIG X 999      45.193 132.369  15.718  1.00  0.00    -0.236 OA
BRANCH  12  16
HETATM   16  O1  LIG X 999      42.889 132.102  17.351  1.00  0.00    -0.344 OA
HETATM   17  H1  LIG X 999      42.987 132.885  16.720  1.00  0.00     0.219 HD
ENDBRANCH  12  16
BRANCH  14  18
HETATM   18  O3  LIG X 999      46.709 130.687  16.160  1.00  0.00    -0.282 OA
BRANCH  18  19
HETATM   19  C3  LIG X 999      46.634 129.672  15.162  1.00  0.00     0.225 C 
HETATM   20 CL1  LIG X 999      46.885 130.387  13.544  1.00  0.00    -0.095 Cl
HETATM   21  C4  LIG X 999      45.265 129.009  15.218  1.00  0.00     0.057 C 
ENDBRANCH  18  19
ENDBRANCH  14  18
ENDBRANCH   1  12
TORSDOF 4
ENDMDL
MODEL 4
REMARK VINA RESULT:      -7.5      3.699      7.342
REMARK  4 active torsions:
REMARK  status: ('A' for Active; 'I' for Inactive)
REMARK    1  A    between atoms: O1_2  and  C1_3 
REMARK    2  A    between atoms: C1_3  and  C5_11 
REMARK       I    between atoms: N1_4  and  C2_5 
REMARK    3  A    between atoms: C2_5  and  O3_7 
REMARK    4  A    between atoms: O3_7  and  C3_8 
ROOT
HETATM    1  C5  LIG X 999      44.132 131.381  18.816  1.00  0.00     0.054 A 
HETATM    2  C6  LIG X 999      45.317 130.851  19.378  1.00  0.00     0.122 A 
HETATM    3  O4  LIG X 999      46.353 130.388  18.573  1.00  0.00    -0.191 OA
HETATM    4  C7  LIG X 999      45.468 130.770  20.765  1.00  0.00     0.053 A 
HETATM    5  C8  LIG X 999      44.450 131.207  21.620  1.00  0.00    -0.023 A 
HETATM    6  C9  LIG X 999      44.599 131.125  23.014  1.00  0.00     0.012 A 
HETATM    7  C10 LIG X 999      43.575 131.565  23.856  1.00  0.00     0.001 A 
HETATM    8  C11 LIG X 999      42.397 132.089  23.317  1.00  0.00     0.001 A 
HETATM    9  C12 LIG X 999      42.237 132.174  21.932  1.00  0.00     0.012 A 
HETATM   10  C13 LIG X 999      43.259 131.736  21.074  1.00  0.00    -0.025 A 
HETATM   11  C14 LIG X 999      43.109 131.818  19.682  1.00  0.00     0.031 A 
ENDROOT
BRANCH   1  12
HETATM   12  C1  LIG X 999      43.952 131.486  17.339  1.00  0.00     0.181 C 
HETATM   13  N1  LIG X 999      44.894 131.047  16.550  1.00  0.00    -0.162 NA
HETATM   14  C2  LIG X 999      44.966 131.147  15.122  1.00  0.00     0.390 C 
HETATM   15  O2  LIG X 999      44.384 132.082  14.507  1.00  0.00    -0.236 OA
BRANCH  12  16
HETATM   16  O1  LIG X 999      42.762 132.020  16.834  1.00  0.00    -0.344 OA
HETATM   17  H1  LIG X 999      42.016 132.380  17.413  1.00  0.00     0.219 HD
ENDBRANCH  12  16
BRANCH  14  18
HETATM   18  O3  LIG X 999      45.768 130.239  14.425  1.00  0.00    -0.282 OA
BRANCH  18  19
HETATM   19  C3  LIG X 999      47.160 130.441  14.194  1.00  0.00     0.225 C 
HETATM   20 CL1  LIG X 999      47.408 131.247  12.619  1.00  0.00    -0.095 Cl
HETATM   21  C4  LIG X 999      47.871 129.096  14.194  1.00  0.00     0.057 C 
ENDBRANCH  18  19
ENDBRANCH  14  18
ENDBRANCH   1  12
TORSDOF 4
ENDMDL
MODEL 5
REMARK VINA RESULT:      -7.3      1.055      2.203
REMARK  4 active torsions:
REMARK  status: ('A' for Active; 'I' for Inactive)
REMARK    1  A    between atoms: O1_2  and  C1_3 
REMARK    2  A    between atoms: C1_3  and  C5_11 
REMARK       I    between atoms: N1_4  and  C2_5 
REMARK    3  A    between atoms: C2_5  and  O3_7 
REMARK    4  A    between atoms: O3_7  and  C3_8 
ROOT
HETATM    1  C5  LIG X 999      44.294 131.403  18.942  1.00  0.00     0.054 A 
HETATM    2  C6  LIG X 999      45.502 130.675  19.038  1.00  0.00     0.122 A 
HETATM    3  O4  LIG X 999      46.060 130.361  20.272  1.00  0.00    -0.191 OA
HETATM    4  C7  LIG X 999      46.174 130.262  17.883  1.00  0.00     0.053 A 
HETATM    5  C8  LIG X 999      45.664 130.566  16.615  1.00  0.00    -0.023 A 
HETATM    6  C9  LIG X 999      46.338 130.153  15.454  1.00  0.00     0.012 A 
HETATM    7  C10 LIG X 999      45.819 130.462  14.194  1.00  0.00     0.001 A 
HETATM    8  C11 LIG X 999      44.628 131.185  14.083  1.00  0.00     0.001 A 
HETATM    9  C12 LIG X 999      43.949 131.602  15.231  1.00  0.00     0.012 A 
HETATM   10  C13 LIG X 999      44.460 131.296  16.503  1.00  0.00    -0.025 A 
HETATM   11  C14 LIG X 999      43.787 131.709  17.662  1.00  0.00     0.031 A 
ENDROOT
BRANCH   1  12
HETATM   12  C1  LIG X 999      43.556 131.847  20.160  1.00  0.00     0.181 C 
HETATM   13  N1  LIG X 999      43.831 131.293  21.309  1.00  0.00    -0.162 NA
HETATM   14  C2  LIG X 999      43.174 131.496  22.566  1.00  0.00     0.390 C 
HETATM   15  O2  LIG X 999      41.964 131.852  22.615  1.00  0.00    -0.236 OA
BRANCH  12  16
HETATM   16  O1  LIG X 999      42.610 132.871  20.048  1.00  0.00    -0.344 OA
HETATM   17  H1  LIG X 999      41.643 132.778  20.326  1.00  0.00     0.219 HD
ENDBRANCH  12  16
BRANCH  14  18
HETATM   18  O3  LIG X 999      43.870 131.206  23.743  1.00  0.00    -0.282 OA
BRANCH  18  19
HETATM   19  C3  LIG X 999      43.954 129.897  24.300  1.00  0.00     0.225 C 
HETATM   20 CL1  LIG X 999      44.733 128.786  23.138  1.00  0.00    -0.095 Cl
HETATM   21  C4  LIG X 999      42.554 129.396  24.623  1.00  0.00     0.057 C 
ENDBRANCH  18  19
ENDBRANCH  14  18
ENDBRANCH   1  12
TORSDOF 4
ENDMDL
MODEL 6
REMARK VINA RESULT:      -6.2      1.875      3.140
REMARK  4 active torsions:
REMARK  status: ('A' for Active; 'I' for Inactive)
REMARK    1  A    between atoms: O1_2  and  C1_3 
REMARK    2  A    between atoms: C1_3  and  C5_11 
REMARK       I    between atoms: N1_4  and  C2_5 
REMARK    3  A    between atoms: C2_5  and  O3_7 
REMARK    4  A    between atoms: O3_7  and  C3_8 
ROOT
HETATM    1  C5  LIG X 999      44.524 131.324  16.439  1.00  0.00     0.054 A 
HETATM    2  C6  LIG X 999      44.061 131.673  15.149  1.00  0.00     0.122 A 
HETATM    3  O4  LIG X 999      42.830 132.294  14.968  1.00  0.00    -0.191 OA
HETATM    4  C7  LIG X 999      44.833 131.390  14.018  1.00  0.00     0.053 A 
HETATM    5  C8  LIG X 999      46.074 130.753  14.143  1.00  0.00    -0.023 A 
HETATM    6  C9  LIG X 999      46.849 130.466  13.008  1.00  0.00     0.012 A 
HETATM    7  C10 LIG X 999      48.086 129.830  13.146  1.00  0.00     0.001 A 
HETATM    8  C11 LIG X 999      48.555 129.475  14.414  1.00  0.00     0.001 A 
HETATM    9  C12 LIG X 999      47.792 129.754  15.550  1.00  0.00     0.012 A 
HETATM   10  C13 LIG X 999      46.548 130.394  15.424  1.00  0.00    -0.025 A 
HETATM   11  C14 LIG X 999      45.773 130.680  16.558  1.00  0.00     0.031 A 
ENDROOT
BRANCH   1  12
HETATM   12  C1  LIG X 999      43.722 131.623  17.660  1.00  0.00     0.181 C 
HETATM   13  N1  LIG X 999      44.203 131.305  18.831  1.00  0.00    -0.162 NA
HETATM   14  C2  LIG X 999      43.558 131.408  20.106  1.00  0.00     0.390 C 
HETATM   15  O2  LIG X 999      42.301 131.355  20.204  1.00  0.00    -0.236 OA
BRANCH  12  16
HETATM   16  O1  LIG X 999      42.490 132.269  17.524  1.00  0.00    -0.344 OA
HETATM   17  H1  LIG X 999      42.215 132.794  16.705  1.00  0.00     0.219 HD
ENDBRANCH  12  16
BRANCH  14  18
HETATM   18  O3  LIG X 999      44.350 131.477  21.256  1.00  0.00    -0.282 OA
BRANCH  18  19
HETATM   19  C3  LIG X 999      43.977 130.889  22.500  1.00  0.00     0.225 C 
HETATM   20 CL1  LIG X 999      44.526 131.920  23.852  1.00  0.00    -0.095 Cl
HETATM   21  C4  LIG X 999      44.614 129.512  22.619  1.00  0.00     0.057 C 
ENDBRANCH  18  19
ENDBRANCH  14  18
ENDBRANCH   1  12
TORSDOF 4
ENDMDL
MODEL 7
REMARK VINA RESULT:      -6.2      2.725      7.007
REMARK  4 active torsions:
REMARK  status: ('A' for Active; 'I' for Inactive)
REMARK    1  A    between atoms: O1_2  and  C1_3 
REMARK    2  A    between atoms: C1_3  and  C5_11 
REMARK       I    between atoms: N1_4  and  C2_5 
REMARK    3  A    between atoms: C2_5  and  O3_7 
REMARK    4  A    between atoms: O3_7  and  C3_8 
ROOT
HETATM    1  C5  LIG X 999      44.330 129.100  22.724  1.00  0.00     0.054 A 
HETATM    2  C6  LIG X 999      43.319 128.901  23.692  1.00  0.00     0.122 A 
HETATM    3  O4  LIG X 999      42.487 129.942  24.091  1.00  0.00    -0.191 OA
HETATM    4  C7  LIG X 999      43.141 127.646  24.283  1.00  0.00     0.053 A 
HETATM    5  C8  LIG X 999      43.962 126.569  23.930  1.00  0.00    -0.023 A 
HETATM    6  C9  LIG X 999      43.785 125.308  24.523  1.00  0.00     0.012 A 
HETATM    7  C10 LIG X 999      44.611 124.241  24.162  1.00  0.00     0.001 A 
HETATM    8  C11 LIG X 999      45.617 124.422  23.209  1.00  0.00     0.001 A 
HETATM    9  C12 LIG X 999      45.803 125.672  22.613  1.00  0.00     0.012 A 
HETATM   10  C13 LIG X 999      44.979 126.753  22.967  1.00  0.00    -0.025 A 
HETATM   11  C14 LIG X 999      45.156 128.011  22.374  1.00  0.00     0.031 A 
ENDROOT
BRANCH   1  12
HETATM   12  C1  LIG X 999      44.534 130.427  22.074  1.00  0.00     0.181 C 
HETATM   13  N1  LIG X 999      44.464 130.516  20.774  1.00  0.00    -0.162 NA
HETATM   14  C2  LIG X 999      44.729 131.661  19.953  1.00  0.00     0.390 C 
HETATM   15  O2  LIG X 999      45.522 132.564  20.337  1.00  0.00    -0.236 OA
BRANCH  12  16
HETATM   16  O1  LIG X 999      44.761 131.550  22.875  1.00  0.00    -0.344 OA
HETATM   17  H1  LIG X 999      44.896 131.511  23.876  1.00  0.00     0.219 HD
ENDBRANCH  12  16
BRANCH  14  18
HETATM   18  O3  LIG X 999      44.163 131.717  18.677  1.00  0.00    -0.282 OA
BRANCH  18  19
HETATM   19  C3  LIG X 999      44.927 131.619  17.476  1.00  0.00     0.225 C 
HETATM   20 CL1  LIG X 999      43.836 131.529  16.065  1.00  0.00    -0.095 Cl
HETATM   21  C4  LIG X 999      45.792 130.369  17.531  1.00  0.00     0.057 C 
ENDBRANCH  18  19
ENDBRANCH  14  18
ENDBRANCH   1  12
TORSDOF 4
ENDMDL
MODEL 8
REMARK VINA RESULT:      -6.1      2.532      6.765
REMARK  4 active torsions:
REMARK  status: ('A' for Active; 'I' for Inactive)
REMARK    1  A    between atoms: O1_2  and  C1_3 
REMARK    2  A    between atoms: C1_3  and  C5_11 
REMARK       I    between atoms: N1_4  and  C2_5 
REMARK    3  A    between atoms: C2_5  and  O3_7 
REMARK    4  A    between atoms: O3_7  and  C3_8 
ROOT
HETATM    1  C5  LIG X 999      44.220 130.979  20.784  1.00  0.00     0.054 A 
HETATM    2  C6  LIG X 999      43.138 131.382  21.599  1.00  0.00     0.122 A 
HETATM    3  O4  LIG X 999      42.382 132.508  21.290  1.00  0.00    -0.191 OA
HETATM    4  C7  LIG X 999      42.809 130.659  22.750  1.00  0.00     0.053 A 
HETATM    5  C8  LIG X 999      43.548 129.527  23.115  1.00  0.00    -0.023 A 
HETATM    6  C9  LIG X 999      43.220 128.800  24.271  1.00  0.00     0.012 A 
HETATM    7  C10 LIG X 999      43.965 127.672  24.625  1.00  0.00     0.001 A 
HETATM    8  C11 LIG X 999      45.040 127.263  23.831  1.00  0.00     0.001 A 
HETATM    9  C12 LIG X 999      45.376 127.979  22.680  1.00  0.00     0.012 A 
HETATM   10  C13 LIG X 999      44.635 129.114  22.313  1.00  0.00    -0.025 A 
HETATM   11  C14 LIG X 999      44.962 129.839  21.159  1.00  0.00     0.031 A 
ENDROOT
BRANCH   1  12
HETATM   12  C1  LIG X 999      44.584 131.730  19.548  1.00  0.00     0.181 C 
HETATM   13  N1  LIG X 999      44.328 131.202  18.383  1.00  0.00    -0.162 NA
HETATM   14  C2  LIG X 999      44.686 131.702  17.089  1.00  0.00     0.390 C 
HETATM   15  O2  LIG X 999      45.698 132.441  16.937  1.00  0.00    -0.236 OA
BRANCH  12  16
HETATM   16  O1  LIG X 999      45.161 132.998  19.666  1.00  0.00    -0.344 OA
HETATM   17  H1  LIG X 999      46.157 133.170  19.632  1.00  0.00     0.219 HD
ENDBRANCH  12  16
BRANCH  14  18
HETATM   18  O3  LIG X 999      43.947 131.284  15.978  1.00  0.00    -0.282 OA
BRANCH  18  19
HETATM   19  C3  LIG X 999      44.488 130.476  14.936  1.00  0.00     0.225 C 
HETATM   20 CL1  LIG X 999      45.233 129.007  15.627  1.00  0.00    -0.095 Cl
HETATM   21  C4  LIG X 999      45.540 131.271  14.177  1.00  0.00     0.057 C 
ENDBRANCH  18  19
ENDBRANCH  14  18
ENDBRANCH   1  12
TORSDOF 4
ENDMDL
MODEL 9
REMARK VINA RESULT:      -5.9      3.525      6.844
REMARK  4 active torsions:
REMARK  status: ('A' for Active; 'I' for Inactive)
REMARK    1  A    between atoms: O1_2  and  C1_3 
REMARK    2  A    between atoms: C1_3  and  C5_11 
REMARK       I    between atoms: N1_4  and  C2_5 
REMARK    3  A    between atoms: C2_5  and  O3_7 
REMARK    4  A    between atoms: O3_7  and  C3_8 
ROOT
HETATM    1  C5  LIG X 999      44.227 127.383  23.071  1.00  0.00     0.054 A 
HETATM    2  C6  LIG X 999      43.306 126.348  23.350  1.00  0.00     0.122 A 
HETATM    3  O4  LIG X 999      42.028 126.627  23.823  1.00  0.00    -0.191 OA
HETATM    4  C7  LIG X 999      43.666 125.009  23.166  1.00  0.00     0.053 A 
HETATM    5  C8  LIG X 999      44.944 124.672  22.706  1.00  0.00    -0.023 A 
HETATM    6  C9  LIG X 999      45.308 123.328  22.522  1.00  0.00     0.012 A 
HETATM    7  C10 LIG X 999      46.588 123.005  22.063  1.00  0.00     0.001 A 
HETATM    8  C11 LIG X 999      47.511 124.016  21.786  1.00  0.00     0.001 A 
HETATM    9  C12 LIG X 999      47.161 125.357  21.967  1.00  0.00     0.012 A 
HETATM   10  C13 LIG X 999      45.878 125.695  22.427  1.00  0.00    -0.025 A 
HETATM   11  C14 LIG X 999      45.515 127.037  22.611  1.00  0.00     0.031 A 
ENDROOT
BRANCH   1  12
HETATM   12  C1  LIG X 999      43.863 128.818  23.251  1.00  0.00     0.181 C 
HETATM   13  N1  LIG X 999      44.278 129.695  22.379  1.00  0.00    -0.162 NA
HETATM   14  C2  LIG X 999      44.131 131.120  22.422  1.00  0.00     0.390 C 
HETATM   15  O2  LIG X 999      44.020 131.727  23.523  1.00  0.00    -0.236 OA
BRANCH  12  16
HETATM   16  O1  LIG X 999      43.056 129.185  24.333  1.00  0.00    -0.344 OA
HETATM   17  H1  LIG X 999      43.346 129.822  25.062  1.00  0.00     0.219 HD
ENDBRANCH  12  16
BRANCH  14  18
HETATM   18  O3  LIG X 999      44.202 131.839  21.226  1.00  0.00    -0.282 OA
BRANCH  18  19
HETATM   19  C3  LIG X 999      43.329 131.612  20.122  1.00  0.00     0.225 C 
HETATM   20 CL1  LIG X 999      44.248 131.674  18.592  1.00  0.00    -0.095 Cl
HETATM   21  C4  LIG X 999      42.246 132.681  20.108  1.00  0.00     0.057 C 
ENDBRANCH  18  19
ENDBRANCH  14  18
ENDBRANCH   1  12
TORSDOF 4
ENDMDL
