MODEL 1
REMARK VINA RESULT:      -8.3      0.000      0.000
REMARK  5 active torsions:
REMARK  status: ('A' for Active; 'I' for Inactive)
REMARK    1  A    between atoms: N1_1  and  C1_2 
REMARK    2  A    between atoms: C1_2  and  C2_3 
REMARK    3  A    between atoms: C2_3  and  C3_4 
REMARK    4  A    between atoms: C3_4  and  O1_5 
REMARK    5  A    between atoms: O1_5  and  C4_6 
ROOT
HETATM    1  C4  LIG X 999      45.198 131.419  17.189  1.00  0.00     0.069 A 
HETATM    2  C5  LIG X 999      45.538 130.090  17.466  1.00  0.00     0.037 A 
HETATM    3  C6  LIG X 999      46.321 129.351  16.575  1.00  0.00     0.015 A 
HETATM    4  C7  LIG X 999      46.775 129.937  15.386  1.00  0.00    -0.026 A 
HETATM    5  C8  LIG X 999      47.562 129.205  14.482  1.00  0.00     0.012 A 
HETATM    6  C9  LIG X 999      48.010 129.800  13.300  1.00  0.00     0.001 A 
HETATM    7  C10 LIG X 999      47.676 131.126  13.010  1.00  0.00     0.001 A 
HETATM    8  C11 LIG X 999      46.893 131.865  13.901  1.00  0.00     0.012 A 
HETATM    9  C12 LIG X 999      46.438 131.280  15.092  1.00  0.00    -0.023 A 
HETATM   10  C13 LIG X 999      45.650 132.013  15.995  1.00  0.00     0.049 A 
ENDROOT
BRANCH   1  11
HETATM   11  O1  LIG X 999      44.411 132.110  18.122  1.00  0.00    -0.351 OA
BRANCH  11  12
HETATM   12  C3  LIG X 999      44.535 131.982  19.536  1.00  0.00     0.177 C 
BRANCH  12  13
HETATM   13  C2  LIG X 999      43.169 131.686  20.161  1.00  0.00     0.054 C 
BRANCH  13  14
HETATM   14  C1  LIG X 999      42.115 132.768  19.866  1.00  0.00     0.231 C 
BRANCH  14  15
HETATM   15  N1  LIG X 999      41.657 132.730  18.475  1.00  0.00    -0.079 N 
HETATM   16  H1  LIG X 999      41.777 131.769  18.077  1.00  0.00     0.274 HD
HETATM   17  H2  LIG X 999      40.643 132.981  18.445  1.00  0.00     0.274 HD
HETATM   18  H3  LIG X 999      42.185 133.424  17.899  1.00  0.00     0.274 HD
ENDBRANCH  14  15
ENDBRANCH  13  14
ENDBRANCH  12  13
ENDBRANCH  11  12
ENDBRANCH   1  11
TORSDOF 5
ENDMDL
MODEL 2
REMARK VINA RESULT:      -8.0      2.624      6.426
REMARK  5 active torsions:
REMARK  status: ('A' for Active; 'I' for Inactive)
REMARK    1  A    between atoms: N1_1  and  C1_2 
REMARK    2  A    between atoms: C1_2  and  C2_3 
REMARK    3  A    between atoms: C2_3  and  C3_4 
REMARK    4  A    between atoms: C3_4  and  O1_5 
REMARK    5  A    between atoms: O1_5  and  C4_6 
ROOT
HETATM    1  C4  LIG X 999      45.294 131.021  16.963  1.00  0.00     0.069 A 
HETATM    2  C5  LIG X 999      44.008 131.524  16.735  1.00  0.00     0.037 A 
HETATM    3  C6  LIG X 999      43.162 131.835  17.802  1.00  0.00     0.015 A 
HETATM    4  C7  LIG X 999      43.595 131.646  19.122  1.00  0.00    -0.026 A 
HETATM    5  C8  LIG X 999      42.754 131.955  20.203  1.00  0.00     0.012 A 
HETATM    6  C9  LIG X 999      43.197 131.762  21.514  1.00  0.00     0.001 A 
HETATM    7  C10 LIG X 999      44.479 131.259  21.756  1.00  0.00     0.001 A 
HETATM    8  C11 LIG X 999      45.325 130.947  20.689  1.00  0.00     0.012 A 
HETATM    9  C12 LIG X 999      44.893 131.137  19.367  1.00  0.00    -0.023 A 
HETATM   10  C13 LIG X 999      45.735 130.827  18.287  1.00  0.00     0.049 A 
ENDROOT
BRANCH   1  11
HETATM   11  O1  LIG X 999      46.098 130.727  15.852  1.00  0.00    -0.351 OA
BRANCH  11  12
HETATM   12  C3  LIG X 999      46.500 131.681  14.871  1.00  0.00     0.177 C 
BRANCH  12  13
HETATM   13  C2  LIG X 999      46.657 131.001  13.508  1.00  0.00     0.054 C 
BRANCH  13  14
HETATM   14  C1  LIG X 999      47.970 130.213  13.365  1.00  0.00     0.231 C 
BRANCH  14  15
HETATM   15  N1  LIG X 999      47.957 128.970  14.139  1.00  0.00    -0.079 N 
HETATM   16  H1  LIG X 999      47.373 128.246  13.659  1.00  0.00     0.274 HD
HETATM   17  H2  LIG X 999      48.935 128.611  14.222  1.00  0.00     0.274 HD
HETATM   18  H3  LIG X 999      47.589 129.144  15.101  1.00  0.00     0.274 HD
ENDBRANCH  14  15
ENDBRANCH  13  14
ENDBRANCH  12  13
ENDBRANCH  11  12
ENDBRANCH   1  11
TORSDOF 5
ENDMDL
MODEL 3
REMARK VINA RESULT:      -7.8      1.094      2.063
REMARK  5 active torsions:
REMARK  status: ('A' for Active; 'I' for Inactive)
REMARK    1  A    between atoms: N1_1  and  C1_2 
REMARK    2  A    between atoms: C1_2  and  C2_3 
REMARK    3  A    between atoms: C2_3  and  C3_4 
REMARK    4  A    between atoms: C3_4  and  O1_5 
REMARK    5  A    between atoms: O1_5  and  C4_6 
ROOT
HETATM    1  C4  LIG X 999      45.574 130.731  17.440  1.00  0.00     0.069 A 
HETATM    2  C5  LIG X 999      45.286 131.962  16.838  1.00  0.00     0.037 A 
HETATM    3  C6  LIG X 999      45.764 132.262  15.560  1.00  0.00     0.015 A 
HETATM    4  C7  LIG X 999      46.542 131.328  14.862  1.00  0.00    -0.026 A 
HETATM    5  C8  LIG X 999      47.028 131.618  13.577  1.00  0.00     0.012 A 
HETATM    6  C9  LIG X 999      47.802 130.679  12.891  1.00  0.00     0.001 A 
HETATM    7  C10 LIG X 999      48.098 129.446  13.481  1.00  0.00     0.001 A 
HETATM    8  C11 LIG X 999      47.620 129.145  14.759  1.00  0.00     0.012 A 
HETATM    9  C12 LIG X 999      46.841 130.080  15.459  1.00  0.00    -0.023 A 
HETATM   10  C13 LIG X 999      46.356 129.788  16.744  1.00  0.00     0.049 A 
ENDROOT
BRANCH   1  11
HETATM   11  O1  LIG X 999      45.066 130.486  18.724  1.00  0.00    -0.351 OA
BRANCH  11  12
HETATM   12  C3  LIG X 999      45.783 130.717  19.934  1.00  0.00     0.177 C 
BRANCH  12  13
HETATM   13  C2  LIG X 999      44.883 131.420  20.954  1.00  0.00     0.054 C 
BRANCH  13  14
HETATM   14  C1  LIG X 999      43.708 132.178  20.312  1.00  0.00     0.231 C 
BRANCH  14  15
HETATM   15  N1  LIG X 999      42.444 131.450  20.440  1.00  0.00    -0.079 N 
HETATM   16  H1  LIG X 999      42.581 130.573  20.994  1.00  0.00     0.274 HD
HETATM   17  H2  LIG X 999      41.752 132.056  20.937  1.00  0.00     0.274 HD
HETATM   18  H3  LIG X 999      42.060 131.220  19.496  1.00  0.00     0.274 HD
ENDBRANCH  14  15
ENDBRANCH  13  14
ENDBRANCH  12  13
ENDBRANCH  11  12
ENDBRANCH   1  11
TORSDOF 5
ENDMDL
MODEL 4
REMARK VINA RESULT:      -7.8      2.254      6.211
REMARK  5 active torsions:
REMARK  status: ('A' for Active; 'I' for Inactive)
REMARK    1  A    between atoms: N1_1  and  C1_2 
REMARK    2  A    between atoms: C1_2  and  C2_3 
REMARK    3  A    between atoms: C2_3  and  C3_4 
REMARK    4  A    between atoms: C3_4  and  O1_5 
REMARK    5  A    between atoms: O1_5  and  C4_6 
ROOT
HETATM    1  C4  LIG X 999      44.339 131.549  16.985  1.00  0.00     0.069 A 
HETATM    2  C5  LIG X 999      42.992 131.855  17.208  1.00  0.00     0.037 A 
HETATM    3  C6  LIG X 999      42.480 131.925  18.506  1.00  0.00     0.015 A 
HETATM    4  C7  LIG X 999      43.316 131.687  19.606  1.00  0.00    -0.026 A 
HETATM    5  C8  LIG X 999      42.813 131.755  20.915  1.00  0.00     0.012 A 
HETATM    6  C9  LIG X 999      43.656 131.516  22.004  1.00  0.00     0.001 A 
HETATM    7  C10 LIG X 999      45.004 131.208  21.795  1.00  0.00     0.001 A 
HETATM    8  C11 LIG X 999      45.517 131.138  20.497  1.00  0.00     0.012 A 
HETATM    9  C12 LIG X 999      44.680 131.377  19.395  1.00  0.00    -0.023 A 
HETATM   10  C13 LIG X 999      45.184 131.308  18.086  1.00  0.00     0.049 A 
ENDROOT
BRANCH   1  11
HETATM   11  O1  LIG X 999      44.796 131.494  15.660  1.00  0.00    -0.351 OA
BRANCH  11  12
HETATM   12  C3  LIG X 999      46.118 131.829  15.246  1.00  0.00     0.177 C 
BRANCH  12  13
HETATM   13  C2  LIG X 999      46.528 130.972  14.045  1.00  0.00     0.054 C 
BRANCH  13  14
HETATM   14  C1  LIG X 999      47.000 129.560  14.434  1.00  0.00     0.231 C 
BRANCH  14  15
HETATM   15  N1  LIG X 999      45.980 128.821  15.180  1.00  0.00    -0.079 N 
HETATM   16  H1  LIG X 999      45.251 129.475  15.550  1.00  0.00     0.274 HD
HETATM   17  H2  LIG X 999      45.521 128.135  14.539  1.00  0.00     0.274 HD
HETATM   18  H3  LIG X 999      46.417 128.291  15.968  1.00  0.00     0.274 HD
ENDBRANCH  14  15
ENDBRANCH  13  14
ENDBRANCH  12  13
ENDBRANCH  11  12
ENDBRANCH   1  11
TORSDOF 5
ENDMDL
MODEL 5
REMARK VINA RESULT:      -7.2      2.359      6.338
REMARK  5 active torsions:
REMARK  status: ('A' for Active; 'I' for Inactive)
REMARK    1  A    between atoms: N1_1  and  C1_2 
REMARK    2  A    between atoms: C1_2  and  C2_3 
REMARK    3  A    between atoms: C2_3  and  C3_4 
REMARK    4  A    between atoms: C3_4  and  O1_5 
REMARK    5  A    between atoms: O1_5  and  C4_6 
ROOT
HETATM    1  C4  LIG X 999      44.878 131.178  17.568  1.00  0.00     0.069 A 
HETATM    2  C5  LIG X 999      45.870 130.537  18.319  1.00  0.00     0.037 A 
HETATM    3  C6  LIG X 999      45.778 130.467  19.712  1.00  0.00     0.015 A 
HETATM    4  C7  LIG X 999      44.686 131.042  20.375  1.00  0.00    -0.026 A 
HETATM    5  C8  LIG X 999      44.582 130.978  21.774  1.00  0.00     0.012 A 
HETATM    6  C9  LIG X 999      43.488 131.555  22.424  1.00  0.00     0.001 A 
HETATM    7  C10 LIG X 999      42.491 132.199  21.685  1.00  0.00     0.001 A 
HETATM    8  C11 LIG X 999      42.582 132.270  20.292  1.00  0.00     0.012 A 
HETATM    9  C12 LIG X 999      43.676 131.693  19.627  1.00  0.00    -0.023 A 
HETATM   10  C13 LIG X 999      43.778 131.759  18.228  1.00  0.00     0.049 A 
ENDROOT
BRANCH   1  11
HETATM   11  O1  LIG X 999      45.024 131.215  16.173  1.00  0.00    -0.351 OA
BRANCH  11  12
HETATM   12  C3  LIG X 999      46.071 131.898  15.488  1.00  0.00     0.177 C 
BRANCH  12  13
HETATM   13  C2  LIG X 999      46.251 131.315  14.084  1.00  0.00     0.054 C 
BRANCH  13  14
HETATM   14  C1  LIG X 999      46.937 129.938  14.076  1.00  0.00     0.231 C 
BRANCH  14  15
HETATM   15  N1  LIG X 999      47.391 129.538  15.410  1.00  0.00    -0.079 N 
HETATM   16  H1  LIG X 999      47.948 130.306  15.853  1.00  0.00     0.274 HD
HETATM   17  H2  LIG X 999      46.556 129.342  16.007  1.00  0.00     0.274 HD
HETATM   18  H3  LIG X 999      47.966 128.668  15.353  1.00  0.00     0.274 HD
ENDBRANCH  14  15
ENDBRANCH  13  14
ENDBRANCH  12  13
ENDBRANCH  11  12
ENDBRANCH   1  11
TORSDOF 5
ENDMDL
MODEL 6
REMARK VINA RESULT:      -6.9      1.963      2.783
REMARK  5 active torsions:
REMARK  status: ('A' for Active; 'I' for Inactive)
REMARK    1  A    between atoms: N1_1  and  C1_2 
REMARK    2  A    between atoms: C1_2  and  C2_3 
REMARK    3  A    between atoms: C2_3  and  C3_4 
REMARK    4  A    between atoms: C3_4  and  O1_5 
REMARK    5  A    between atoms: O1_5  and  C4_6 
ROOT
HETATM    1  C4  LIG X 999      44.644 131.264  18.809  1.00  0.00     0.069 A 
HETATM    2  C5  LIG X 999      43.571 131.789  18.079  1.00  0.00     0.037 A 
HETATM    3  C6  LIG X 999      43.578 131.766  16.682  1.00  0.00     0.015 A 
HETATM    4  C7  LIG X 999      44.666 131.214  15.992  1.00  0.00    -0.026 A 
HETATM    5  C8  LIG X 999      44.684 131.186  14.589  1.00  0.00     0.012 A 
HETATM    6  C9  LIG X 999      45.774 130.632  13.912  1.00  0.00     0.001 A 
HETATM    7  C10 LIG X 999      46.852 130.105  14.629  1.00  0.00     0.001 A 
HETATM    8  C11 LIG X 999      46.846 130.127  16.027  1.00  0.00     0.012 A 
HETATM    9  C12 LIG X 999      45.757 130.680  16.718  1.00  0.00    -0.023 A 
HETATM   10  C13 LIG X 999      45.741 130.708  18.122  1.00  0.00     0.049 A 
ENDROOT
BRANCH   1  11
HETATM   11  O1  LIG X 999      44.580 131.314  20.209  1.00  0.00    -0.351 OA
BRANCH  11  12
HETATM   12  C3  LIG X 999      45.195 130.368  21.081  1.00  0.00     0.177 C 
BRANCH  12  13
HETATM   13  C2  LIG X 999      44.484 130.359  22.437  1.00  0.00     0.054 C 
BRANCH  13  14
HETATM   14  C1  LIG X 999      42.954 130.473  22.325  1.00  0.00     0.231 C 
BRANCH  14  15
HETATM   15  N1  LIG X 999      42.511 131.863  22.185  1.00  0.00    -0.079 N 
HETATM   16  H1  LIG X 999      42.776 132.418  23.032  1.00  0.00     0.274 HD
HETATM   17  H2  LIG X 999      42.975 132.283  21.348  1.00  0.00     0.274 HD
HETATM   18  H3  LIG X 999      41.477 131.902  22.043  1.00  0.00     0.274 HD
ENDBRANCH  14  15
ENDBRANCH  13  14
ENDBRANCH  12  13
ENDBRANCH  11  12
ENDBRANCH   1  11
TORSDOF 5
ENDMDL
MODEL 7
REMARK VINA RESULT:      -6.4      2.199      2.862
REMARK  5 active torsions:
REMARK  status: ('A' for Active; 'I' for Inactive)
REMARK    1  A    between atoms: N1_1  and  C1_2 
REMARK    2  A    between atoms: C1_2  and  C2_3 
REMARK    3  A    between atoms: C2_3  and  C3_4 
REMARK    4  A    between atoms: C3_4  and  O1_5 
REMARK    5  A    between atoms: O1_5  and  C4_6 
ROOT
HETATM    1  C4  LIG X 999      44.593 131.502  19.151  1.00  0.00     0.069 A 
HETATM    2  C5  LIG X 999      45.662 130.604  19.253  1.00  0.00     0.037 A 
HETATM    3  C6  LIG X 999      46.250 130.061  18.109  1.00  0.00     0.015 A 
HETATM    4  C7  LIG X 999      45.772 130.409  16.838  1.00  0.00    -0.026 A 
HETATM    5  C8  LIG X 999      46.355 129.870  15.680  1.00  0.00     0.012 A 
HETATM    6  C9  LIG X 999      45.871 130.226  14.419  1.00  0.00     0.001 A 
HETATM    7  C10 LIG X 999      44.802 131.120  14.303  1.00  0.00     0.001 A 
HETATM    8  C11 LIG X 999      44.213 131.664  15.448  1.00  0.00     0.012 A 
HETATM    9  C12 LIG X 999      44.692 131.316  16.721  1.00  0.00    -0.023 A 
HETATM   10  C13 LIG X 999      44.107 131.856  17.877  1.00  0.00     0.049 A 
ENDROOT
BRANCH   1  11
HETATM   11  O1  LIG X 999      44.044 132.016  20.335  1.00  0.00    -0.351 OA
BRANCH  11  12
HETATM   12  C3  LIG X 999      42.754 131.679  20.841  1.00  0.00     0.177 C 
BRANCH  12  13
HETATM   13  C2  LIG X 999      42.797 131.575  22.368  1.00  0.00     0.054 C 
BRANCH  13  14
HETATM   14  C1  LIG X 999      42.982 130.135  22.877  1.00  0.00     0.231 C 
BRANCH  14  15
HETATM   15  N1  LIG X 999      41.863 129.695  23.714  1.00  0.00    -0.079 N 
HETATM   16  H1  LIG X 999      41.977 128.688  23.977  1.00  0.00     0.274 HD
HETATM   17  H2  LIG X 999      41.846 130.270  24.586  1.00  0.00     0.274 HD
HETATM   18  H3  LIG X 999      40.958 129.832  23.211  1.00  0.00     0.274 HD
ENDBRANCH  14  15
ENDBRANCH  13  14
ENDBRANCH  12  13
ENDBRANCH  11  12
ENDBRANCH   1  11
TORSDOF 5
ENDMDL
MODEL 8
REMARK VINA RESULT:      -6.1      2.452      6.981
REMARK  5 active torsions:
REMARK  status: ('A' for Active; 'I' for Inactive)
REMARK    1  A    between atoms: N1_1  and  C1_2 
REMARK    2  A    between atoms: C1_2  and  C2_3 
REMARK    3  A    between atoms: C2_3  and  C3_4 
REMARK    4  A    between atoms: C3_4  and  O1_5 
REMARK    5  A    between atoms: O1_5  and  C4_6 
ROOT
HETATM    1  C4  LIG X 999      44.163 131.566  19.002  1.00  0.00     0.069 A 
HETATM    2  C5  LIG X 999      42.996 132.315  19.190  1.00  0.00     0.037 A 
HETATM    3  C6  LIG X 999      42.399 132.404  20.450  1.00  0.00     0.015 A 
HETATM    4  C7  LIG X 999      42.965 131.739  21.546  1.00  0.00    -0.026 A 
HETATM    5  C8  LIG X 999      42.375 131.820  22.817  1.00  0.00     0.012 A 
HETATM    6  C9  LIG X 999      42.949 131.153  23.902  1.00  0.00     0.001 A 
HETATM    7  C10 LIG X 999      44.114 130.401  23.728  1.00  0.00     0.001 A 
HETATM    8  C11 LIG X 999      44.712 130.311  22.468  1.00  0.00     0.012 A 
HETATM    9  C12 LIG X 999      44.145 130.977  21.370  1.00  0.00    -0.023 A 
HETATM   10  C13 LIG X 999      44.738 130.894  20.099  1.00  0.00     0.049 A 
ENDROOT
BRANCH   1  11
HETATM   11  O1  LIG X 999      44.718 131.515  17.715  1.00  0.00    -0.351 OA
BRANCH  11  12
HETATM   12  C3  LIG X 999      45.669 130.545  17.282  1.00  0.00     0.177 C 
BRANCH  12  13
HETATM   13  C2  LIG X 999      45.360 130.105  15.849  1.00  0.00     0.054 C 
BRANCH  13  14
HETATM   14  C1  LIG X 999      45.198 131.282  14.870  1.00  0.00     0.231 C 
BRANCH  14  15
HETATM   15  N1  LIG X 999      46.042 132.423  15.231  1.00  0.00    -0.079 N 
HETATM   16  H1  LIG X 999      46.634 132.192  16.062  1.00  0.00     0.274 HD
HETATM   17  H2  LIG X 999      46.668 132.649  14.425  1.00  0.00     0.274 HD
HETATM   18  H3  LIG X 999      45.453 133.261  15.434  1.00  0.00     0.274 HD
ENDBRANCH  14  15
ENDBRANCH  13  14
ENDBRANCH  12  13
ENDBRANCH  11  12
ENDBRANCH   1  11
TORSDOF 5
ENDMDL
MODEL 9
REMARK VINA RESULT:      -5.8      2.887      7.098
REMARK  5 active torsions:
REMARK  status: ('A' for Active; 'I' for Inactive)
REMARK    1  A    between atoms: N1_1  and  C1_2 
REMARK    2  A    between atoms: C1_2  and  C2_3 
REMARK    3  A    between atoms: C2_3  and  C3_4 
REMARK    4  A    between atoms: C3_4  and  O1_5 
REMARK    5  A    between atoms: O1_5  and  C4_6 
ROOT
HETATM    1  C4  LIG X 999      44.934 131.365  19.629  1.00  0.00     0.069 A 
HETATM    2  C5  LIG X 999      45.707 130.300  20.105  1.00  0.00     0.037 A 
HETATM    3  C6  LIG X 999      45.480 129.763  21.375  1.00  0.00     0.015 A 
HETATM    4  C7  LIG X 999      44.471 130.290  22.192  1.00  0.00    -0.026 A 
HETATM    5  C8  LIG X 999      44.233 129.760  23.470  1.00  0.00     0.012 A 
HETATM    6  C9  LIG X 999      43.223 130.294  24.275  1.00  0.00     0.001 A 
HETATM    7  C10 LIG X 999      42.444 131.358  23.812  1.00  0.00     0.001 A 
HETATM    8  C11 LIG X 999      42.670 131.895  22.542  1.00  0.00     0.012 A 
HETATM    9  C12 LIG X 999      43.682 131.368  21.723  1.00  0.00    -0.023 A 
HETATM   10  C13 LIG X 999      43.918 131.899  20.445  1.00  0.00     0.049 A 
ENDROOT
BRANCH   1  11
HETATM   11  O1  LIG X 999      45.207 131.860  18.346  1.00  0.00    -0.351 OA
BRANCH  11  12
HETATM   12  C3  LIG X 999      45.039 131.117  17.140  1.00  0.00     0.177 C 
BRANCH  12  13
HETATM   13  C2  LIG X 999      45.542 131.931  15.945  1.00  0.00     0.054 C 
BRANCH  13  14
HETATM   14  C1  LIG X 999      46.641 131.217  15.139  1.00  0.00     0.231 C 
BRANCH  14  15
HETATM   15  N1  LIG X 999      46.974 129.905  15.698  1.00  0.00    -0.079 N 
HETATM   16  H1  LIG X 999      47.430 129.303  14.973  1.00  0.00     0.274 HD
HETATM   17  H2  LIG X 999      47.639 130.034  16.493  1.00  0.00     0.274 HD
HETATM   18  H3  LIG X 999      46.114 129.436  16.062  1.00  0.00     0.274 HD
ENDBRANCH  14  15
ENDBRANCH  13  14
ENDBRANCH  12  13
ENDBRANCH  11  12
ENDBRANCH   1  11
TORSDOF 5
ENDMDL
