REMARK VINA RESULT:      -8.8      1.912      6.780
REMARK  3 active torsions:
REMARK  status: ('A' for Active; 'I' for Inactive)
REMARK    1  A    between atoms: C3_3  and  O1_4 
REMARK    2  A    between atoms: O1_4  and  C4_5 
REMARK    3  A    between atoms: C5_7  and  C6_8 
ROOT
HETATM    1  C1  LIG X 999      47.640 131.008  12.986  1.00  0.00     0.014 C 
HETATM    2  C2  LIG X 999      47.095 130.358  13.841  1.00  0.00    -0.091 C 
HETATM    3  C3  LIG X 999      46.433 129.567  14.881  1.00  0.00     0.270 C 
ENDROOT
BRANCH   3   4
HETATM    4  O1  LIG X 999      45.830 130.447  15.822  1.00  0.00    -0.317 OA
BRANCH   4   5
HETATM    5  C4  LIG X 999      44.664 131.164  15.536  1.00  0.00     0.217 C 
HETATM    6  O2  LIG X 999      44.293 131.387  14.213  1.00  0.00    -0.164 OA
HETATM    7  C5  LIG X 999      43.877 131.616  16.518  1.00  0.00     0.078 C 
BRANCH   7   8
HETATM    8  C6  LIG X 999      44.161 131.446  17.961  1.00  0.00    -0.031 A 
HETATM    9  C7  LIG X 999      45.401 130.966  18.422  1.00  0.00     0.012 A 
HETATM   10  C8  LIG X 999      45.648 130.837  19.791  1.00  0.00     0.013 A 
HETATM   11  C9  LIG X 999      44.667 131.201  20.724  1.00  0.00    -0.026 A 
HETATM   12  C10 LIG X 999      44.906 131.074  22.100  1.00  0.00     0.012 A 
HETATM   13  C14 LIG X 999      43.425 131.709  20.270  1.00  0.00    -0.025 A 
HETATM   14  C11 LIG X 999      43.921 131.448  23.020  1.00  0.00     0.001 A 
HETATM   15  C12 LIG X 999      42.695 131.949  22.574  1.00  0.00     0.001 A 
HETATM   16  C13 LIG X 999      42.446 132.081  21.204  1.00  0.00     0.012 A 
HETATM   17  C15 LIG X 999      43.187 131.835  18.893  1.00  0.00     0.024 A 
ENDBRANCH   7   8
ENDBRANCH   4   5
ENDBRANCH   3   4
TORSDOF 3
