REMARK VINA RESULT:      -8.3      3.460      5.703
REMARK  3 active torsions:
REMARK  status: ('A' for Active; 'I' for Inactive)
REMARK    1  A    between atoms: O1_2  and  C1_3 
REMARK    2  A    between atoms: C1_3  and  C3_8 
REMARK    3  A    between atoms: C2_4  and  N1_5 
ROOT
HETATM    1  C3  LIG X 999      45.559 130.766  16.200  1.00  0.00    -0.001 A 
HETATM    2  C4  LIG X 999      44.297 131.366  16.027  1.00  0.00     0.015 A 
HETATM    3  C5  LIG X 999      43.527 131.734  17.131  1.00  0.00     0.013 A 
HETATM    4  C6  LIG X 999      44.004 131.514  18.431  1.00  0.00    -0.026 A 
HETATM    5  C7  LIG X 999      43.237 131.880  19.547  1.00  0.00     0.012 A 
HETATM    6  C8  LIG X 999      43.724 131.654  20.837  1.00  0.00     0.001 A 
HETATM    7  C9  LIG X 999      44.977 131.063  21.023  1.00  0.00     0.001 A 
HETATM    8  C10 LIG X 999      45.750 130.693  19.919  1.00  0.00     0.012 A 
HETATM    9  C11 LIG X 999      45.273 130.915  18.617  1.00  0.00    -0.025 A 
HETATM   10  C12 LIG X 999      46.041 130.549  17.502  1.00  0.00     0.026 A 
ENDROOT
BRANCH   1  11
HETATM   11  C1  LIG X 999      46.389 130.380  15.030  1.00  0.00     0.090 C 
HETATM   12  C2  LIG X 999      46.857 131.306  14.180  1.00  0.00     0.118 C 
BRANCH  11  13
HETATM   13  O1  LIG X 999      46.678 129.033  14.801  1.00  0.00    -0.358 OA
HETATM   14  H1  LIG X 999      46.382 128.306  15.440  1.00  0.00     0.217 HD
ENDBRANCH  11  13
BRANCH  12  15
HETATM   15  N1  LIG X 999      47.661 130.952  13.052  1.00  0.00    -0.406 N 
HETATM   16  H3  LIG X 999      47.441 130.082  12.517  1.00  0.00     0.155 HD
HETATM   17  H4  LIG X 999      48.465 131.538  12.739  1.00  0.00     0.155 HD
ENDBRANCH  12  15
ENDBRANCH   1  11
TORSDOF 3
