REMARK VINA RESULT:      -7.6      1.539      2.875
REMARK  2 active torsions:
REMARK  status: ('A' for Active; 'I' for Inactive)
REMARK    1  A    between atoms: C1_1  and  N1_14 
REMARK    2  A    between atoms: C2_2  and  C3_4 
ROOT
HETATM    1  C3  LIG X 999      44.942 131.153  16.765  1.00  0.00     0.003 A 
HETATM    2  C4  LIG X 999      45.884 130.656  17.689  1.00  0.00     0.015 A 
HETATM    3  C5  LIG X 999      45.634 130.713  19.062  1.00  0.00     0.013 A 
HETATM    4  C6  LIG X 999      44.444 131.275  19.541  1.00  0.00    -0.026 A 
HETATM    5  C7  LIG X 999      44.185 131.336  20.920  1.00  0.00     0.012 A 
HETATM    6  C8  LIG X 999      42.995 131.903  21.385  1.00  0.00     0.001 A 
HETATM    7  C9  LIG X 999      42.059 132.413  20.481  1.00  0.00     0.001 A 
HETATM    8  C10 LIG X 999      42.305 132.359  19.107  1.00  0.00     0.012 A 
HETATM    9  C11 LIG X 999      43.497 131.791  18.626  1.00  0.00    -0.025 A 
HETATM   10  C12 LIG X 999      43.755 131.731  17.248  1.00  0.00     0.026 A 
ENDROOT
BRANCH   1  11
HETATM   11  C2  LIG X 999      45.190 131.116  15.300  1.00  0.00     0.132 C 
HETATM   12  C1  LIG X 999      46.418 130.940  14.791  1.00  0.00     0.121 C 
HETATM   13  O1  LIG X 999      44.104 131.245  14.439  1.00  0.00    -0.190 OA
BRANCH  12  14
HETATM   14  N1  LIG X 999      46.647 130.912  13.379  1.00  0.00    -0.406 N 
HETATM   15  H9  LIG X 999      46.994 131.747  12.857  1.00  0.00     0.155 HD
HETATM   16  H10 LIG X 999      46.468 130.031  12.848  1.00  0.00     0.155 HD
ENDBRANCH  12  14
ENDBRANCH   1  11
TORSDOF 2
