REMARK VINA RESULT:      -5.9      1.694      2.449
REMARK  3 active torsions:
REMARK  status: ('A' for Active; 'I' for Inactive)
REMARK    1  A    between atoms: C6_6  and  C7_7 
REMARK    2  A    between atoms: C7_7  and  N1_8 
REMARK    3  A    between atoms: C8_12  and  N4_13 
ROOT
HETATM    1  N1  LIG X 999      43.493 131.701  16.590  1.00  0.00    -0.065 NA
HETATM    2  N2  LIG X 999      42.506 132.025  17.251  1.00  0.00    -0.164 NA
HETATM    3  N3  LIG X 999      41.521 132.350  17.910  1.00  0.00     0.068 N 
ENDROOT
BRANCH   1   4
HETATM    4  C7  LIG X 999      44.755 131.381  17.246  1.00  0.00     0.267 A 
HETATM    5  O1  LIG X 999      45.804 132.208  16.797  1.00  0.00    -0.314 OA
HETATM    6  C8  LIG X 999      45.865 130.849  16.416  1.00  0.00     0.349 A 
BRANCH   4   7
HETATM    7  C6  LIG X 999      44.759 131.174  18.731  1.00  0.00     0.007 A 
HETATM    8  C5  LIG X 999      43.738 131.717  19.525  1.00  0.00     0.024 A 
HETATM    9  C4  LIG X 999      43.730 131.502  20.912  1.00  0.00    -0.025 A 
HETATM   10  C3  LIG X 999      42.716 132.046  21.715  1.00  0.00     0.012 A 
HETATM   11  C11 LIG X 999      44.753 130.725  21.507  1.00  0.00    -0.026 A 
HETATM   12  C2  LIG X 999      42.718 131.824  23.095  1.00  0.00     0.001 A 
HETATM   13  C1  LIG X 999      43.729 131.058  23.682  1.00  0.00     0.001 A 
HETATM   14  C12 LIG X 999      44.744 130.508  22.894  1.00  0.00     0.012 A 
HETATM   15  C10 LIG X 999      45.765 130.176  20.704  1.00  0.00     0.013 A 
HETATM   16  C9  LIG X 999      45.763 130.397  19.324  1.00  0.00     0.013 A 
ENDBRANCH   4   7
BRANCH   6  17
HETATM   17  N4  LIG X 999      45.597 130.710  14.992  1.00  0.00    -0.077 NA
HETATM   18  N5  LIG X 999      46.473 130.955  14.162  1.00  0.00    -0.165 NA
HETATM   19  N6  LIG X 999      47.348 131.200  13.333  1.00  0.00     0.068 N 
ENDBRANCH   6  17
ENDBRANCH   1   4
TORSDOF 3
