REMARK VINA RESULT:      -5.4      1.685      2.534
REMARK  3 active torsions:
REMARK  status: ('A' for Active; 'I' for Inactive)
REMARK    1  A    between atoms: C3_3  and  S1_4 
REMARK    2  A    between atoms: S1_4  and  C4_5 
REMARK    3  A    between atoms: C8_9  and  N1_10 
ROOT
HETATM    1  C1  LIG X 999      46.453 131.340  14.616  1.00  0.00     0.013 C 
HETATM    2  C2  LIG X 999      46.128 131.032  15.736  1.00  0.00    -0.107 C 
HETATM    3  C3  LIG X 999      45.732 130.653  17.095  1.00  0.00     0.172 C 
ENDROOT
BRANCH   3   4
HETATM    4  S1  LIG X 999      44.355 131.701  17.673  1.00  0.00    -0.117 SA
BRANCH   4   5
HETATM    5  C4  LIG X 999      44.505 131.223  19.403  1.00  0.00     0.015 A 
HETATM    6  C5  LIG X 999      45.513 130.267  19.722  1.00  0.00     0.020 A 
HETATM    7  C6  LIG X 999      45.609 129.703  21.012  1.00  0.00     0.018 A 
HETATM    8  C7  LIG X 999      44.682 130.116  21.961  1.00  0.00     0.026 A 
HETATM    9  C8  LIG X 999      44.397 129.714  23.256  1.00  0.00     0.175 A 
HETATM   10  C10 LIG X 999      43.751 131.055  21.658  1.00  0.00     0.019 A 
HETATM   11  N4  LIG X 999      43.304 130.378  23.727  1.00  0.00    -0.337 N 
HETATM   12  H6  LIG X 999      42.833 130.255  24.651  1.00  0.00     0.167 HD
HETATM   13  C9  LIG X 999      42.921 131.200  22.724  1.00  0.00     0.046 A 
HETATM   14  C14 LIG X 999      41.735 132.061  22.641  1.00  0.00     0.033 C 
HETATM   15  C13 LIG X 999      41.529 132.756  21.504  1.00  0.00     0.034 C 
HETATM   16  C12 LIG X 999      42.497 132.684  20.359  1.00  0.00     0.060 C 
HETATM   17  C11 LIG X 999      43.615 131.674  20.427  1.00  0.00     0.022 A 
HETATM   18  N5  LIG X 999      42.413 133.593  19.440  1.00  0.00    -0.299 NA
HETATM   19  H7  LIG X 999      43.088 133.715  18.660  1.00  0.00     0.187 HD
BRANCH   9  20
HETATM   20  N1  LIG X 999      45.103 128.702  23.976  1.00  0.00    -0.053 NA
HETATM   21  N2  LIG X 999      44.964 127.510  23.704  1.00  0.00    -0.160 NA
HETATM   22  N3  LIG X 999      44.824 126.319  23.432  1.00  0.00     0.068 N 
ENDBRANCH   9  20
ENDBRANCH   4   5
ENDBRANCH   3   4
TORSDOF 3
