REMARK VINA RESULT:      -6.8      2.996      5.878
REMARK  1 active torsions:
REMARK  status: ('A' for Active; 'I' for Inactive)
REMARK    1  A    between atoms: N1_1  and  C1_2 
ROOT
HETATM    1  C1  LIG X 999      45.804 130.477  17.018  1.00  0.00     0.026 A 
HETATM    2  C2  LIG X 999      44.730 130.941  16.247  1.00  0.00     0.030 A 
HETATM    3  C3  LIG X 999      43.618 131.525  16.859  1.00  0.00     0.014 A 
HETATM    4  C4  LIG X 999      43.567 131.654  18.254  1.00  0.00    -0.026 A 
HETATM    5  C5  LIG X 999      42.456 132.239  18.880  1.00  0.00     0.012 A 
HETATM    6  C6  LIG X 999      42.419 132.361  20.272  1.00  0.00     0.001 A 
HETATM    7  C7  LIG X 999      43.486 131.901  21.048  1.00  0.00     0.001 A 
HETATM    8  C8  LIG X 999      44.600 131.315  20.437  1.00  0.00     0.012 A 
HETATM    9  C9  LIG X 999      44.650 131.187  19.040  1.00  0.00    -0.024 A 
HETATM   10  C10 LIG X 999      45.761 130.602  18.415  1.00  0.00     0.041 A 
ENDROOT
BRANCH   1  11
HETATM   11  N1  LIG X 999      46.938 129.880  16.385  1.00  0.00    -0.399 N 
HETATM   12  H1  LIG X 999      46.929 128.872  16.112  1.00  0.00     0.156 HD
HETATM   13  H2  LIG X 999      47.795 130.441  16.183  1.00  0.00     0.156 HD
ENDBRANCH   1  11
TORSDOF 1
