REMARK VINA RESULT:      -5.2      5.009      7.328
REMARK  2 active torsions:
REMARK  status: ('A' for Active; 'I' for Inactive)
REMARK    1  A    between atoms: C2_2  and  N1_3 
REMARK    2  A    between atoms: C3_6  and  O1_7 
ROOT
HETATM    1  N1  LIG X 999      44.872 131.480  21.328  1.00  0.00    -0.070 NA
HETATM    2  N2  LIG X 999      44.781 131.546  20.101  1.00  0.00    -0.162 NA
HETATM    3  N3  LIG X 999      44.689 131.614  18.877  1.00  0.00     0.068 N 
ENDROOT
BRANCH   1   4
HETATM    4  C2  LIG X 999      44.556 130.286  22.060  1.00  0.00     0.127 A 
HETATM    5  C1  LIG X 999      45.176 129.058  21.759  1.00  0.00     0.049 A 
HETATM    6  C11 LIG X 999      44.856 127.904  22.484  1.00  0.00    -0.023 A 
HETATM    7  C6  LIG X 999      43.897 127.975  23.532  1.00  0.00    -0.022 A 
HETATM    8  C10 LIG X 999      45.476 126.675  22.185  1.00  0.00     0.021 A 
HETATM    9  C5  LIG X 999      43.284 129.200  23.827  1.00  0.00     0.051 A 
HETATM   10  C7  LIG X 999      43.574 126.816  24.265  1.00  0.00     0.021 A 
HETATM   11  C3  LIG X 999      43.609 130.359  23.096  1.00  0.00     0.100 A 
HETATM   12  C8  LIG X 999      44.205 125.617  23.934  1.00  0.00    -0.024 A 
HETATM   13  C9  LIG X 999      45.124 125.549  22.930  1.00  0.00    -0.024 A 
HETATM   14  C15 LIG X 999      44.039 124.295  24.576  1.00  0.00     0.276 C 
HETATM   15  C12 LIG X 999      45.657 124.175  22.807  1.00  0.00     0.276 C 
HETATM   16  N4  LIG X 999      44.846 123.341  23.750  1.00  0.00    -0.067 N 
HETATM   17  C13 LIG X 999      43.945 122.444  22.988  1.00  0.00     0.272 C 
HETATM   18  C14 LIG X 999      45.726 122.520  24.612  1.00  0.00     0.272 C 
BRANCH  11  19
HETATM   19  O1  LIG X 999      43.011 131.600  23.367  1.00  0.00    -0.353 OA
HETATM   20  C4  LIG X 999      43.067 132.266  24.625  1.00  0.00     0.210 C 
ENDBRANCH  11  19
ENDBRANCH   1   4
TORSDOF 2
