REMARK VINA RESULT:      -5.5      1.813      2.147
REMARK  3 active torsions:
REMARK  status: ('A' for Active; 'I' for Inactive)
REMARK    1  A    between atoms: C3_3  and  S1_4 
REMARK    2  A    between atoms: S1_4  and  N1_7 
REMARK    3  A    between atoms: C10_16  and  N4_17 
ROOT
HETATM    1  N1  LIG X 999      46.948 132.038  21.011  1.00  0.00     0.026 NA
HETATM    2  N2  LIG X 999      47.161 133.059  21.664  1.00  0.00    -0.150 NA
HETATM    3  N3  LIG X 999      47.377 134.079  22.317  1.00  0.00     0.069 N 
ENDROOT
BRANCH   1   4
HETATM    4  S1  LIG X 999      45.350 131.388  20.919  1.00  0.00     0.311 S 
HETATM    5  O1  LIG X 999      44.436 132.199  21.793  1.00  0.00    -0.196 OA
HETATM    6  O2  LIG X 999      45.351 129.969  21.416  1.00  0.00    -0.196 OA
BRANCH   4   7
HETATM    7  C3  LIG X 999      44.782 131.447  19.253  1.00  0.00     0.084 A 
HETATM    8  C2  LIG X 999      43.419 131.592  18.975  1.00  0.00     0.026 A 
HETATM    9  C1  LIG X 999      42.975 131.654  17.653  1.00  0.00     0.009 A 
HETATM   10  C6  LIG X 999      43.884 131.561  16.589  1.00  0.00    -0.050 A 
HETATM   11  C5  LIG X 999      45.268 131.431  16.864  1.00  0.00    -0.023 A 
HETATM   12  C7  LIG X 999      43.369 131.740  15.179  1.00  0.00     0.039 C 
HETATM   13  C4  LIG X 999      45.701 131.374  18.200  1.00  0.00     0.035 A 
HETATM   14  C10 LIG X 999      46.288 131.271  15.752  1.00  0.00     0.179 C 
HETATM   15  C9  LIG X 999      45.766 131.830  14.420  1.00  0.00     0.035 C 
HETATM   16  C8  LIG X 999      44.370 131.285  14.113  1.00  0.00     0.007 C 
BRANCH  14  17
HETATM   17  N4  LIG X 999      46.629 129.861  15.581  1.00  0.00    -0.105 NA
HETATM   18  N5  LIG X 999      47.401 129.490  14.696  1.00  0.00    -0.167 NA
HETATM   19  N6  LIG X 999      48.174 129.120  13.813  1.00  0.00     0.068 N 
ENDBRANCH  14  17
ENDBRANCH   4   7
ENDBRANCH   1   4
TORSDOF 3
