MODEL 1
REMARK VINA RESULT:      -8.7      0.000      0.000
REMARK  3 active torsions:
REMARK  status: ('A' for Active; 'I' for Inactive)
REMARK    1  A    between atoms: C6_6  and  C7_7 
REMARK    2  A    between atoms: C7_7  and  N1_8 
REMARK    3  A    between atoms: C8_12  and  N4_13 
ROOT
HETATM    1  N1  LIG X 999      45.069 131.819  15.226  1.00  0.00    -0.065 NA
HETATM    2  N2  LIG X 999      44.072 131.743  14.506  1.00  0.00    -0.164 NA
HETATM    3  N3  LIG X 999      43.078 131.667  13.787  1.00  0.00     0.068 N 
ENDROOT
BRANCH   1   4
HETATM    4  C7  LIG X 999      45.276 130.912  16.354  1.00  0.00     0.267 A 
HETATM    5  O1  LIG X 999      46.630 130.568  16.549  1.00  0.00    -0.314 OA
HETATM    6  C8  LIG X 999      45.780 129.544  16.077  1.00  0.00     0.349 A 
BRANCH   4   7
HETATM    7  C6  LIG X 999      44.545 131.194  17.631  1.00  0.00     0.007 A 
HETATM    8  C5  LIG X 999      45.176 130.984  18.866  1.00  0.00     0.024 A 
HETATM    9  C4  LIG X 999      44.501 131.270  20.062  1.00  0.00    -0.025 A 
HETATM   10  C3  LIG X 999      45.121 131.055  21.304  1.00  0.00     0.012 A 
HETATM   11  C11 LIG X 999      43.182 131.784  20.018  1.00  0.00    -0.026 A 
HETATM   12  C2  LIG X 999      44.439 131.344  22.488  1.00  0.00     0.001 A 
HETATM   13  C1  LIG X 999      43.136 131.851  22.444  1.00  0.00     0.001 A 
HETATM   14  C12 LIG X 999      42.508 132.071  21.215  1.00  0.00     0.012 A 
HETATM   15  C10 LIG X 999      42.564 132.005  18.779  1.00  0.00     0.013 A 
HETATM   16  C9  LIG X 999      43.245 131.716  17.593  1.00  0.00     0.013 A 
ENDBRANCH   4   7
BRANCH   6  17
HETATM   17  N4  LIG X 999      46.072 129.250  14.684  1.00  0.00    -0.077 NA
HETATM   18  N5  LIG X 999      47.214 129.385  14.248  1.00  0.00    -0.165 NA
HETATM   19  N6  LIG X 999      48.356 129.520  13.813  1.00  0.00     0.068 N 
ENDBRANCH   6  17
ENDBRANCH   1   4
TORSDOF 3
ENDMDL
MODEL 2
REMARK VINA RESULT:      -8.3      1.069      1.942
REMARK  3 active torsions:
REMARK  status: ('A' for Active; 'I' for Inactive)
REMARK    1  A    between atoms: C6_6  and  C7_7 
REMARK    2  A    between atoms: C7_7  and  N1_8 
REMARK    3  A    between atoms: C8_12  and  N4_13 
ROOT
HETATM    1  N1  LIG X 999      44.415 130.216  15.145  1.00  0.00    -0.065 NA
HETATM    2  N2  LIG X 999      43.770 131.000  14.447  1.00  0.00    -0.164 NA
HETATM    3  N3  LIG X 999      43.125 131.781  13.750  1.00  0.00     0.068 N 
ENDROOT
BRANCH   1   4
HETATM    4  C7  LIG X 999      45.460 130.678  16.057  1.00  0.00     0.267 A 
HETATM    5  O1  LIG X 999      46.259 131.705  15.512  1.00  0.00    -0.314 OA
HETATM    6  C8  LIG X 999      46.877 130.447  15.683  1.00  0.00     0.349 A 
BRANCH   4   7
HETATM    7  C6  LIG X 999      45.095 130.908  17.491  1.00  0.00     0.007 A 
HETATM    8  C5  LIG X 999      43.894 131.554  17.819  1.00  0.00     0.024 A 
HETATM    9  C4  LIG X 999      43.539 131.748  19.162  1.00  0.00    -0.025 A 
HETATM   10  C3  LIG X 999      42.343 132.402  19.500  1.00  0.00     0.012 A 
HETATM   11  C11 LIG X 999      44.394 131.279  20.190  1.00  0.00    -0.026 A 
HETATM   12  C2  LIG X 999      42.000 132.589  20.842  1.00  0.00     0.001 A 
HETATM   13  C1  LIG X 999      42.844 132.125  21.855  1.00  0.00     0.001 A 
HETATM   14  C12 LIG X 999      44.038 131.472  21.533  1.00  0.00     0.012 A 
HETATM   15  C10 LIG X 999      45.586 130.621  19.853  1.00  0.00     0.013 A 
HETATM   16  C9  LIG X 999      45.930 130.433  18.512  1.00  0.00     0.013 A 
ENDBRANCH   4   7
BRANCH   6  17
HETATM   17  N4  LIG X 999      47.093 129.813  14.393  1.00  0.00    -0.077 NA
HETATM   18  N5  LIG X 999      47.541 130.464  13.450  1.00  0.00    -0.165 NA
HETATM   19  N6  LIG X 999      47.989 131.114  12.508  1.00  0.00     0.068 N 
ENDBRANCH   6  17
ENDBRANCH   1   4
TORSDOF 3
ENDMDL
MODEL 3
REMARK VINA RESULT:      -7.8      3.823      6.333
REMARK  3 active torsions:
REMARK  status: ('A' for Active; 'I' for Inactive)
REMARK    1  A    between atoms: C6_6  and  C7_7 
REMARK    2  A    between atoms: C7_7  and  N1_8 
REMARK    3  A    between atoms: C8_12  and  N4_13 
ROOT
HETATM    1  N1  LIG X 999      43.394 131.002  18.864  1.00  0.00    -0.065 NA
HETATM    2  N2  LIG X 999      42.749 131.998  19.199  1.00  0.00    -0.164 NA
HETATM    3  N3  LIG X 999      42.106 132.991  19.534  1.00  0.00     0.068 N 
ENDROOT
BRANCH   1   4
HETATM    4  C7  LIG X 999      44.853 131.023  18.775  1.00  0.00     0.267 A 
HETATM    5  O1  LIG X 999      45.472 130.044  19.581  1.00  0.00    -0.314 OA
HETATM    6  C8  LIG X 999      45.629 131.388  19.986  1.00  0.00     0.349 A 
BRANCH   4   7
HETATM    7  C6  LIG X 999      45.476 131.158  17.421  1.00  0.00     0.007 A 
HETATM    8  C5  LIG X 999      46.169 130.080  16.851  1.00  0.00     0.024 A 
HETATM    9  C4  LIG X 999      46.733 130.197  15.572  1.00  0.00    -0.025 A 
HETATM   10  C3  LIG X 999      47.436 129.126  14.998  1.00  0.00     0.012 A 
HETATM   11  C11 LIG X 999      46.591 131.408  14.851  1.00  0.00    -0.026 A 
HETATM   12  C2  LIG X 999      47.993 129.255  13.723  1.00  0.00     0.001 A 
HETATM   13  C1  LIG X 999      47.852 130.450  13.011  1.00  0.00     0.001 A 
HETATM   14  C12 LIG X 999      47.155 131.524  13.571  1.00  0.00     0.012 A 
HETATM   15  C10 LIG X 999      45.884 132.476  15.421  1.00  0.00     0.013 A 
HETATM   16  C9  LIG X 999      45.327 132.349  16.696  1.00  0.00     0.013 A 
ENDBRANCH   4   7
BRANCH   6  17
HETATM   17  N4  LIG X 999      44.845 131.647  21.183  1.00  0.00    -0.077 NA
HETATM   18  N5  LIG X 999      44.636 130.746  21.994  1.00  0.00    -0.165 NA
HETATM   19  N6  LIG X 999      44.427 129.845  22.804  1.00  0.00     0.068 N 
ENDBRANCH   6  17
ENDBRANCH   1   4
TORSDOF 3
ENDMDL
MODEL 4
REMARK VINA RESULT:      -7.8      4.407      6.611
REMARK  3 active torsions:
REMARK  status: ('A' for Active; 'I' for Inactive)
REMARK    1  A    between atoms: C6_6  and  C7_7 
REMARK    2  A    between atoms: C7_7  and  N1_8 
REMARK    3  A    between atoms: C8_12  and  N4_13 
ROOT
HETATM    1  N1  LIG X 999      45.898 131.293  20.819  1.00  0.00    -0.065 NA
HETATM    2  N2  LIG X 999      46.478 132.316  21.186  1.00  0.00    -0.164 NA
HETATM    3  N3  LIG X 999      47.058 133.337  21.553  1.00  0.00     0.068 N 
ENDROOT
BRANCH   1   4
HETATM    4  C7  LIG X 999      44.633 131.346  20.086  1.00  0.00     0.267 A 
HETATM    5  O1  LIG X 999      43.735 132.305  20.598  1.00  0.00    -0.314 OA
HETATM    6  C8  LIG X 999      43.391 130.950  20.793  1.00  0.00     0.349 A 
BRANCH   4   7
HETATM    7  C6  LIG X 999      44.682 131.316  18.590  1.00  0.00     0.007 A 
HETATM    8  C5  LIG X 999      45.781 130.745  17.931  1.00  0.00     0.024 A 
HETATM    9  C4  LIG X 999      45.818 130.695  16.529  1.00  0.00    -0.025 A 
HETATM   10  C3  LIG X 999      46.917 130.133  15.861  1.00  0.00     0.012 A 
HETATM   11  C11 LIG X 999      44.733 131.214  15.780  1.00  0.00    -0.026 A 
HETATM   12  C2  LIG X 999      46.941 130.088  14.464  1.00  0.00     0.001 A 
HETATM   13  C1  LIG X 999      45.871 130.601  13.725  1.00  0.00     0.001 A 
HETATM   14  C12 LIG X 999      44.770 131.163  14.378  1.00  0.00     0.012 A 
HETATM   15  C10 LIG X 999      43.632 131.770  16.447  1.00  0.00     0.013 A 
HETATM   16  C9  LIG X 999      43.606 131.816  17.843  1.00  0.00     0.013 A 
ENDBRANCH   4   7
BRANCH   6  17
HETATM   17  N4  LIG X 999      43.549 130.586  22.192  1.00  0.00    -0.077 NA
HETATM   18  N5  LIG X 999      42.914 131.181  23.062  1.00  0.00    -0.165 NA
HETATM   19  N6  LIG X 999      42.279 131.774  23.931  1.00  0.00     0.068 N 
ENDBRANCH   6  17
ENDBRANCH   1   4
TORSDOF 3
ENDMDL
MODEL 5
REMARK VINA RESULT:      -6.8      3.928      6.597
REMARK  3 active torsions:
REMARK  status: ('A' for Active; 'I' for Inactive)
REMARK    1  A    between atoms: C6_6  and  C7_7 
REMARK    2  A    between atoms: C7_7  and  N1_8 
REMARK    3  A    between atoms: C8_12  and  N4_13 
ROOT
HETATM    1  N1  LIG X 999      44.920 132.866  19.563  1.00  0.00    -0.065 NA
HETATM    2  N2  LIG X 999      45.742 132.502  20.406  1.00  0.00    -0.164 NA
HETATM    3  N3  LIG X 999      46.561 132.139  21.248  1.00  0.00     0.068 N 
ENDROOT
BRANCH   1   4
HETATM    4  C7  LIG X 999      44.244 131.913  18.684  1.00  0.00     0.267 A 
HETATM    5  O1  LIG X 999      42.991 132.371  18.228  1.00  0.00    -0.314 OA
HETATM    6  C8  LIG X 999      42.976 131.300  19.149  1.00  0.00     0.349 A 
BRANCH   4   7
HETATM    7  C6  LIG X 999      45.053 131.238  17.619  1.00  0.00     0.007 A 
HETATM    8  C5  LIG X 999      45.398 131.930  16.449  1.00  0.00     0.024 A 
HETATM    9  C4  LIG X 999      46.176 131.308  15.461  1.00  0.00    -0.025 A 
HETATM   10  C3  LIG X 999      46.518 131.990  14.283  1.00  0.00     0.012 A 
HETATM   11  C11 LIG X 999      46.623 129.977  15.656  1.00  0.00    -0.026 A 
HETATM   12  C2  LIG X 999      47.294 131.358  13.307  1.00  0.00     0.001 A 
HETATM   13  C1  LIG X 999      47.735 130.046  13.499  1.00  0.00     0.001 A 
HETATM   14  C12 LIG X 999      47.402 129.355  14.668  1.00  0.00     0.012 A 
HETATM   15  C10 LIG X 999      46.286 129.298  16.835  1.00  0.00     0.013 A 
HETATM   16  C9  LIG X 999      45.510 129.927  17.812  1.00  0.00     0.013 A 
ENDBRANCH   4   7
BRANCH   6  17
HETATM   17  N4  LIG X 999      42.493 131.755  20.442  1.00  0.00    -0.077 NA
HETATM   18  N5  LIG X 999      42.744 131.110  21.459  1.00  0.00    -0.165 NA
HETATM   19  N6  LIG X 999      42.995 130.466  22.476  1.00  0.00     0.068 N 
ENDBRANCH   6  17
ENDBRANCH   1   4
TORSDOF 3
ENDMDL
MODEL 6
REMARK VINA RESULT:      -6.5      4.474      6.677
REMARK  3 active torsions:
REMARK  status: ('A' for Active; 'I' for Inactive)
REMARK    1  A    between atoms: C6_6  and  C7_7 
REMARK    2  A    between atoms: C7_7  and  N1_8 
REMARK    3  A    between atoms: C8_12  and  N4_13 
ROOT
HETATM    1  N1  LIG X 999      45.401 131.696  21.408  1.00  0.00    -0.065 NA
HETATM    2  N2  LIG X 999      46.238 132.600  21.379  1.00  0.00    -0.164 NA
HETATM    3  N3  LIG X 999      47.074 133.502  21.351  1.00  0.00     0.068 N 
ENDROOT
BRANCH   1   4
HETATM    4  C7  LIG X 999      44.371 131.568  20.379  1.00  0.00     0.267 A 
HETATM    5  O1  LIG X 999      43.431 132.619  20.399  1.00  0.00    -0.314 OA
HETATM    6  C8  LIG X 999      42.967 131.349  20.808  1.00  0.00     0.349 A 
BRANCH   4   7
HETATM    7  C6  LIG X 999      44.798 131.180  18.996  1.00  0.00     0.007 A 
HETATM    8  C5  LIG X 999      44.098 131.662  17.881  1.00  0.00     0.024 A 
HETATM    9  C4  LIG X 999      44.510 131.319  16.584  1.00  0.00    -0.025 A 
HETATM   10  C3  LIG X 999      43.811 131.789  15.461  1.00  0.00     0.012 A 
HETATM   11  C11 LIG X 999      45.646 130.491  16.405  1.00  0.00    -0.026 A 
HETATM   12  C2  LIG X 999      44.232 131.441  14.175  1.00  0.00     0.001 A 
HETATM   13  C1  LIG X 999      45.353 130.625  13.999  1.00  0.00     0.001 A 
HETATM   14  C12 LIG X 999      46.059 130.150  15.108  1.00  0.00     0.012 A 
HETATM   15  C10 LIG X 999      46.349 130.026  17.526  1.00  0.00     0.013 A 
HETATM   16  C9  LIG X 999      45.929 130.373  18.813  1.00  0.00     0.013 A 
ENDBRANCH   4   7
BRANCH   6  17
HETATM   17  N4  LIG X 999      42.742 131.333  22.243  1.00  0.00    -0.077 NA
HETATM   18  N5  LIG X 999      42.642 130.263  22.843  1.00  0.00    -0.165 NA
HETATM   19  N6  LIG X 999      42.542 129.194  23.442  1.00  0.00     0.068 N 
ENDBRANCH   6  17
ENDBRANCH   1   4
TORSDOF 3
ENDMDL
MODEL 7
REMARK VINA RESULT:      -6.3      5.346      6.719
REMARK  3 active torsions:
REMARK  status: ('A' for Active; 'I' for Inactive)
REMARK    1  A    between atoms: C6_6  and  C7_7 
REMARK    2  A    between atoms: C7_7  and  N1_8 
REMARK    3  A    between atoms: C8_12  and  N4_13 
ROOT
HETATM    1  N1  LIG X 999      44.877 131.871  22.645  1.00  0.00    -0.065 NA
HETATM    2  N2  LIG X 999      44.343 132.380  23.632  1.00  0.00    -0.164 NA
HETATM    3  N3  LIG X 999      43.811 132.890  24.617  1.00  0.00     0.068 N 
ENDROOT
BRANCH   1   4
HETATM    4  C7  LIG X 999      44.184 130.885  21.817  1.00  0.00     0.267 A 
HETATM    5  O1  LIG X 999      42.961 130.454  22.373  1.00  0.00    -0.314 OA
HETATM    6  C8  LIG X 999      44.012 129.511  22.351  1.00  0.00     0.349 A 
BRANCH   4   7
HETATM    7  C6  LIG X 999      44.112 131.126  20.341  1.00  0.00     0.007 A 
HETATM    8  C5  LIG X 999      45.170 130.730  19.509  1.00  0.00     0.024 A 
HETATM    9  C4  LIG X 999      45.094 130.934  18.123  1.00  0.00    -0.025 A 
HETATM   10  C3  LIG X 999      46.151 130.548  17.283  1.00  0.00     0.012 A 
HETATM   11  C11 LIG X 999      43.939 131.532  17.564  1.00  0.00    -0.026 A 
HETATM   12  C2  LIG X 999      46.064 130.756  15.904  1.00  0.00     0.001 A 
HETATM   13  C1  LIG X 999      44.923 131.347  15.353  1.00  0.00     0.001 A 
HETATM   14  C12 LIG X 999      43.863 131.735  16.177  1.00  0.00     0.012 A 
HETATM   15  C10 LIG X 999      42.880 131.912  18.401  1.00  0.00     0.013 A 
HETATM   16  C9  LIG X 999      42.966 131.705  19.780  1.00  0.00     0.013 A 
ENDBRANCH   4   7
BRANCH   6  17
HETATM   17  N4  LIG X 999      44.518 129.288  23.695  1.00  0.00    -0.077 NA
HETATM   18  N5  LIG X 999      44.992 128.196  24.005  1.00  0.00    -0.165 NA
HETATM   19  N6  LIG X 999      45.465 127.105  24.316  1.00  0.00     0.068 N 
ENDBRANCH   6  17
ENDBRANCH   1   4
TORSDOF 3
ENDMDL
MODEL 8
REMARK VINA RESULT:      -6.3      3.733      6.624
REMARK  3 active torsions:
REMARK  status: ('A' for Active; 'I' for Inactive)
REMARK    1  A    between atoms: C6_6  and  C7_7 
REMARK    2  A    between atoms: C7_7  and  N1_8 
REMARK    3  A    between atoms: C8_12  and  N4_13 
ROOT
HETATM    1  N1  LIG X 999      44.828 130.533  19.282  1.00  0.00    -0.065 NA
HETATM    2  N2  LIG X 999      45.607 130.990  20.121  1.00  0.00    -0.164 NA
HETATM    3  N3  LIG X 999      46.384 131.446  20.958  1.00  0.00     0.068 N 
ENDROOT
BRANCH   1   4
HETATM    4  C7  LIG X 999      44.297 131.355  18.196  1.00  0.00     0.267 A 
HETATM    5  O1  LIG X 999      44.024 132.682  18.585  1.00  0.00    -0.314 OA
HETATM    6  C8  LIG X 999      42.908 131.863  18.308  1.00  0.00     0.349 A 
BRANCH   4   7
HETATM    7  C6  LIG X 999      44.947 131.252  16.850  1.00  0.00     0.007 A 
HETATM    8  C5  LIG X 999      46.084 130.449  16.675  1.00  0.00     0.024 A 
HETATM    9  C4  LIG X 999      46.680 130.333  15.411  1.00  0.00    -0.025 A 
HETATM   10  C3  LIG X 999      47.823 129.538  15.227  1.00  0.00     0.012 A 
HETATM   11  C11 LIG X 999      46.122 131.022  14.306  1.00  0.00    -0.026 A 
HETATM   12  C2  LIG X 999      48.407 129.430  13.963  1.00  0.00     0.001 A 
HETATM   13  C1  LIG X 999      47.857 130.111  12.873  1.00  0.00     0.001 A 
HETATM   14  C12 LIG X 999      46.719 130.905  13.040  1.00  0.00     0.012 A 
HETATM   15  C10 LIG X 999      44.977 131.811  14.487  1.00  0.00     0.013 A 
HETATM   16  C9  LIG X 999      44.392 131.921  15.751  1.00  0.00     0.013 A 
ENDBRANCH   4   7
BRANCH   6  17
HETATM   17  N4  LIG X 999      42.212 131.528  19.539  1.00  0.00    -0.077 NA
HETATM   18  N5  LIG X 999      41.782 132.419  20.270  1.00  0.00    -0.165 NA
HETATM   19  N6  LIG X 999      41.352 133.309  21.001  1.00  0.00     0.068 N 
ENDBRANCH   6  17
ENDBRANCH   1   4
TORSDOF 3
ENDMDL
MODEL 9
REMARK VINA RESULT:      -5.9      4.460      6.294
REMARK  3 active torsions:
REMARK  status: ('A' for Active; 'I' for Inactive)
REMARK    1  A    between atoms: C6_6  and  C7_7 
REMARK    2  A    between atoms: C7_7  and  N1_8 
REMARK    3  A    between atoms: C8_12  and  N4_13 
ROOT
HETATM    1  N1  LIG X 999      43.879 131.886  21.067  1.00  0.00    -0.065 NA
HETATM    2  N2  LIG X 999      43.459 130.967  21.774  1.00  0.00    -0.164 NA
HETATM    3  N3  LIG X 999      43.039 130.051  22.478  1.00  0.00     0.068 N 
ENDROOT
BRANCH   1   4
HETATM    4  C7  LIG X 999      45.027 131.711  20.179  1.00  0.00     0.267 A 
HETATM    5  O1  LIG X 999      45.965 130.774  20.661  1.00  0.00    -0.314 OA
HETATM    6  C8  LIG X 999      46.366 132.128  20.665  1.00  0.00     0.349 A 
BRANCH   4   7
HETATM    7  C6  LIG X 999      44.771 131.592  18.708  1.00  0.00     0.007 A 
HETATM    8  C5  LIG X 999      45.800 131.190  17.844  1.00  0.00     0.024 A 
HETATM    9  C4  LIG X 999      45.556 131.055  16.468  1.00  0.00    -0.025 A 
HETATM   10  C3  LIG X 999      46.581 130.661  15.594  1.00  0.00     0.012 A 
HETATM   11  C11 LIG X 999      44.261 131.315  15.957  1.00  0.00    -0.026 A 
HETATM   12  C2  LIG X 999      46.325 130.529  14.227  1.00  0.00     0.001 A 
HETATM   13  C1  LIG X 999      45.047 130.787  13.722  1.00  0.00     0.001 A 
HETATM   14  C12 LIG X 999      44.017 131.178  14.581  1.00  0.00     0.012 A 
HETATM   15  C10 LIG X 999      43.235 131.702  16.831  1.00  0.00     0.013 A 
HETATM   16  C9  LIG X 999      43.489 131.834  18.198  1.00  0.00     0.013 A 
ENDBRANCH   4   7
BRANCH   6  17
HETATM   17  N4  LIG X 999      46.412 132.636  22.026  1.00  0.00    -0.077 NA
HETATM   18  N5  LIG X 999      47.238 133.492  22.340  1.00  0.00    -0.165 NA
HETATM   19  N6  LIG X 999      48.062 134.348  22.654  1.00  0.00     0.068 N 
ENDBRANCH   6  17
ENDBRANCH   1   4
TORSDOF 3
ENDMDL
