REMARK VINA RESULT:      -8.2      1.360      1.708
REMARK  2 active torsions:
REMARK  status: ('A' for Active; 'I' for Inactive)
REMARK    1  A    between atoms: C1_1  and  N1_14 
REMARK    2  A    between atoms: C2_2  and  C3_4 
ROOT
HETATM    1  C3  LIG X 999      45.460 130.871  16.209  1.00  0.00     0.003 A 
HETATM    2  C4  LIG X 999      44.175 131.438  16.090  1.00  0.00     0.015 A 
HETATM    3  C5  LIG X 999      43.434 131.768  17.227  1.00  0.00     0.013 A 
HETATM    4  C6  LIG X 999      43.956 131.530  18.505  1.00  0.00    -0.026 A 
HETATM    5  C7  LIG X 999      43.217 131.858  19.653  1.00  0.00     0.012 A 
HETATM    6  C8  LIG X 999      43.749 131.612  20.922  1.00  0.00     0.001 A 
HETATM    7  C9  LIG X 999      45.015 131.035  21.055  1.00  0.00     0.001 A 
HETATM    8  C10 LIG X 999      45.759 130.704  19.920  1.00  0.00     0.012 A 
HETATM    9  C11 LIG X 999      45.238 130.946  18.639  1.00  0.00    -0.025 A 
HETATM   10  C12 LIG X 999      45.976 130.617  17.492  1.00  0.00     0.026 A 
ENDROOT
BRANCH   1  11
HETATM   11  C2  LIG X 999      46.263 130.499  15.015  1.00  0.00     0.132 C 
HETATM   12  C1  LIG X 999      46.879 131.418  14.257  1.00  0.00     0.121 C 
HETATM   13  O1  LIG X 999      46.393 129.150  14.695  1.00  0.00    -0.190 OA
BRANCH  12  14
HETATM   14  N1  LIG X 999      47.645 131.051  13.107  1.00  0.00    -0.406 N 
HETATM   15  H9  LIG X 999      48.605 130.648  13.186  1.00  0.00     0.155 HD
HETATM   16  H10 LIG X 999      47.236 131.181  12.155  1.00  0.00     0.155 HD
ENDBRANCH  12  14
ENDBRANCH   1  11
TORSDOF 2
