REMARK VINA RESULT:      -3.8      0.000      0.000
REMARK  2 active torsions:
REMARK  status: ('A' for Active; 'I' for Inactive)
REMARK    1  A    between atoms: C4_4  and  O1_5 
REMARK    2  A    between atoms: C10_11  and  N1_12 
ROOT
HETATM    1  N1  LIG X 999      41.813 123.870  21.535  1.00  0.00    -0.072 NA
HETATM    2  N2  LIG X 999      40.788 123.562  22.146  1.00  0.00    -0.162 NA
HETATM    3  N3  LIG X 999      39.764 123.253  22.754  1.00  0.00     0.068 N 
ENDROOT
BRANCH   1   4
HETATM    4  C10 LIG X 999      43.127 123.637  22.067  1.00  0.00     0.101 C 
HETATM    5  C9  LIG X 999      43.623 124.575  23.002  1.00  0.00     0.007 C 
HETATM    6  C8  LIG X 999      44.628 124.377  23.928  1.00  0.00    -0.022 C 
HETATM    7  C12 LIG X 999      43.238 126.011  23.015  1.00  0.00     0.278 C 
HETATM    8  C7  LIG X 999      44.997 123.141  24.472  1.00  0.00     0.012 C 
HETATM    9  C15 LIG X 999      45.105 125.682  24.454  1.00  0.00     0.276 C 
HETATM   10  C6  LIG X 999      46.325 122.709  24.595  1.00  0.00     0.037 C 
HETATM   11  C4  LIG X 999      47.399 123.101  23.769  1.00  0.00     0.068 C 
HETATM   12  C3  LIG X 999      47.238 123.645  22.468  1.00  0.00     0.037 C 
HETATM   13  C2  LIG X 999      46.108 123.481  21.656  1.00  0.00     0.003 C 
HETATM   14  C1  LIG X 999      45.253 122.375  21.740  1.00  0.00     0.002 C 
HETATM   15  C11 LIG X 999      43.859 122.493  21.664  1.00  0.00     0.035 C 
HETATM   16  N4  LIG X 999      44.348 126.728  23.706  1.00  0.00    -0.067 N 
HETATM   17  C13 LIG X 999      43.816 127.759  24.625  1.00  0.00     0.272 C 
HETATM   18  C14 LIG X 999      45.233 127.378  22.708  1.00  0.00     0.272 C 
BRANCH  11  19
HETATM   19  O1  LIG X 999      48.683 122.921  24.308  1.00  0.00    -0.356 OA
HETATM   20  C5  LIG X 999      49.892 122.959  23.556  1.00  0.00     0.210 C 
ENDBRANCH  11  19
ENDBRANCH   1   4
TORSDOF 2
