REMARK VINA RESULT:      -5.6      1.698      2.697
REMARK  1 active torsions:
REMARK  status: ('A' for Active; 'I' for Inactive)
REMARK    1  A    between atoms: C3_3  and  N1_4 
ROOT
HETATM    1  N1  LIG X 999      46.132 130.615  17.364  1.00  0.00    -0.072 NA
HETATM    2  N2  LIG X 999      46.503 130.244  16.249  1.00  0.00    -0.162 NA
HETATM    3  N3  LIG X 999      46.875 129.869  15.138  1.00  0.00     0.068 N 
ENDROOT
BRANCH   1   4
HETATM    4  C3  LIG X 999      44.809 131.115  17.601  1.00  0.00     0.104 A 
HETATM    5  C2  LIG X 999      44.037 131.453  16.481  1.00  0.00     0.035 A 
HETATM    6  C1  LIG X 999      42.769 132.016  16.627  1.00  0.00     0.003 A 
HETATM    7  C10 LIG X 999      42.241 132.241  17.896  1.00  0.00     0.012 A 
HETATM    8  C9  LIG X 999      42.965 131.876  19.038  1.00  0.00    -0.023 A 
HETATM    9  C4  LIG X 999      44.261 131.284  18.903  1.00  0.00     0.006 A 
HETATM   10  C8  LIG X 999      42.405 132.069  20.315  1.00  0.00     0.021 A 
HETATM   11  C5  LIG X 999      44.930 130.841  20.069  1.00  0.00     0.024 A 
HETATM   12  C6  LIG X 999      44.340 131.058  21.314  1.00  0.00    -0.023 A 
HETATM   13  C7  LIG X 999      43.126 131.659  21.433  1.00  0.00    -0.024 A 
HETATM   14  C14 LIG X 999      44.852 130.657  22.642  1.00  0.00     0.276 C 
HETATM   15  C11 LIG X 999      42.714 131.720  22.852  1.00  0.00     0.276 C 
HETATM   16  N4  LIG X 999      43.894 131.237  23.636  1.00  0.00    -0.067 N 
HETATM   17  C12 LIG X 999      43.484 130.216  24.625  1.00  0.00     0.272 C 
HETATM   18  C13 LIG X 999      44.528 132.372  24.349  1.00  0.00     0.272 C 
ENDBRANCH   1   4
TORSDOF 1
