REMARK VINA RESULT:      -4.0      4.871      6.456
REMARK  0 active torsions:
REMARK  status: ('A' for Active; 'I' for Inactive)
ROOT
HETATM    1  C1  LIG X 999      42.392 131.949  18.680  1.00  0.00     0.000 A 
HETATM    2  C2  LIG X 999      43.383 131.698  17.726  1.00  0.00     0.000 A 
HETATM    3  C3  LIG X 999      44.703 131.475  18.130  1.00  0.00     0.000 A 
HETATM    4  C4  LIG X 999      45.034 131.504  19.490  1.00  0.00     0.000 A 
HETATM    5  C5  LIG X 999      44.043 131.755  20.444  1.00  0.00     0.000 A 
HETATM    6  C6  LIG X 999      42.723 131.979  20.040  1.00  0.00     0.000 A 
ENDROOT
TORSDOF 0
