REMARK VINA RESULT:      -6.0      2.912      5.728
REMARK  3 active torsions:
REMARK  status: ('A' for Active; 'I' for Inactive)
REMARK    1  A    between atoms: C3_3  and  S1_4 
REMARK    2  A    between atoms: S1_4  and  C4_5 
REMARK    3  A    between atoms: C8_9  and  N1_10 
ROOT
HETATM    1  C1  LIG X 999      46.690 129.839  14.570  1.00  0.00     0.013 C 
HETATM    2  C2  LIG X 999      46.367 130.007  15.718  1.00  0.00    -0.107 C 
HETATM    3  C3  LIG X 999      45.974 130.206  17.117  1.00  0.00     0.172 C 
ENDROOT
BRANCH   3   4
HETATM    4  S1  LIG X 999      44.557 131.352  17.233  1.00  0.00    -0.117 SA
BRANCH   4   5
HETATM    5  C4  LIG X 999      44.424 131.260  19.026  1.00  0.00     0.015 A 
HETATM    6  C5  LIG X 999      45.460 130.598  19.747  1.00  0.00     0.020 A 
HETATM    7  C6  LIG X 999      45.404 130.466  21.154  1.00  0.00     0.018 A 
HETATM    8  C7  LIG X 999      44.301 131.010  21.806  1.00  0.00     0.026 A 
HETATM    9  C8  LIG X 999      43.904 131.082  23.132  1.00  0.00     0.175 A 
HETATM   10  C10 LIG X 999      43.331 131.648  21.107  1.00  0.00     0.019 A 
HETATM   11  N4  LIG X 999      42.720 131.749  23.237  1.00  0.00    -0.337 N 
HETATM   12  H6  LIG X 999      42.181 131.958  24.108  1.00  0.00     0.167 HD
HETATM   13  C9  LIG X 999      42.384 132.089  21.973  1.00  0.00     0.046 A 
HETATM   14  C14 LIG X 999      41.209 132.830  21.489  1.00  0.00     0.033 A 
HETATM   15  C13 LIG X 999      41.104 133.067  20.163  1.00  0.00     0.034 A 
HETATM   16  C12 LIG X 999      42.159 132.591  19.201  1.00  0.00     0.060 A 
HETATM   17  C11 LIG X 999      43.326 131.820  19.738  1.00  0.00     0.022 A 
HETATM   18  N5  LIG X 999      42.062 132.871  17.941  1.00  0.00    -0.299 NA
HETATM   19  H7  LIG X 999      41.257 133.416  17.555  1.00  0.00     0.187 HD
BRANCH   9  20
HETATM   20  N1  LIG X 999      44.631 130.541  24.238  1.00  0.00    -0.053 NA
HETATM   21  N2  LIG X 999      44.687 129.327  24.431  1.00  0.00    -0.160 NA
HETATM   22  N3  LIG X 999      44.743 128.114  24.623  1.00  0.00     0.068 N 
ENDBRANCH   9  20
ENDBRANCH   4   5
ENDBRANCH   3   4
TORSDOF 3
