REMARK VINA RESULT:      -4.0      3.615      4.909
REMARK  4 active torsions:
REMARK  status: ('A' for Active; 'I' for Inactive)
REMARK    1  A    between atoms: C3_3  and  O1_4 
REMARK    2  A    between atoms: O1_4  and  C4_5 
REMARK    3  A    between atoms: C9_12  and  N2_13 
REMARK    4  A    between atoms: C11_17  and  C12_18 
ROOT
HETATM    1  C1  LIG X 999      46.476 130.038  16.448  1.00  0.00     0.014 C 
HETATM    2  C2  LIG X 999      45.852 130.442  17.397  1.00  0.00    -0.091 C 
HETATM    3  C3  LIG X 999      45.093 130.930  18.554  1.00  0.00     0.268 C 
ENDROOT
BRANCH   3   4
HETATM    4  O1  LIG X 999      45.823 130.707  19.759  1.00  0.00    -0.339 OA
BRANCH   4   5
HETATM    5  C4  LIG X 999      45.405 129.908  20.840  1.00  0.00     0.085 A 
HETATM    6  C5  LIG X 999      45.965 128.609  21.054  1.00  0.00     0.052 A 
HETATM    7  C6  LIG X 999      45.537 127.823  22.137  1.00  0.00     0.008 A 
HETATM    8  C7  LIG X 999      44.573 128.355  22.956  1.00  0.00     0.018 A 
HETATM    9  C15 LIG X 999      46.024 126.462  22.491  1.00  0.00     0.059 A 
HETATM   10  C8  LIG X 999      44.046 127.743  24.043  1.00  0.00     0.046 A 
HETATM   11  C10 LIG X 999      44.007 129.580  22.798  1.00  0.00     0.042 A 
HETATM   12  N1  LIG X 999      43.130 128.546  24.621  1.00  0.00    -0.337 N 
HETATM   13  C13 LIG X 999      44.490 126.396  24.445  1.00  0.00     0.033 A 
HETATM   14  H5  LIG X 999      42.567 128.337  25.475  1.00  0.00     0.167 HD
HETATM   15  C9  LIG X 999      43.102 129.677  23.861  1.00  0.00     0.176 A 
HETATM   16  C14 LIG X 999      45.438 125.786  23.699  1.00  0.00     0.034 A 
HETATM   17  C11 LIG X 999      44.399 130.413  21.730  1.00  0.00     0.050 A 
HETATM   18  N5  LIG X 999      46.933 125.878  21.777  1.00  0.00    -0.300 NA
HETATM   19  H9  LIG X 999      47.289 124.924  22.011  1.00  0.00     0.187 HD
BRANCH  15  20
HETATM   20  N2  LIG X 999      42.258 130.795  24.139  1.00  0.00    -0.053 NA
HETATM   21  N3  LIG X 999      42.728 131.907  24.382  1.00  0.00    -0.160 NA
HETATM   22  N4  LIG X 999      43.197 133.018  24.624  1.00  0.00     0.068 N 
ENDBRANCH  15  20
BRANCH  17  23
HETATM   23  C12 LIG X 999      43.791 131.753  21.543  1.00  0.00     0.273 C 
HETATM   24  O2  LIG X 999      42.653 131.893  21.024  1.00  0.00    -0.301 OA
ENDBRANCH  17  23
ENDBRANCH   4   5
ENDBRANCH   3   4
TORSDOF 4
