REMARK VINA RESULT:      -7.0      7.450      8.695
REMARK  1 active torsions:
REMARK  status: ('A' for Active; 'I' for Inactive)
REMARK    1  A    between atoms: C2_5  and  C3_6 
ROOT
HETATM    1  C3  LIG X 999      49.284 136.245  21.343  1.00  0.00     0.028 A 
HETATM    2  C4  LIG X 999      48.400 135.181  21.636  1.00  0.00     0.017 A 
HETATM    3  C5  LIG X 999      48.645 134.292  22.677  1.00  0.00     0.002 A 
HETATM    4  C6  LIG X 999      49.779 134.426  23.462  1.00  0.00     0.012 A 
HETATM    5  C7  LIG X 999      50.688 135.460  23.218  1.00  0.00    -0.025 A 
HETATM    6  C8  LIG X 999      51.825 135.567  24.034  1.00  0.00     0.012 A 
HETATM    7  C9  LIG X 999      52.752 136.583  23.821  1.00  0.00     0.001 A 
HETATM    8  C10 LIG X 999      52.553 137.499  22.794  1.00  0.00     0.001 A 
HETATM    9  C11 LIG X 999      51.429 137.409  21.971  1.00  0.00     0.013 A 
HETATM   10  C12 LIG X 999      50.461 136.389  22.156  1.00  0.00    -0.011 A 
ENDROOT
BRANCH   1  11
HETATM   11  C2  LIG X 999      48.928 137.153  20.196  1.00  0.00     0.177 A 
HETATM   12  O1  LIG X 999      49.608 137.265  19.074  1.00  0.00    -0.258 OA
HETATM   13  C1  LIG X 999      48.964 138.152  18.355  1.00  0.00     0.260 A 
HETATM   14  N1  LIG X 999      49.324 138.538  17.175  1.00  0.00    -0.261 NA
HETATM   15  N3  LIG X 999      47.881 138.609  18.995  1.00  0.00    -0.262 N 
HETATM   16  H1  LIG X 999      50.180 138.146  16.723  1.00  0.00     0.190 HD
HETATM   17  N2  LIG X 999      47.854 137.983  20.157  1.00  0.00    -0.276 N 
HETATM   18  H10 LIG X 999      47.186 139.317  18.666  1.00  0.00     0.190 HD
HETATM   19  H9  LIG X 999      47.114 138.140  20.875  1.00  0.00     0.189 HD
ENDBRANCH   1  11
TORSDOF 1
