REMARK VINA RESULT:      -4.9      3.021      5.174
REMARK  5 active torsions:
REMARK  status: ('A' for Active; 'I' for Inactive)
REMARK    1  A    between atoms: C3_3  and  O1_4 
REMARK    2  A    between atoms: O1_4  and  C4_5 
REMARK    3  A    between atoms: C5_6  and  C6_7 
REMARK    4  A    between atoms: C6_7  and  O2_8 
REMARK    5  A    between atoms: C17_20  and  N1_21 
ROOT
HETATM    1  C1  LIG X 999      49.414 124.291  21.113  1.00  0.00     0.014 C 
HETATM    2  C2  LIG X 999      48.480 124.524  21.838  1.00  0.00    -0.091 C 
HETATM    3  C3  LIG X 999      47.346 124.807  22.717  1.00  0.00     0.268 C 
ENDROOT
BRANCH   3   4
HETATM    4  O1  LIG X 999      46.273 125.336  21.945  1.00  0.00    -0.337 OA
BRANCH   4   5
HETATM    5  C4  LIG X 999      44.945 125.186  22.352  1.00  0.00     0.106 C 
HETATM    6  C5  LIG X 999      44.385 123.897  22.458  1.00  0.00     0.012 C 
HETATM    7  C7  LIG X 999      42.996 123.766  22.715  1.00  0.00    -0.014 C 
HETATM    8  C8  LIG X 999      42.365 122.499  22.686  1.00  0.00     0.013 C 
HETATM    9  C12 LIG X 999      42.204 124.927  22.956  1.00  0.00    -0.012 C 
HETATM   10  C9  LIG X 999      40.982 122.386  22.788  1.00  0.00     0.001 C 
HETATM   11  C10 LIG X 999      40.198 123.528  22.879  1.00  0.00     0.001 C 
HETATM   12  C11 LIG X 999      40.796 124.784  22.938  1.00  0.00     0.013 C 
HETATM   13  C13 LIG X 999      42.840 126.198  23.102  1.00  0.00     0.011 C 
HETATM   14  C14 LIG X 999      42.224 127.354  23.678  1.00  0.00    -0.045 C 
HETATM   15  C18 LIG X 999      44.189 126.328  22.678  1.00  0.00     0.080 C 
HETATM   16  C15 LIG X 999      41.009 127.311  24.574  1.00  0.00     0.049 C 
HETATM   17  C16 LIG X 999      42.848 128.601  23.545  1.00  0.00     0.061 C 
HETATM   18  C17 LIG X 999      44.123 128.695  22.985  1.00  0.00     0.165 C 
HETATM   19  N4  LIG X 999      44.772 127.564  22.613  1.00  0.00    -0.336 N 
HETATM   20  H15 LIG X 999      45.755 127.670  22.270  1.00  0.00     0.168 HD
BRANCH   6  21
HETATM   21  C6  LIG X 999      45.269 122.679  22.253  1.00  0.00     0.206 C 
BRANCH  21  22
HETATM   22  O2  LIG X 999      45.400 122.420  20.883  1.00  0.00    -0.396 OA
HETATM   23  H6  LIG X 999      46.356 122.571  20.663  1.00  0.00     0.209 HD
ENDBRANCH  21  22
ENDBRANCH   6  21
BRANCH  18  24
HETATM   24  N1  LIG X 999      44.794 129.958  22.855  1.00  0.00    -0.054 NA
HETATM   25  N2  LIG X 999      44.924 130.530  21.772  1.00  0.00    -0.160 NA
HETATM   26  N3  LIG X 999      45.055 131.102  20.691  1.00  0.00     0.068 N 
ENDBRANCH  18  24
ENDBRANCH   4   5
ENDBRANCH   3   4
TORSDOF 5
