REMARK VINA RESULT:      -7.2      1.782      2.933
REMARK  3 active torsions:
REMARK  status: ('A' for Active; 'I' for Inactive)
REMARK    1  A    between atoms: O1_2  and  C2_3 
REMARK    2  A    between atoms: C2_3  and  C3_5 
REMARK    3  A    between atoms: C4_6  and  C5_7 
ROOT
HETATM    1  C5  LIG X 999      44.199 131.343  19.197  1.00  0.00     0.019 A 
HETATM    2  C6  LIG X 999      43.097 131.843  18.492  1.00  0.00     0.021 A 
HETATM    3  C7  LIG X 999      43.115 131.885  17.095  1.00  0.00     0.013 A 
HETATM    4  C8  LIG X 999      44.238 131.427  16.389  1.00  0.00    -0.026 A 
HETATM    5  C9  LIG X 999      44.268 131.464  14.986  1.00  0.00     0.012 A 
HETATM    6  C10 LIG X 999      45.392 131.005  14.295  1.00  0.00     0.001 A 
HETATM    7  C11 LIG X 999      46.493 130.506  14.996  1.00  0.00     0.001 A 
HETATM    8  C12 LIG X 999      46.478 130.462  16.394  1.00  0.00     0.012 A 
HETATM    9  C13 LIG X 999      45.354 130.921  17.100  1.00  0.00    -0.025 A 
HETATM   10  C14 LIG X 999      45.326 130.882  18.503  1.00  0.00     0.032 A 
ENDROOT
BRANCH   1  11
HETATM   11  C4  LIG X 999      44.174 131.302  20.635  1.00  0.00    -0.056 C 
HETATM   12  C3  LIG X 999      44.153 131.267  21.840  1.00  0.00     0.008 C 
BRANCH  12  13
HETATM   13  C2  LIG X 999      44.127 131.227  23.274  1.00  0.00     0.339 C 
HETATM   14  O2  LIG X 999      44.476 132.244  23.931  1.00  0.00    -0.249 OA
BRANCH  13  15
HETATM   15  O1  LIG X 999      43.712 130.061  23.921  1.00  0.00    -0.316 OA
HETATM   16  C1  LIG X 999      42.372 129.590  23.867  1.00  0.00     0.214 C 
ENDBRANCH  13  15
ENDBRANCH  12  13
ENDBRANCH   1  11
TORSDOF 3
