REMARK VINA RESULT:       1.9      2.285      4.441
REMARK  4 active torsions:
REMARK  status: ('A' for Active; 'I' for Inactive)
REMARK    1  A    between atoms: C5_5  and  O1_6 
REMARK    2  A    between atoms: O1_6  and  C6_7 
REMARK       I    between atoms: C6_7  and  N1_9 
REMARK    3  A    between atoms: C9_13  and  N2_14 
REMARK    4  A    between atoms: C11_19  and  N5_20 
ROOT
HETATM    1  N2  LIG X 999      42.483 132.269  22.101  1.00  0.00    -0.068 NA
HETATM    2  N3  LIG X 999      41.926 132.013  23.168  1.00  0.00    -0.162 NA
HETATM    3  N4  LIG X 999      41.364 131.760  24.233  1.00  0.00     0.068 N 
ENDROOT
BRANCH   1   4
HETATM    4  C9  LIG X 999      43.389 131.355  21.457  1.00  0.00     0.151 C 
HETATM    5  C5  LIG X 999      44.048 130.409  22.262  1.00  0.00     0.114 C 
HETATM    6  C4  LIG X 999      44.513 130.742  23.553  1.00  0.00     0.040 C 
HETATM    7  C3  LIG X 999      44.973 132.016  23.946  1.00  0.00     0.003 C 
HETATM    8  C2  LIG X 999      45.382 133.052  23.082  1.00  0.00     0.000 C 
HETATM    9  C1  LIG X 999      45.771 132.869  21.750  1.00  0.00     0.000 C 
HETATM   10  C13 LIG X 999      46.402 131.703  21.313  1.00  0.00     0.002 C 
HETATM   11  C12 LIG X 999      46.105 131.066  20.103  1.00  0.00     0.036 C 
HETATM   12  C11 LIG X 999      44.851 131.084  19.434  1.00  0.00     0.117 C 
HETATM   13  C10 LIG X 999      43.617 131.410  20.059  1.00  0.00     0.100 C 
HETATM   14 CL1  LIG X 999      42.257 131.825  19.010  1.00  0.00    -0.079 Cl
BRANCH   5  15
HETATM   15  O1  LIG X 999      44.213 129.116  21.740  1.00  0.00    -0.254 OA
BRANCH  15  16
HETATM   16  C6  LIG X 999      45.059 128.120  22.253  1.00  0.00     0.461 C 
HETATM   17  O2  LIG X 999      46.214 127.944  21.774  1.00  0.00    -0.230 OA
HETATM   18  N1  LIG X 999      44.571 127.230  23.275  1.00  0.00     0.009 N 
HETATM   19  H5  LIG X 999      45.348 126.602  23.592  1.00  0.00     0.292 HD
HETATM   20  C7  LIG X 999      44.099 128.001  24.435  1.00  0.00     0.282 C 
HETATM   21  C8  LIG X 999      43.492 126.394  22.728  1.00  0.00     0.282 C 
ENDBRANCH  15  16
ENDBRANCH   5  15
BRANCH  12  22
HETATM   22  N5  LIG X 999      44.798 130.703  18.049  1.00  0.00    -0.071 NA
HETATM   23  N6  LIG X 999      45.224 131.422  17.142  1.00  0.00    -0.162 NA
HETATM   24  N7  LIG X 999      45.648 132.137  16.236  1.00  0.00     0.068 N 
ENDBRANCH  12  22
ENDBRANCH   1   4
TORSDOF 4
