REMARK VINA RESULT:      -6.5      5.194      8.118
REMARK  7 active torsions:
REMARK  status: ('A' for Active; 'I' for Inactive)
REMARK    1  A    between atoms: C2_2  and  C4_4 
REMARK    2  A    between atoms: C4_4  and  C5_5 
REMARK       I    between atoms: C5_5  and  N1_7 
REMARK    3  A    between atoms: N1_7  and  C6_8 
REMARK    4  A    between atoms: C6_8  and  C7_9 
REMARK    5  A    between atoms: C7_9  and  C8_10 
REMARK    6  A    between atoms: C8_10  and  O2_11 
REMARK    7  A    between atoms: O2_11  and  C9_12 
ROOT
HETATM    1  O2  LIG X 999      47.135 133.058  21.950  1.00  0.00    -0.351 OA
ENDROOT
BRANCH   1   2
HETATM    2  C8  LIG X 999      46.124 132.881  20.956  1.00  0.00     0.177 C 
BRANCH   2   3
HETATM    3  C7  LIG X 999      45.941 131.404  20.572  1.00  0.00     0.048 C 
BRANCH   3   4
HETATM    4  C6  LIG X 999      44.951 131.200  19.415  1.00  0.00     0.154 C 
BRANCH   4   5
HETATM    5  N1  LIG X 999      45.565 131.515  18.128  1.00  0.00    -0.256 NA
HETATM    6  C5  LIG X 999      44.826 131.684  16.915  1.00  0.00     0.238 C 
HETATM    7  O1  LIG X 999      43.565 131.651  16.925  1.00  0.00    -0.272 OA
BRANCH   6   8
HETATM    8  C4  LIG X 999      45.554 131.912  15.625  1.00  0.00     0.108 C 
BRANCH   8   9
HETATM    9  C2  LIG X 999      46.445 130.713  15.245  1.00  0.00    -0.014 C 
HETATM   10  C1  LIG X 999      45.650 129.398  15.249  1.00  0.00     0.010 C 
HETATM   11  C3  LIG X 999      47.076 130.941  13.867  1.00  0.00     0.010 C 
ENDBRANCH   8   9
ENDBRANCH   6   8
ENDBRANCH   4   5
ENDBRANCH   3   4
ENDBRANCH   2   3
ENDBRANCH   1   2
BRANCH   1  12
HETATM   12  C9  LIG X 999      48.075 134.101  21.991  1.00  0.00     0.069 A 
HETATM   13  C10 LIG X 999      49.137 133.990  22.895  1.00  0.00     0.037 A 
HETATM   14  C11 LIG X 999      50.082 135.010  23.017  1.00  0.00     0.015 A 
HETATM   15  C12 LIG X 999      49.982 136.161  22.226  1.00  0.00    -0.026 A 
HETATM   16  C13 LIG X 999      50.919 137.199  22.349  1.00  0.00     0.012 A 
HETATM   17  C17 LIG X 999      48.924 136.277  21.292  1.00  0.00    -0.023 A 
HETATM   18  C14 LIG X 999      50.808 138.341  21.551  1.00  0.00     0.001 A 
HETATM   19  C15 LIG X 999      49.766 138.456  20.626  1.00  0.00     0.001 A 
HETATM   20  C16 LIG X 999      48.827 137.429  20.495  1.00  0.00     0.012 A 
HETATM   21  C18 LIG X 999      47.983 135.243  21.173  1.00  0.00     0.049 A 
ENDBRANCH   1  12
TORSDOF 7
