MODEL 1
REMARK VINA RESULT:      -6.9      0.000      0.000
REMARK  3 active torsions:
REMARK  status: ('A' for Active; 'I' for Inactive)
REMARK    1  A    between atoms: C3_3  and  N1_4 
REMARK    2  A    between atoms: C3_3  and  C4_7 
REMARK    3  A    between atoms: C3_3  and  C14_17 
ROOT
HETATM    1  C1  LIG X 999      43.222 131.494  13.765  1.00  0.00     0.015 C 
HETATM    2  C2  LIG X 999      44.050 131.333  14.628  1.00  0.00    -0.075 C 
HETATM    3  C3  LIG X 999      45.072 131.139  15.691  1.00  0.00     0.183 C 
ENDROOT
BRANCH   3   4
HETATM    4  N1  LIG X 999      46.112 132.155  15.471  1.00  0.00    -0.085 NA
HETATM    5  N2  LIG X 999      46.935 132.065  14.556  1.00  0.00    -0.165 NA
HETATM    6  N3  LIG X 999      47.755 131.974  13.644  1.00  0.00     0.068 N 
ENDBRANCH   3   4
BRANCH   3   7
HETATM    7  C4  LIG X 999      44.425 131.345  17.076  1.00  0.00    -0.012 A 
HETATM    8  C5  LIG X 999      43.083 131.771  17.186  1.00  0.00     0.012 A 
HETATM    9  C6  LIG X 999      42.492 131.989  18.432  1.00  0.00     0.013 A 
HETATM   10  C7  LIG X 999      43.231 131.804  19.606  1.00  0.00    -0.026 A 
HETATM   11  C8  LIG X 999      42.645 132.024  20.862  1.00  0.00     0.012 A 
HETATM   12  C12 LIG X 999      44.582 131.398  19.523  1.00  0.00    -0.025 A 
HETATM   13  C9  LIG X 999      43.396 131.844  22.027  1.00  0.00     0.001 A 
HETATM   14  C10 LIG X 999      44.732 131.444  21.946  1.00  0.00     0.001 A 
HETATM   15  C11 LIG X 999      45.327 131.222  20.700  1.00  0.00     0.012 A 
HETATM   16  C13 LIG X 999      45.168 131.179  18.267  1.00  0.00     0.023 A 
ENDBRANCH   3   7
BRANCH   3  17
HETATM   17  C14 LIG X 999      45.727 129.701  15.559  1.00  0.00    -0.005 C 
HETATM   18  C15 LIG X 999      44.657 128.588  15.690  1.00  0.00     0.018 C 
HETATM   19  C16 LIG X 999      46.441 129.513  14.197  1.00  0.00     0.018 C 
HETATM   20  C17 LIG X 999      46.775 129.473  16.680  1.00  0.00     0.018 C 
ENDBRANCH   3  17
TORSDOF 3
ENDMDL
MODEL 2
REMARK VINA RESULT:      -6.1      2.661      5.858
REMARK  3 active torsions:
REMARK  status: ('A' for Active; 'I' for Inactive)
REMARK    1  A    between atoms: C3_3  and  N1_4 
REMARK    2  A    between atoms: C3_3  and  C4_7 
REMARK    3  A    between atoms: C3_3  and  C14_17 
ROOT
HETATM    1  C1  LIG X 999      45.501 129.513  21.138  1.00  0.00     0.015 C 
HETATM    2  C2  LIG X 999      45.001 130.448  20.562  1.00  0.00    -0.075 C 
HETATM    3  C3  LIG X 999      44.388 131.602  19.852  1.00  0.00     0.183 C 
ENDROOT
BRANCH   3   4
HETATM    4  N1  LIG X 999      45.065 132.811  20.344  1.00  0.00    -0.085 NA
HETATM    5  N2  LIG X 999      46.151 132.764  20.927  1.00  0.00    -0.165 NA
HETATM    6  N3  LIG X 999      47.234 132.717  21.508  1.00  0.00     0.068 N 
ENDBRANCH   3   4
BRANCH   3   7
HETATM    7  C4  LIG X 999      44.615 131.457  18.333  1.00  0.00    -0.012 A 
HETATM    8  C5  LIG X 999      43.646 131.920  17.416  1.00  0.00     0.012 A 
HETATM    9  C6  LIG X 999      43.823 131.770  16.039  1.00  0.00     0.013 A 
HETATM   10  C7  LIG X 999      44.968 131.139  15.539  1.00  0.00    -0.026 A 
HETATM   11  C8  LIG X 999      45.152 130.983  14.156  1.00  0.00     0.012 A 
HETATM   12  C12 LIG X 999      45.943 130.650  16.436  1.00  0.00    -0.025 A 
HETATM   13  C9  LIG X 999      46.295 130.343  13.669  1.00  0.00     0.001 A 
HETATM   14  C10 LIG X 999      47.259 129.857  14.556  1.00  0.00     0.001 A 
HETATM   15  C11 LIG X 999      47.086 130.007  15.935  1.00  0.00     0.012 A 
HETATM   16  C13 LIG X 999      45.758 130.805  17.818  1.00  0.00     0.023 A 
ENDBRANCH   3   7
BRANCH   3  17
HETATM   17  C14 LIG X 999      42.845 131.701  20.207  1.00  0.00    -0.005 C 
HETATM   18  C15 LIG X 999      42.373 133.177  20.227  1.00  0.00     0.018 C 
HETATM   19  C16 LIG X 999      41.967 130.936  19.185  1.00  0.00     0.018 C 
HETATM   20  C17 LIG X 999      42.568 131.105  21.613  1.00  0.00     0.018 C 
ENDBRANCH   3  17
TORSDOF 3
ENDMDL
MODEL 3
REMARK VINA RESULT:      -6.0      0.652      2.001
REMARK  3 active torsions:
REMARK  status: ('A' for Active; 'I' for Inactive)
REMARK    1  A    between atoms: C3_3  and  N1_4 
REMARK    2  A    between atoms: C3_3  and  C4_7 
REMARK    3  A    between atoms: C3_3  and  C14_17 
ROOT
HETATM    1  C1  LIG X 999      43.246 131.470  13.945  1.00  0.00     0.015 C 
HETATM    2  C2  LIG X 999      44.181 131.298  14.688  1.00  0.00    -0.075 C 
HETATM    3  C3  LIG X 999      45.334 131.090  15.602  1.00  0.00     0.183 C 
ENDROOT
BRANCH   3   4
HETATM    4  N1  LIG X 999      46.355 132.080  15.231  1.00  0.00    -0.085 NA
HETATM    5  N2  LIG X 999      47.120 131.910  14.278  1.00  0.00    -0.165 NA
HETATM    6  N3  LIG X 999      47.882 131.740  13.328  1.00  0.00     0.068 N 
ENDBRANCH   3   4
BRANCH   3   7
HETATM    7  C4  LIG X 999      44.889 131.320  17.061  1.00  0.00    -0.012 A 
HETATM    8  C5  LIG X 999      45.742 130.980  18.135  1.00  0.00     0.012 A 
HETATM    9  C6  LIG X 999      45.341 131.155  19.461  1.00  0.00     0.013 A 
HETATM   10  C7  LIG X 999      44.070 131.662  19.753  1.00  0.00    -0.026 A 
HETATM   11  C8  LIG X 999      43.660 131.839  21.084  1.00  0.00     0.012 A 
HETATM   12  C12 LIG X 999      43.190 131.991  18.698  1.00  0.00    -0.025 A 
HETATM   13  C9  LIG X 999      42.384 132.337  21.363  1.00  0.00     0.001 A 
HETATM   14  C10 LIG X 999      41.512 132.661  20.321  1.00  0.00     0.001 A 
HETATM   15  C11 LIG X 999      41.910 132.489  18.992  1.00  0.00     0.012 A 
HETATM   16  C13 LIG X 999      43.600 131.814  17.368  1.00  0.00     0.023 A 
ENDBRANCH   3   7
BRANCH   3  17
HETATM   17  C14 LIG X 999      45.936 129.636  15.397  1.00  0.00    -0.005 C 
HETATM   18  C15 LIG X 999      47.091 129.367  16.394  1.00  0.00     0.018 C 
HETATM   19  C16 LIG X 999      44.867 128.534  15.602  1.00  0.00     0.018 C 
HETATM   20  C17 LIG X 999      46.512 129.480  13.964  1.00  0.00     0.018 C 
ENDBRANCH   3  17
TORSDOF 3
ENDMDL
MODEL 4
REMARK VINA RESULT:      -5.4      4.635      7.289
REMARK  3 active torsions:
REMARK  status: ('A' for Active; 'I' for Inactive)
REMARK    1  A    between atoms: C3_3  and  N1_4 
REMARK    2  A    between atoms: C3_3  and  C4_7 
REMARK    3  A    between atoms: C3_3  and  C14_17 
ROOT
HETATM    1  C1  LIG X 999      46.001 130.978  20.478  1.00  0.00     0.015 C 
HETATM    2  C2  LIG X 999      45.086 130.777  21.238  1.00  0.00    -0.075 C 
HETATM    3  C3  LIG X 999      43.956 130.530  22.172  1.00  0.00     0.183 C 
ENDROOT
BRANCH   3   4
HETATM    4  N1  LIG X 999      42.723 130.864  21.446  1.00  0.00    -0.085 NA
HETATM    5  N2  LIG X 999      42.736 131.489  20.382  1.00  0.00    -0.165 NA
HETATM    6  N3  LIG X 999      42.750 132.112  19.322  1.00  0.00     0.068 N 
ENDBRANCH   3   4
BRANCH   3   7
HETATM    7  C4  LIG X 999      43.936 129.041  22.580  1.00  0.00    -0.012 A 
HETATM    8  C5  LIG X 999      42.855 128.515  23.320  1.00  0.00     0.012 A 
HETATM    9  C6  LIG X 999      42.835 127.178  23.721  1.00  0.00     0.013 A 
HETATM   10  C7  LIG X 999      43.904 126.331  23.407  1.00  0.00    -0.026 A 
HETATM   11  C8  LIG X 999      43.893 124.986  23.809  1.00  0.00     0.012 A 
HETATM   12  C12 LIG X 999      45.008 126.838  22.684  1.00  0.00    -0.025 A 
HETATM   13  C9  LIG X 999      44.971 124.153  23.497  1.00  0.00     0.001 A 
HETATM   14  C10 LIG X 999      46.063 124.654  22.784  1.00  0.00     0.001 A 
HETATM   15  C11 LIG X 999      46.085 125.991  22.379  1.00  0.00     0.012 A 
HETATM   16  C13 LIG X 999      45.019 128.183  22.284  1.00  0.00     0.023 A 
ENDBRANCH   3   7
BRANCH   3  17
HETATM   17  C14 LIG X 999      44.077 131.481  23.436  1.00  0.00    -0.005 C 
HETATM   18  C15 LIG X 999      44.958 132.716  23.120  1.00  0.00     0.018 C 
HETATM   19  C16 LIG X 999      42.694 131.993  23.909  1.00  0.00     0.018 C 
HETATM   20  C17 LIG X 999      44.738 130.730  24.623  1.00  0.00     0.018 C 
ENDBRANCH   3  17
TORSDOF 3
ENDMDL
MODEL 5
REMARK VINA RESULT:      -5.1      2.740      6.079
REMARK  3 active torsions:
REMARK  status: ('A' for Active; 'I' for Inactive)
REMARK    1  A    between atoms: C3_3  and  N1_4 
REMARK    2  A    between atoms: C3_3  and  C4_7 
REMARK    3  A    between atoms: C3_3  and  C14_17 
ROOT
HETATM    1  C1  LIG X 999      45.333 128.331  21.928  1.00  0.00     0.015 C 
HETATM    2  C2  LIG X 999      45.047 129.481  21.700  1.00  0.00    -0.075 C 
HETATM    3  C3  LIG X 999      44.698 130.899  21.419  1.00  0.00     0.183 C 
ENDROOT
BRANCH   3   4
HETATM    4  N1  LIG X 999      45.817 131.717  21.908  1.00  0.00    -0.085 NA
HETATM    5  N2  LIG X 999      46.155 132.766  21.354  1.00  0.00    -0.165 NA
HETATM    6  N3  LIG X 999      46.491 133.812  20.802  1.00  0.00     0.068 N 
ENDBRANCH   3   4
BRANCH   3   7
HETATM    7  C4  LIG X 999      44.529 131.100  19.898  1.00  0.00    -0.012 A 
HETATM    8  C5  LIG X 999      43.370 131.719  19.381  1.00  0.00     0.012 A 
HETATM    9  C6  LIG X 999      43.189 131.882  18.006  1.00  0.00     0.013 A 
HETATM   10  C7  LIG X 999      44.156 131.418  17.107  1.00  0.00    -0.026 A 
HETATM   11  C8  LIG X 999      43.980 131.577  15.723  1.00  0.00     0.012 A 
HETATM   12  C12 LIG X 999      45.316 130.778  17.598  1.00  0.00    -0.025 A 
HETATM   13  C9  LIG X 999      44.949 131.101  14.835  1.00  0.00     0.001 A 
HETATM   14  C10 LIG X 999      46.095 130.466  15.319  1.00  0.00     0.001 A 
HETATM   15  C11 LIG X 999      46.280 130.302  16.695  1.00  0.00     0.012 A 
HETATM   16  C13 LIG X 999      45.491 130.619  18.981  1.00  0.00     0.023 A 
ENDBRANCH   3   7
BRANCH   3  17
HETATM   17  C14 LIG X 999      43.385 131.303  22.212  1.00  0.00    -0.005 C 
HETATM   18  C15 LIG X 999      42.531 132.306  21.397  1.00  0.00     0.018 C 
HETATM   19  C16 LIG X 999      42.498 130.073  22.528  1.00  0.00     0.018 C 
HETATM   20  C17 LIG X 999      43.748 131.986  23.557  1.00  0.00     0.018 C 
ENDBRANCH   3  17
TORSDOF 3
ENDMDL
MODEL 6
REMARK VINA RESULT:      -5.1      3.022      6.122
REMARK  3 active torsions:
REMARK  status: ('A' for Active; 'I' for Inactive)
REMARK    1  A    between atoms: C3_3  and  N1_4 
REMARK    2  A    between atoms: C3_3  and  C4_7 
REMARK    3  A    between atoms: C3_3  and  C14_17 
ROOT
HETATM    1  C1  LIG X 999      42.363 131.505  21.440  1.00  0.00     0.015 C 
HETATM    2  C2  LIG X 999      43.471 131.339  20.993  1.00  0.00    -0.075 C 
HETATM    3  C3  LIG X 999      44.836 131.129  20.442  1.00  0.00     0.183 C 
ENDROOT
BRANCH   3   4
HETATM    4  N1  LIG X 999      45.272 129.796  20.880  1.00  0.00    -0.085 NA
HETATM    5  N2  LIG X 999      44.936 129.320  21.968  1.00  0.00    -0.165 NA
HETATM    6  N3  LIG X 999      44.600 128.846  23.052  1.00  0.00     0.068 N 
ENDBRANCH   3   4
BRANCH   3   7
HETATM    7  C4  LIG X 999      44.788 131.183  18.900  1.00  0.00    -0.012 A 
HETATM    8  C5  LIG X 999      43.675 131.745  18.236  1.00  0.00     0.012 A 
HETATM    9  C6  LIG X 999      43.603 131.774  16.842  1.00  0.00     0.013 A 
HETATM   10  C7  LIG X 999      44.635 131.228  16.070  1.00  0.00    -0.026 A 
HETATM   11  C8  LIG X 999      44.569 131.252  14.669  1.00  0.00     0.012 A 
HETATM   12  C12 LIG X 999      45.750 130.642  16.711  1.00  0.00    -0.025 A 
HETATM   13  C9  LIG X 999      45.602 130.696  13.909  1.00  0.00     0.001 A 
HETATM   14  C10 LIG X 999      46.704 130.114  14.541  1.00  0.00     0.001 A 
HETATM   15  C11 LIG X 999      46.780 130.085  15.936  1.00  0.00     0.012 A 
HETATM   16  C13 LIG X 999      45.816 130.618  18.112  1.00  0.00     0.023 A 
ENDBRANCH   3   7
BRANCH   3  17
HETATM   17  C14 LIG X 999      45.833 132.212  21.034  1.00  0.00    -0.005 C 
HETATM   18  C15 LIG X 999      45.595 132.415  22.551  1.00  0.00     0.018 C 
HETATM   19  C16 LIG X 999      47.314 131.803  20.837  1.00  0.00     0.018 C 
HETATM   20  C17 LIG X 999      45.623 133.585  20.342  1.00  0.00     0.018 C 
ENDBRANCH   3  17
TORSDOF 3
ENDMDL
MODEL 7
REMARK VINA RESULT:      -4.9      3.523      6.793
REMARK  3 active torsions:
REMARK  status: ('A' for Active; 'I' for Inactive)
REMARK    1  A    between atoms: C3_3  and  N1_4 
REMARK    2  A    between atoms: C3_3  and  C4_7 
REMARK    3  A    between atoms: C3_3  and  C14_17 
ROOT
HETATM    1  C1  LIG X 999      45.156 132.902  23.913  1.00  0.00     0.015 C 
HETATM    2  C2  LIG X 999      44.519 132.108  23.265  1.00  0.00    -0.075 C 
HETATM    3  C3  LIG X 999      43.732 131.132  22.465  1.00  0.00     0.183 C 
ENDROOT
BRANCH   3   4
HETATM    4  N1  LIG X 999      42.350 131.632  22.426  1.00  0.00    -0.085 NA
HETATM    5  N2  LIG X 999      41.974 132.458  21.591  1.00  0.00    -0.165 NA
HETATM    6  N3  LIG X 999      41.599 133.281  20.757  1.00  0.00     0.068 N 
ENDBRANCH   3   4
BRANCH   3   7
HETATM    7  C4  LIG X 999      44.301 131.056  21.033  1.00  0.00    -0.012 A 
HETATM    8  C5  LIG X 999      45.647 130.688  20.814  1.00  0.00     0.012 A 
HETATM    9  C6  LIG X 999      46.184 130.643  19.526  1.00  0.00     0.013 A 
HETATM   10  C7  LIG X 999      45.396 130.978  18.420  1.00  0.00    -0.026 A 
HETATM   11  C8  LIG X 999      45.930 130.937  17.122  1.00  0.00     0.012 A 
HETATM   12  C12 LIG X 999      44.052 131.369  18.614  1.00  0.00    -0.025 A 
HETATM   13  C9  LIG X 999      45.134 131.283  16.026  1.00  0.00     0.001 A 
HETATM   14  C10 LIG X 999      43.806 131.672  16.217  1.00  0.00     0.001 A 
HETATM   15  C11 LIG X 999      43.264 131.717  17.505  1.00  0.00     0.012 A 
HETATM   16  C13 LIG X 999      43.518 131.411  19.911  1.00  0.00     0.023 A 
ENDBRANCH   3   7
BRANCH   3  17
HETATM   17  C14 LIG X 999      43.742 129.714  23.176  1.00  0.00    -0.005 C 
HETATM   18  C15 LIG X 999      44.627 128.709  22.396  1.00  0.00     0.018 C 
HETATM   19  C16 LIG X 999      44.283 129.796  24.625  1.00  0.00     0.018 C 
HETATM   20  C17 LIG X 999      42.308 129.123  23.236  1.00  0.00     0.018 C 
ENDBRANCH   3  17
TORSDOF 3
ENDMDL
MODEL 8
REMARK VINA RESULT:      -4.7      2.661      6.108
REMARK  3 active torsions:
REMARK  status: ('A' for Active; 'I' for Inactive)
REMARK    1  A    between atoms: C3_3  and  N1_4 
REMARK    2  A    between atoms: C3_3  and  C4_7 
REMARK    3  A    between atoms: C3_3  and  C14_17 
ROOT
HETATM    1  C1  LIG X 999      45.247 129.653  21.920  1.00  0.00     0.015 C 
HETATM    2  C2  LIG X 999      44.891 130.510  21.149  1.00  0.00    -0.075 C 
HETATM    3  C3  LIG X 999      44.455 131.568  20.200  1.00  0.00     0.183 C 
ENDROOT
BRANCH   3   4
HETATM    4  N1  LIG X 999      45.168 132.797  20.578  1.00  0.00    -0.085 NA
HETATM    5  N2  LIG X 999      46.264 132.774  21.143  1.00  0.00    -0.165 NA
HETATM    6  N3  LIG X 999      47.357 132.750  21.706  1.00  0.00     0.068 N 
ENDBRANCH   3   4
BRANCH   3   7
HETATM    7  C4  LIG X 999      44.837 131.164  18.761  1.00  0.00    -0.012 A 
HETATM    8  C5  LIG X 999      45.932 130.304  18.524  1.00  0.00     0.012 A 
HETATM    9  C6  LIG X 999      46.308 129.952  17.226  1.00  0.00     0.013 A 
HETATM   10  C7  LIG X 999      45.610 130.462  16.126  1.00  0.00    -0.026 A 
HETATM   11  C8  LIG X 999      45.983 130.115  14.818  1.00  0.00     0.012 A 
HETATM   12  C12 LIG X 999      44.523 131.340  16.335  1.00  0.00    -0.025 A 
HETATM   13  C9  LIG X 999      45.283 130.638  13.727  1.00  0.00     0.001 A 
HETATM   14  C10 LIG X 999      44.210 131.509  13.933  1.00  0.00     0.001 A 
HETATM   15  C11 LIG X 999      43.829 131.861  15.231  1.00  0.00     0.012 A 
HETATM   16  C13 LIG X 999      44.150 131.688  17.642  1.00  0.00     0.023 A 
ENDBRANCH   3   7
BRANCH   3  17
HETATM   17  C14 LIG X 999      42.895 131.818  20.344  1.00  0.00    -0.005 C 
HETATM   18  C15 LIG X 999      42.409 131.484  21.776  1.00  0.00     0.018 C 
HETATM   19  C16 LIG X 999      42.515 133.289  20.044  1.00  0.00     0.018 C 
HETATM   20  C17 LIG X 999      42.104 130.914  19.361  1.00  0.00     0.018 C 
ENDBRANCH   3  17
TORSDOF 3
ENDMDL
MODEL 9
REMARK VINA RESULT:      -4.6      2.938      6.112
REMARK  3 active torsions:
REMARK  status: ('A' for Active; 'I' for Inactive)
REMARK    1  A    between atoms: C3_3  and  N1_4 
REMARK    2  A    between atoms: C3_3  and  C4_7 
REMARK    3  A    between atoms: C3_3  and  C14_17 
ROOT
HETATM    1  C1  LIG X 999      46.792 133.258  21.610  1.00  0.00     0.015 C 
HETATM    2  C2  LIG X 999      45.831 132.657  21.197  1.00  0.00    -0.075 C 
HETATM    3  C3  LIG X 999      44.646 131.919  20.686  1.00  0.00     0.183 C 
ENDROOT
BRANCH   3   4
HETATM    4  N1  LIG X 999      43.556 132.898  20.564  1.00  0.00    -0.085 NA
HETATM    5  N2  LIG X 999      42.573 132.700  19.844  1.00  0.00    -0.165 NA
HETATM    6  N3  LIG X 999      41.594 132.503  19.127  1.00  0.00     0.068 N 
ENDBRANCH   3   4
BRANCH   3   7
HETATM    7  C4  LIG X 999      44.966 131.318  19.301  1.00  0.00    -0.012 A 
HETATM    8  C5  LIG X 999      45.936 130.301  19.167  1.00  0.00     0.012 A 
HETATM    9  C6  LIG X 999      46.258 129.767  17.917  1.00  0.00     0.013 A 
HETATM   10  C7  LIG X 999      45.629 130.246  16.762  1.00  0.00    -0.026 A 
HETATM   11  C8  LIG X 999      45.949 129.717  15.502  1.00  0.00     0.012 A 
HETATM   12  C12 LIG X 999      44.669 131.278  16.867  1.00  0.00    -0.025 A 
HETATM   13  C9  LIG X 999      45.321 130.210  14.355  1.00  0.00     0.001 A 
HETATM   14  C10 LIG X 999      44.373 131.231  14.457  1.00  0.00     0.001 A 
HETATM   15  C11 LIG X 999      44.047 131.766  15.707  1.00  0.00     0.012 A 
HETATM   16  C13 LIG X 999      44.351 131.808  18.126  1.00  0.00     0.023 A 
ENDBRANCH   3   7
BRANCH   3  17
HETATM   17  C14 LIG X 999      44.213 130.800  21.723  1.00  0.00    -0.005 C 
HETATM   18  C15 LIG X 999      42.752 130.348  21.475  1.00  0.00     0.018 C 
HETATM   19  C16 LIG X 999      45.119 129.547  21.634  1.00  0.00     0.018 C 
HETATM   20  C17 LIG X 999      44.292 131.341  23.176  1.00  0.00     0.018 C 
ENDBRANCH   3  17
TORSDOF 3
ENDMDL
