REMARK VINA RESULT:      -7.7      1.227      2.313
REMARK  1 active torsions:
REMARK  status: ('A' for Active; 'I' for Inactive)
REMARK    1  A    between atoms: C8_9  and  N2_10 
ROOT
HETATM    1  C1  LIG X 999      46.129 132.038  14.951  1.00  0.00     0.283 C 
HETATM    2  N1  LIG X 999      45.271 131.053  15.641  1.00  0.00    -0.005 N 
HETATM    3  C2  LIG X 999      44.902 129.954  14.724  1.00  0.00     0.283 C 
HETATM    4  C3  LIG X 999      44.052 131.707  16.224  1.00  0.00     0.286 A 
HETATM    5  C4  LIG X 999      44.140 131.493  17.703  1.00  0.00    -0.015 A 
HETATM    6  C5  LIG X 999      43.246 131.912  18.689  1.00  0.00     0.022 A 
HETATM    7  C6  LIG X 999      43.529 131.598  20.034  1.00  0.00    -0.023 A 
HETATM    8  C7  LIG X 999      42.658 132.000  21.058  1.00  0.00     0.041 A 
HETATM    9  C8  LIG X 999      42.944 131.685  22.395  1.00  0.00     0.026 A 
HETATM   10  C9  LIG X 999      44.107 130.967  22.709  1.00  0.00     0.030 A 
HETATM   11  C10 LIG X 999      44.984 130.561  21.700  1.00  0.00     0.014 A 
HETATM   12  C11 LIG X 999      44.710 130.868  20.361  1.00  0.00    -0.025 A 
HETATM   13  C12 LIG X 999      45.589 130.462  19.338  1.00  0.00     0.030 A 
HETATM   14  C13 LIG X 999      45.266 130.795  18.023  1.00  0.00     0.049 A 
HETATM   15  C14 LIG X 999      45.960 130.521  16.794  1.00  0.00     0.351 A 
HETATM   16  O1  LIG X 999      47.049 129.887  16.726  1.00  0.00    -0.259 OA
ENDROOT
BRANCH   9  17
HETATM   17  N2  LIG X 999      42.053 132.097  23.435  1.00  0.00    -0.399 N 
HETATM   18  H11 LIG X 999      41.238 132.716  23.228  1.00  0.00     0.156 HD
HETATM   19  H12 LIG X 999      42.201 131.785  24.421  1.00  0.00     0.156 HD
ENDBRANCH   9  17
TORSDOF 1
