REMARK VINA RESULT:      -6.0      3.049      7.853
REMARK  6 active torsions:
REMARK  status: ('A' for Active; 'I' for Inactive)
REMARK    1  A    between atoms: O1_2  and  C2_3 
REMARK    2  A    between atoms: C2_3  and  C3_5 
REMARK    3  A    between atoms: C6_9  and  N1_10 
REMARK    4  A    between atoms: N1_10  and  C7_11 
REMARK    5  A    between atoms: C7_11  and  N2_13 
REMARK    6  A    between atoms: N2_13  and  C8_14 
ROOT
HETATM    1  C7  LIG X 999      43.550 131.395  23.285  1.00  0.00     0.278 C 
HETATM    2  S2  LIG X 999      44.087 132.180  24.625  1.00  0.00    -0.033 SA
ENDROOT
BRANCH   1   3
HETATM    3  N1  LIG X 999      44.409 131.319  22.132  1.00  0.00     0.012 N 
HETATM    4  H6  LIG X 999      44.783 130.344  22.066  1.00  0.00     0.293 HD
HETATM    5  H7  LIG X 999      45.223 131.967  22.228  1.00  0.00     0.293 HD
BRANCH   3   6
HETATM    6  C6  LIG X 999      43.679 131.656  20.934  1.00  0.00     0.164 A 
HETATM    7  C3  LIG X 999      44.136 131.423  19.627  1.00  0.00     0.114 A 
HETATM    8  S1  LIG X 999      42.982 132.036  18.565  1.00  0.00    -0.094 SA
HETATM    9  C4  LIG X 999      41.905 132.592  19.726  1.00  0.00     0.053 A 
HETATM   10  C5  LIG X 999      42.434 132.310  20.977  1.00  0.00     0.046 A 
BRANCH   7  11
HETATM   11  C2  LIG X 999      45.395 130.791  19.193  1.00  0.00     0.302 C 
HETATM   12  O2  LIG X 999      46.060 130.108  20.019  1.00  0.00    -0.259 OA
BRANCH  11  13
HETATM   13  O1  LIG X 999      45.854 130.942  17.883  1.00  0.00    -0.322 OA
HETATM   14  C1  LIG X 999      45.850 129.880  16.938  1.00  0.00     0.213 C 
ENDBRANCH  11  13
ENDBRANCH   7  11
ENDBRANCH   3   6
ENDBRANCH   1   3
BRANCH   1  15
HETATM   15  N2  LIG X 999      42.430 130.501  23.400  1.00  0.00    -0.327 N 
HETATM   16  H8  LIG X 999      41.475 130.921  23.458  1.00  0.00     0.168 HD
BRANCH  15  17
HETATM   17  C8  LIG X 999      42.556 129.072  23.495  1.00  0.00     0.035 A 
HETATM   18  C9  LIG X 999      43.817 128.449  23.507  1.00  0.00     0.030 A 
HETATM   19  C10 LIG X 999      43.923 127.061  23.628  1.00  0.00     0.014 A 
HETATM   20  C11 LIG X 999      42.769 126.274  23.750  1.00  0.00    -0.026 A 
HETATM   21  C12 LIG X 999      42.864 124.879  23.873  1.00  0.00     0.012 A 
HETATM   22  C16 LIG X 999      41.496 126.893  23.759  1.00  0.00    -0.024 A 
HETATM   23  C13 LIG X 999      41.706 124.106  24.001  1.00  0.00     0.001 A 
HETATM   24  C14 LIG X 999      40.450 124.718  24.010  1.00  0.00     0.001 A 
HETATM   25  C15 LIG X 999      40.343 126.106  23.890  1.00  0.00     0.012 A 
HETATM   26  C17 LIG X 999      41.402 128.288  23.638  1.00  0.00     0.041 A 
ENDBRANCH  15  17
ENDBRANCH   1  15
TORSDOF 6
