REMARK VINA RESULT:      -3.9      3.731      7.280
REMARK  3 active torsions:
REMARK  status: ('A' for Active; 'I' for Inactive)
REMARK    1  A    between atoms: C2_2  and  N1_3 
REMARK       I    between atoms: N2_8  and  C7_9 
REMARK    2  A    between atoms: C7_9  and  C8_11 
REMARK    3  A    between atoms: C9_12  and  C10_13 
ROOT
HETATM    1  C8  LIG X 999      44.405 128.982  22.934  1.00  0.00     0.001 C 
HETATM    2  C9  LIG X 999      44.822 127.863  22.770  1.00  0.00    -0.057 C 
ENDROOT
BRANCH   1   3
HETATM    3  C7  LIG X 999      43.895 130.312  23.135  1.00  0.00     0.313 C 
HETATM    4  N2  LIG X 999      43.496 131.123  22.018  1.00  0.00    -0.269 N 
HETATM    5  N1  LIG X 999      43.738 130.723  20.688  1.00  0.00    -0.226 NA
HETATM    6  C6  LIG X 999      42.487 132.156  22.172  1.00  0.00     0.153 C 
HETATM    7  C3  LIG X 999      42.590 131.259  19.932  1.00  0.00     0.119 C 
HETATM    8  C4  LIG X 999      41.935 132.369  20.769  1.00  0.00     0.016 C 
HETATM    9  C5  LIG X 999      42.253 133.767  20.226  1.00  0.00     0.013 C 
HETATM   10  O1  LIG X 999      43.777 130.750  24.311  1.00  0.00    -0.257 OA
BRANCH   5  11
HETATM   11  C2  LIG X 999      45.001 131.339  20.225  1.00  0.00     0.109 C 
HETATM   12  C1  LIG X 999      45.083 131.365  18.701  1.00  0.00     0.023 C 
ENDBRANCH   5  11
ENDBRANCH   1   3
BRANCH   2  13
HETATM   13  C10 LIG X 999      45.310 126.524  22.579  1.00  0.00     0.019 A 
HETATM   14  C11 LIG X 999      44.426 125.440  22.642  1.00  0.00     0.021 A 
HETATM   15  C12 LIG X 999      44.896 124.136  22.459  1.00  0.00     0.013 A 
HETATM   16  C13 LIG X 999      46.257 123.905  22.211  1.00  0.00    -0.026 A 
HETATM   17  C14 LIG X 999      46.740 122.601  22.026  1.00  0.00     0.012 A 
HETATM   18  C18 LIG X 999      47.153 125.000  22.147  1.00  0.00    -0.025 A 
HETATM   19  C15 LIG X 999      48.099 122.384  21.780  1.00  0.00     0.001 A 
HETATM   20  C16 LIG X 999      48.983 123.464  21.717  1.00  0.00     0.001 A 
HETATM   21  C17 LIG X 999      48.515 124.769  21.899  1.00  0.00     0.012 A 
HETATM   22  C19 LIG X 999      46.672 126.305  22.332  1.00  0.00     0.032 A 
ENDBRANCH   2  13
TORSDOF 3
