REMARK VINA RESULT:      -6.4      2.230      3.791
REMARK  1 active torsions:
REMARK  status: ('A' for Active; 'I' for Inactive)
REMARK    1  A    between atoms: C5_8  and  O1_9 
ROOT
HETATM    1  H1  LIG X 999      41.166 132.817  21.931  1.00  0.00     0.187 HD
HETATM    2  N1  LIG X 999      42.092 132.388  21.709  1.00  0.00    -0.300 NA
HETATM    3  C1  LIG X 999      42.484 132.208  20.488  1.00  0.00     0.059 A 
HETATM    4  C2  LIG X 999      41.617 132.614  19.327  1.00  0.00     0.034 A 
HETATM    5  C3  LIG X 999      42.027 132.426  18.050  1.00  0.00     0.035 A 
HETATM    6  C4  LIG X 999      43.348 131.812  17.820  1.00  0.00     0.071 A 
HETATM    7  N2  LIG X 999      43.965 131.527  16.649  1.00  0.00    -0.224 NA
HETATM    8  C5  LIG X 999      45.155 130.972  17.023  1.00  0.00     0.174 A 
HETATM    9  C6  LIG X 999      45.271 130.915  18.403  1.00  0.00     0.030 A 
HETATM   10  C7  LIG X 999      46.251 130.459  19.287  1.00  0.00     0.017 A 
HETATM   11  C8  LIG X 999      45.984 130.580  20.674  1.00  0.00     0.002 A 
HETATM   12  C9  LIG X 999      44.763 131.147  21.135  1.00  0.00     0.015 A 
HETATM   13  C10 LIG X 999      43.806 131.593  20.199  1.00  0.00     0.005 A 
HETATM   14  C11 LIG X 999      44.123 131.449  18.867  1.00  0.00     0.020 A 
ENDROOT
BRANCH   8  15
HETATM   15  O1  LIG X 999      46.116 130.527  16.124  1.00  0.00    -0.344 OA
HETATM   16  H4  LIG X 999      47.102 130.635  16.328  1.00  0.00     0.219 HD
ENDBRANCH   8  15
TORSDOF 1
