REMARK VINA RESULT:      -8.0      0.737      2.665
REMARK  2 active torsions:
REMARK  status: ('A' for Active; 'I' for Inactive)
REMARK    1  A    between atoms: N1_1  and  C1_2 
REMARK    2  A    between atoms: C2_5  and  C3_6 
ROOT
HETATM    1  C3  LIG X 999      44.329 131.447  17.524  1.00  0.00     0.030 A 
HETATM    2  C4  LIG X 999      43.086 131.866  17.018  1.00  0.00     0.017 A 
HETATM    3  C5  LIG X 999      42.030 132.174  17.872  1.00  0.00     0.002 A 
HETATM    4  C6  LIG X 999      42.189 132.073  19.251  1.00  0.00     0.012 A 
HETATM    5  C7  LIG X 999      43.421 131.685  19.793  1.00  0.00    -0.025 A 
HETATM    6  C8  LIG X 999      43.576 131.612  21.186  1.00  0.00     0.012 A 
HETATM    7  C9  LIG X 999      44.807 131.264  21.741  1.00  0.00     0.001 A 
HETATM    8  C10 LIG X 999      45.896 130.999  20.913  1.00  0.00     0.001 A 
HETATM    9  C11 LIG X 999      45.760 131.064  19.523  1.00  0.00     0.013 A 
HETATM   10  C12 LIG X 999      44.515 131.382  18.934  1.00  0.00    -0.011 A 
ENDROOT
BRANCH   1  11
HETATM   11  C2  LIG X 999      45.372 131.055  16.547  1.00  0.00     0.203 A 
HETATM   12  N3  LIG X 999      46.128 129.940  16.660  1.00  0.00    -0.145 NA
HETATM   13  N2  LIG X 999      46.953 129.960  15.627  1.00  0.00    -0.240 N 
HETATM   14  C1  LIG X 999      46.684 131.074  14.931  1.00  0.00     0.240 A 
HETATM   15  H3  LIG X 999      47.674 129.235  15.417  1.00  0.00     0.193 HD
HETATM   16  O1  LIG X 999      45.716 131.758  15.487  1.00  0.00    -0.257 OA
BRANCH  14  17
HETATM   17  N1  LIG X 999      47.363 131.463  13.740  1.00  0.00    -0.364 N 
HETATM   18  H1  LIG X 999      46.854 131.981  12.992  1.00  0.00     0.159 HD
HETATM   19  H2  LIG X 999      48.373 131.232  13.609  1.00  0.00     0.159 HD
ENDBRANCH  14  17
ENDBRANCH   1  11
TORSDOF 2
