REMARK VINA RESULT:      -8.5      1.068      2.906
REMARK  1 active torsions:
REMARK  status: ('A' for Active; 'I' for Inactive)
REMARK    1  A    between atoms: C2_5  and  C3_6 
ROOT
HETATM    1  C3  LIG X 999      45.389 130.835  18.276  1.00  0.00     0.028 A 
HETATM    2  C4  LIG X 999      46.301 130.546  19.318  1.00  0.00     0.017 A 
HETATM    3  C5  LIG X 999      46.010 130.832  20.647  1.00  0.00     0.002 A 
HETATM    4  C6  LIG X 999      44.803 131.420  20.989  1.00  0.00     0.012 A 
HETATM    5  C7  LIG X 999      43.863 131.728  20.002  1.00  0.00    -0.025 A 
HETATM    6  C8  LIG X 999      42.650 132.322  20.386  1.00  0.00     0.012 A 
HETATM    7  C9  LIG X 999      41.690 132.644  19.431  1.00  0.00     0.001 A 
HETATM    8  C10 LIG X 999      41.931 132.376  18.087  1.00  0.00     0.001 A 
HETATM    9  C11 LIG X 999      43.131 131.787  17.686  1.00  0.00     0.013 A 
HETATM   10  C12 LIG X 999      44.134 131.444  18.628  1.00  0.00    -0.011 A 
ENDROOT
BRANCH   1  11
HETATM   11  C2  LIG X 999      45.798 130.485  16.871  1.00  0.00     0.177 A 
HETATM   12  O1  LIG X 999      46.189 131.347  15.954  1.00  0.00    -0.258 OA
HETATM   13  C1  LIG X 999      46.450 130.635  14.885  1.00  0.00     0.260 A 
HETATM   14  N1  LIG X 999      46.864 131.125  13.763  1.00  0.00    -0.261 NA
HETATM   15  N3  LIG X 999      46.235 129.331  15.100  1.00  0.00    -0.262 N 
HETATM   16  H1  LIG X 999      47.014 132.152  13.652  1.00  0.00     0.190 HD
HETATM   17  N2  LIG X 999      45.825 129.231  16.351  1.00  0.00    -0.276 N 
HETATM   18  H10 LIG X 999      46.359 128.537  14.433  1.00  0.00     0.190 HD
HETATM   19  H9  LIG X 999      45.579 128.324  16.802  1.00  0.00     0.189 HD
ENDBRANCH   1  11
TORSDOF 1
