REMARK VINA RESULT:      -7.4      0.000      0.000
REMARK  3 active torsions:
REMARK  status: ('A' for Active; 'I' for Inactive)
REMARK    1  A    between atoms: C3_3  and  S1_4 
REMARK    2  A    between atoms: S1_4  and  C4_5 
REMARK    3  A    between atoms: C8_9  and  N1_10 
ROOT
HETATM    1  C1  LIG X 999      45.004 127.737  23.186  1.00  0.00     0.013 C 
HETATM    2  C2  LIG X 999      44.286 128.704  23.210  1.00  0.00    -0.107 C 
HETATM    3  C3  LIG X 999      43.409 129.879  23.234  1.00  0.00     0.172 C 
ENDROOT
BRANCH   3   4
HETATM    4  S1  LIG X 999      44.380 131.414  23.055  1.00  0.00    -0.117 SA
BRANCH   4   5
HETATM    5  C4  LIG X 999      44.681 131.209  21.292  1.00  0.00     0.015 A 
HETATM    6  C5  LIG X 999      45.899 130.594  20.882  1.00  0.00     0.020 A 
HETATM    7  C6  LIG X 999      46.211 130.427  19.513  1.00  0.00     0.018 A 
HETATM    8  C7  LIG X 999      45.282 130.883  18.583  1.00  0.00     0.026 A 
HETATM    9  C8  LIG X 999      45.229 130.894  17.198  1.00  0.00     0.175 A 
HETATM   10  C10 LIG X 999      44.122 131.454  18.989  1.00  0.00     0.019 A 
HETATM   11  N4  LIG X 999      44.065 131.459  16.771  1.00  0.00    -0.337 N 
HETATM   12  H6  LIG X 999      43.748 131.601  15.786  1.00  0.00     0.167 HD
HETATM   13  C9  LIG X 999      43.395 131.798  17.895  1.00  0.00     0.046 A 
HETATM   14  C14 LIG X 999      42.077 132.433  18.038  1.00  0.00     0.033 A 
HETATM   15  C13 LIG X 999      41.606 132.656  19.285  1.00  0.00     0.034 A 
HETATM   16  C12 LIG X 999      42.402 132.264  20.500  1.00  0.00     0.060 A 
HETATM   17  C11 LIG X 999      43.750 131.641  20.305  1.00  0.00     0.022 A 
HETATM   18  N5  LIG X 999      41.910 132.443  21.684  1.00  0.00    -0.299 NA
HETATM   19  H7  LIG X 999      40.967 132.868  21.833  1.00  0.00     0.187 HD
BRANCH   9  20
HETATM   20  N1  LIG X 999      46.247 130.383  16.333  1.00  0.00    -0.053 NA
HETATM   21  N2  LIG X 999      46.536 130.953  15.281  1.00  0.00    -0.160 NA
HETATM   22  N3  LIG X 999      46.823 131.522  14.230  1.00  0.00     0.068 N 
ENDBRANCH   9  20
ENDBRANCH   4   5
ENDBRANCH   3   4
TORSDOF 3
