REMARK VINA RESULT:      -4.1      3.343      6.195
REMARK  3 active torsions:
REMARK  status: ('A' for Active; 'I' for Inactive)
REMARK    1  A    between atoms: C3_3  and  O1_4 
REMARK    2  A    between atoms: O1_4  and  C4_5 
REMARK    3  A    between atoms: C15_16  and  C16_17 
ROOT
HETATM    1  C1  LIG X 999      45.533 131.897  19.843  1.00  0.00     0.014 C 
HETATM    2  C2  LIG X 999      44.929 131.449  20.785  1.00  0.00    -0.091 C 
HETATM    3  C3  LIG X 999      44.197 130.904  21.928  1.00  0.00     0.268 C 
ENDROOT
BRANCH   3   4
HETATM    4  O1  LIG X 999      44.248 129.481  21.882  1.00  0.00    -0.339 OA
BRANCH   4   5
HETATM    5  C4  LIG X 999      43.924 128.626  22.949  1.00  0.00     0.083 C 
HETATM    6  C5  LIG X 999      42.832 128.938  23.803  1.00  0.00     0.038 C 
HETATM    7  C6  LIG X 999      42.101 128.033  24.596  1.00  0.00     0.003 C 
HETATM    8  C7  LIG X 999      42.072 126.645  24.427  1.00  0.00     0.002 C 
HETATM    9  C8  LIG X 999      42.266 126.017  23.193  1.00  0.00     0.020 C 
HETATM   10  C9  LIG X 999      43.044 124.858  23.058  1.00  0.00     0.016 C 
HETATM   11  C10 LIG X 999      42.759 123.970  21.960  1.00  0.00    -0.078 C 
HETATM   12  C12 LIG X 999      44.150 124.563  23.883  1.00  0.00     0.020 C 
HETATM   13  C11 LIG X 999      42.521 123.228  21.041  1.00  0.00     0.018 C 
HETATM   14  C13 LIG X 999      44.892 125.505  24.625  1.00  0.00     0.002 C 
HETATM   15  C14 LIG X 999      44.926 126.888  24.375  1.00  0.00     0.017 C 
HETATM   16  C15 LIG X 999      44.721 127.470  23.107  1.00  0.00     0.035 C 
BRANCH  16  17
HETATM   17  C16 LIG X 999      45.395 126.905  21.916  1.00  0.00     0.272 C 
HETATM   18  O2  LIG X 999      46.498 126.301  22.013  1.00  0.00    -0.301 OA
ENDBRANCH  16  17
ENDBRANCH   4   5
ENDBRANCH   3   4
TORSDOF 3
