REMARK VINA RESULT:      -8.5      0.000      0.000
REMARK  2 active torsions:
REMARK  status: ('A' for Active; 'I' for Inactive)
REMARK    1  A    between atoms: C1_1  and  N1_14 
REMARK    2  A    between atoms: C2_2  and  C3_4 
ROOT
HETATM    1  C3  LIG X 999      45.919 130.853  15.082  1.00  0.00     0.003 A 
HETATM    2  C4  LIG X 999      44.636 131.268  14.673  1.00  0.00     0.015 A 
HETATM    3  C5  LIG X 999      43.663 131.609  15.616  1.00  0.00     0.013 A 
HETATM    4  C6  LIG X 999      43.949 131.535  16.986  1.00  0.00    -0.026 A 
HETATM    5  C7  LIG X 999      42.977 131.875  17.940  1.00  0.00     0.012 A 
HETATM    6  C8  LIG X 999      43.273 131.793  19.303  1.00  0.00     0.001 A 
HETATM    7  C9  LIG X 999      44.537 131.370  19.723  1.00  0.00     0.001 A 
HETATM    8  C10 LIG X 999      45.513 131.027  18.783  1.00  0.00     0.012 A 
HETATM    9  C11 LIG X 999      45.228 131.106  17.411  1.00  0.00    -0.025 A 
HETATM   10  C12 LIG X 999      46.199 130.764  16.457  1.00  0.00     0.026 A 
ENDROOT
BRANCH   1  11
HETATM   11  C2  LIG X 999      46.967 130.473  14.100  1.00  0.00     0.132 C 
HETATM   12  C1  LIG X 999      47.747 129.396  14.273  1.00  0.00     0.121 C 
HETATM   13  O1  LIG X 999      47.121 131.252  12.956  1.00  0.00    -0.190 OA
BRANCH  12  14
HETATM   14  N1  LIG X 999      48.757 129.041  13.325  1.00  0.00    -0.406 N 
HETATM   15  H9  LIG X 999      48.774 128.108  12.856  1.00  0.00     0.155 HD
HETATM   16  H10 LIG X 999      49.501 129.732  13.085  1.00  0.00     0.155 HD
ENDBRANCH  12  14
ENDBRANCH   1  11
TORSDOF 2
