REMARK VINA RESULT:      -5.5      2.697      4.423
REMARK  1 active torsions:
REMARK  status: ('A' for Active; 'I' for Inactive)
REMARK    1  A    between atoms: C11_13  and  O1_14 
ROOT
HETATM    1  H1  LIG X 999      45.304 128.055  24.333  1.00  0.00     0.187 HD
HETATM    2  N1  LIG X 999      45.384 128.544  23.413  1.00  0.00    -0.300 NA
HETATM    3  C1  LIG X 999      44.530 129.446  23.045  1.00  0.00     0.059 A 
HETATM    4  C2  LIG X 999      43.376 129.830  23.934  1.00  0.00     0.034 A 
HETATM    5  C3  LIG X 999      42.483 130.772  23.549  1.00  0.00     0.033 A 
HETATM    6  C4  LIG X 999      42.668 131.415  22.235  1.00  0.00     0.046 A 
HETATM    7  C5  LIG X 999      43.706 131.067  21.438  1.00  0.00     0.018 A 
HETATM    8  C6  LIG X 999      44.666 130.127  21.730  1.00  0.00     0.005 A 
HETATM    9  C7  LIG X 999      45.667 129.915  20.759  1.00  0.00     0.015 A 
HETATM   10  C8  LIG X 999      45.643 130.661  19.549  1.00  0.00     0.002 A 
HETATM   11  C9  LIG X 999      44.624 131.618  19.305  1.00  0.00     0.017 A 
HETATM   12  C10 LIG X 999      43.658 131.793  20.296  1.00  0.00     0.028 A 
HETATM   13  C11 LIG X 999      42.539 132.601  20.433  1.00  0.00     0.151 A 
HETATM   14  N2  LIG X 999      41.926 132.369  21.628  1.00  0.00    -0.336 N 
HETATM   15  H8  LIG X 999      41.066 132.831  21.999  1.00  0.00     0.168 HD
ENDROOT
BRANCH  13  16
HETATM   16  O1  LIG X 999      42.092 133.522  19.492  1.00  0.00    -0.345 OA
HETATM   17  H7  LIG X 999      42.718 134.227  19.122  1.00  0.00     0.219 HD
ENDBRANCH  13  16
TORSDOF 1
