MODEL 1
REMARK VINA RESULT:      -6.8      0.000      0.000
REMARK  5 active torsions:
REMARK  status: ('A' for Active; 'I' for Inactive)
REMARK    1  A    between atoms: O1_2  and  C1_3 
REMARK    2  A    between atoms: C1_3  and  O4_19 
REMARK       I    between atoms: N1_4  and  C2_5 
REMARK    3  A    between atoms: C2_5  and  C3_7 
REMARK    4  A    between atoms: C4_8  and  O3_9 
REMARK    5  A    between atoms: O4_19  and  C13_20 
ROOT
HETATM    1  C3  LIG X 999      43.956 131.454  21.893  1.00  0.00     0.068 A 
HETATM    2  C4  LIG X 999      42.768 132.021  21.388  1.00  0.00     0.082 A 
HETATM    3  C5  LIG X 999      42.590 132.157  20.003  1.00  0.00     0.049 A 
HETATM    4  C6  LIG X 999      43.576 131.712  19.112  1.00  0.00    -0.023 A 
HETATM    5  C7  LIG X 999      43.399 131.843  17.725  1.00  0.00     0.012 A 
HETATM    6  C8  LIG X 999      44.387 131.392  16.847  1.00  0.00     0.001 A 
HETATM    7  C9  LIG X 999      45.556 130.806  17.343  1.00  0.00     0.001 A 
HETATM    8  C10 LIG X 999      45.742 130.668  18.721  1.00  0.00     0.012 A 
HETATM    9  C11 LIG X 999      44.757 131.119  19.614  1.00  0.00    -0.025 A 
HETATM   10  C12 LIG X 999      44.936 130.990  20.999  1.00  0.00     0.032 A 
ENDROOT
BRANCH   1  11
HETATM   11  C2  LIG X 999      44.176 131.305  23.351  1.00  0.00     0.283 C 
HETATM   12  N1  LIG X 999      44.048 130.043  24.022  1.00  0.00    -0.162 NA
HETATM   13  C1  LIG X 999      43.183 129.115  23.736  1.00  0.00     0.289 C 
HETATM   14  O2  LIG X 999      44.524 132.313  24.023  1.00  0.00    -0.265 OA
BRANCH  13  15
HETATM   15  O1  LIG X 999      42.216 129.325  22.755  1.00  0.00    -0.325 OA
HETATM   16  H1  LIG X 999      42.429 129.165  21.779  1.00  0.00     0.221 HD
ENDBRANCH  13  15
BRANCH  13  17
HETATM   17  O4  LIG X 999      43.185 127.894  24.427  1.00  0.00    -0.294 OA
BRANCH  17  18
HETATM   18  C13 LIG X 999      43.670 126.649  23.912  1.00  0.00     0.224 C 
HETATM   19 CL1  LIG X 999      44.851 126.906  22.595  1.00  0.00    -0.095 Cl
HETATM   20  C14 LIG X 999      42.523 125.750  23.454  1.00  0.00     0.057 C 
ENDBRANCH  17  18
ENDBRANCH  13  17
ENDBRANCH   1  11
BRANCH   2  21
HETATM   21  O3  LIG X 999      41.759 132.434  22.258  1.00  0.00    -0.360 OA
HETATM   22  H2  LIG X 999      40.791 132.493  21.962  1.00  0.00     0.217 HD
ENDBRANCH   2  21
TORSDOF 5
ENDMDL
MODEL 2
REMARK VINA RESULT:      -5.9      1.589      2.363
REMARK  5 active torsions:
REMARK  status: ('A' for Active; 'I' for Inactive)
REMARK    1  A    between atoms: O1_2  and  C1_3 
REMARK    2  A    between atoms: C1_3  and  O4_19 
REMARK       I    between atoms: N1_4  and  C2_5 
REMARK    3  A    between atoms: C2_5  and  C3_7 
REMARK    4  A    between atoms: C4_8  and  O3_9 
REMARK    5  A    between atoms: O4_19  and  C13_20 
ROOT
HETATM    1  C3  LIG X 999      44.956 131.548  19.570  1.00  0.00     0.068 A 
HETATM    2  C4  LIG X 999      43.772 132.114  19.053  1.00  0.00     0.082 A 
HETATM    3  C5  LIG X 999      43.453 131.955  17.697  1.00  0.00     0.049 A 
HETATM    4  C6  LIG X 999      44.293 131.217  16.851  1.00  0.00    -0.023 A 
HETATM    5  C7  LIG X 999      43.975 131.053  15.493  1.00  0.00     0.012 A 
HETATM    6  C8  LIG X 999      44.817 130.311  14.661  1.00  0.00     0.001 A 
HETATM    7  C9  LIG X 999      45.979 129.728  15.174  1.00  0.00     0.001 A 
HETATM    8  C10 LIG X 999      46.305 129.883  16.525  1.00  0.00     0.012 A 
HETATM    9  C11 LIG X 999      45.467 130.627  17.371  1.00  0.00    -0.025 A 
HETATM   10  C12 LIG X 999      45.787 130.791  18.727  1.00  0.00     0.032 A 
ENDROOT
BRANCH   1  11
HETATM   11  C2  LIG X 999      45.323 131.706  20.997  1.00  0.00     0.283 C 
HETATM   12  N1  LIG X 999      44.852 130.811  22.015  1.00  0.00    -0.162 NA
HETATM   13  C1  LIG X 999      43.678 130.251  22.050  1.00  0.00     0.289 C 
HETATM   14  O2  LIG X 999      46.106 132.636  21.328  1.00  0.00    -0.265 OA
BRANCH  13  15
HETATM   15  O1  LIG X 999      42.716 130.559  21.090  1.00  0.00    -0.325 OA
HETATM   16  H1  LIG X 999      41.808 130.913  21.366  1.00  0.00     0.221 HD
ENDBRANCH  13  15
BRANCH  13  17
HETATM   17  O4  LIG X 999      43.344 129.347  23.069  1.00  0.00    -0.294 OA
BRANCH  17  18
HETATM   18  C13 LIG X 999      44.236 128.397  23.662  1.00  0.00     0.224 C 
HETATM   19 CL1  LIG X 999      45.117 127.466  22.416  1.00  0.00    -0.095 Cl
HETATM   20  C14 LIG X 999      43.501 127.466  24.625  1.00  0.00     0.057 C 
ENDBRANCH  17  18
ENDBRANCH  13  17
ENDBRANCH   1  11
BRANCH   2  21
HETATM   21  O3  LIG X 999      42.905 132.817  19.889  1.00  0.00    -0.360 OA
HETATM   22  H2  LIG X 999      43.247 133.464  20.590  1.00  0.00     0.217 HD
ENDBRANCH   2  21
TORSDOF 5
ENDMDL
MODEL 3
REMARK VINA RESULT:      -5.8      5.523      7.956
REMARK  5 active torsions:
REMARK  status: ('A' for Active; 'I' for Inactive)
REMARK    1  A    between atoms: O1_2  and  C1_3 
REMARK    2  A    between atoms: C1_3  and  O4_19 
REMARK       I    between atoms: N1_4  and  C2_5 
REMARK    3  A    between atoms: C2_5  and  C3_7 
REMARK    4  A    between atoms: C4_8  and  O3_9 
REMARK    5  A    between atoms: O4_19  and  C13_20 
ROOT
HETATM    1  C3  LIG X 999      44.420 130.974  16.550  1.00  0.00     0.068 A 
HETATM    2  C4  LIG X 999      45.490 130.568  17.373  1.00  0.00     0.082 A 
HETATM    3  C5  LIG X 999      45.434 130.790  18.757  1.00  0.00     0.049 A 
HETATM    4  C6  LIG X 999      44.308 131.394  19.335  1.00  0.00    -0.023 A 
HETATM    5  C7  LIG X 999      44.247 131.615  20.720  1.00  0.00     0.012 A 
HETATM    6  C8  LIG X 999      43.118 132.214  21.285  1.00  0.00     0.001 A 
HETATM    7  C9  LIG X 999      42.044 132.595  20.475  1.00  0.00     0.001 A 
HETATM    8  C10 LIG X 999      42.093 132.379  19.095  1.00  0.00     0.012 A 
HETATM    9  C11 LIG X 999      43.222 131.779  18.515  1.00  0.00    -0.025 A 
HETATM   10  C12 LIG X 999      43.283 131.561  17.131  1.00  0.00     0.032 A 
ENDROOT
BRANCH   1  11
HETATM   11  C2  LIG X 999      44.455 130.759  15.084  1.00  0.00     0.283 C 
HETATM   12  N1  LIG X 999      45.650 130.940  14.310  1.00  0.00    -0.162 NA
HETATM   13  C1  LIG X 999      46.562 131.844  14.520  1.00  0.00     0.289 C 
HETATM   14  O2  LIG X 999      43.411 130.370  14.497  1.00  0.00    -0.265 OA
BRANCH  13  15
HETATM   15  O1  LIG X 999      46.394 132.802  15.518  1.00  0.00    -0.325 OA
HETATM   16  H1  LIG X 999      45.474 133.167  15.732  1.00  0.00     0.221 HD
ENDBRANCH  13  15
BRANCH  13  17
HETATM   17  O4  LIG X 999      47.720 131.893  13.730  1.00  0.00    -0.294 OA
BRANCH  17  18
HETATM   18  C13 LIG X 999      48.281 130.790  13.010  1.00  0.00     0.224 C 
HETATM   19 CL1  LIG X 999      47.668 130.730  11.332  1.00  0.00    -0.095 Cl
HETATM   20  C14 LIG X 999      48.033 129.468  13.733  1.00  0.00     0.057 C 
ENDBRANCH  17  18
ENDBRANCH  13  17
ENDBRANCH   1  11
BRANCH   2  21
HETATM   21  O3  LIG X 999      46.601 129.930  16.821  1.00  0.00    -0.360 OA
HETATM   22  H2  LIG X 999      47.547 130.216  17.046  1.00  0.00     0.217 HD
ENDBRANCH   2  21
TORSDOF 5
ENDMDL
MODEL 4
REMARK VINA RESULT:      -5.3      1.757      2.901
REMARK  5 active torsions:
REMARK  status: ('A' for Active; 'I' for Inactive)
REMARK    1  A    between atoms: O1_2  and  C1_3 
REMARK    2  A    between atoms: C1_3  and  O4_19 
REMARK       I    between atoms: N1_4  and  C2_5 
REMARK    3  A    between atoms: C2_5  and  C3_7 
REMARK    4  A    between atoms: C4_8  and  O3_9 
REMARK    5  A    between atoms: O4_19  and  C13_20 
ROOT
HETATM    1  C3  LIG X 999      43.541 131.915  19.803  1.00  0.00     0.068 A 
HETATM    2  C4  LIG X 999      44.855 131.546  20.155  1.00  0.00     0.082 A 
HETATM    3  C5  LIG X 999      45.744 131.089  19.170  1.00  0.00     0.049 A 
HETATM    4  C6  LIG X 999      45.341 131.017  17.830  1.00  0.00    -0.023 A 
HETATM    5  C7  LIG X 999      46.229 130.562  16.840  1.00  0.00     0.012 A 
HETATM    6  C8  LIG X 999      45.818 130.499  15.507  1.00  0.00     0.001 A 
HETATM    7  C9  LIG X 999      44.524 130.887  15.149  1.00  0.00     0.001 A 
HETATM    8  C10 LIG X 999      43.632 131.342  16.125  1.00  0.00     0.012 A 
HETATM    9  C11 LIG X 999      44.032 131.410  17.469  1.00  0.00    -0.025 A 
HETATM   10  C12 LIG X 999      43.144 131.861  18.456  1.00  0.00     0.032 A 
ENDROOT
BRANCH   1  11
HETATM   11  C2  LIG X 999      42.578 132.394  20.823  1.00  0.00     0.283 C 
HETATM   12  N1  LIG X 999      42.652 131.989  22.198  1.00  0.00    -0.162 NA
HETATM   13  C1  LIG X 999      43.009 130.814  22.626  1.00  0.00     0.289 C 
HETATM   14  O2  LIG X 999      41.684 133.213  20.483  1.00  0.00    -0.265 OA
BRANCH  13  15
HETATM   15  O1  LIG X 999      43.284 129.785  21.727  1.00  0.00    -0.325 OA
HETATM   16  H1  LIG X 999      43.950 129.060  21.963  1.00  0.00     0.221 HD
ENDBRANCH  13  15
BRANCH  13  17
HETATM   17  O4  LIG X 999      43.097 130.547  24.000  1.00  0.00    -0.294 OA
BRANCH  17  18
HETATM   18  C13 LIG X 999      42.792 129.295  24.625  1.00  0.00     0.224 C 
HETATM   19 CL1  LIG X 999      44.073 128.086  24.318  1.00  0.00    -0.095 Cl
HETATM   20  C14 LIG X 999      41.426 128.771  24.186  1.00  0.00     0.057 C 
ENDBRANCH  17  18
ENDBRANCH  13  17
ENDBRANCH   1  11
BRANCH   2  21
HETATM   21  O3  LIG X 999      45.286 131.650  21.479  1.00  0.00    -0.360 OA
HETATM   22  H2  LIG X 999      45.889 130.953  21.899  1.00  0.00     0.217 HD
ENDBRANCH   2  21
TORSDOF 5
ENDMDL
MODEL 5
REMARK VINA RESULT:      -5.3      3.544      6.119
REMARK  5 active torsions:
REMARK  status: ('A' for Active; 'I' for Inactive)
REMARK    1  A    between atoms: O1_2  and  C1_3 
REMARK    2  A    between atoms: C1_3  and  O4_19 
REMARK       I    between atoms: N1_4  and  C2_5 
REMARK    3  A    between atoms: C2_5  and  C3_7 
REMARK    4  A    between atoms: C4_8  and  O3_9 
REMARK    5  A    between atoms: O4_19  and  C13_20 
ROOT
HETATM    1  C3  LIG X 999      42.806 131.715  20.005  1.00  0.00     0.068 A 
HETATM    2  C4  LIG X 999      42.159 132.571  20.919  1.00  0.00     0.082 A 
HETATM    3  C5  LIG X 999      42.306 132.363  22.298  1.00  0.00     0.049 A 
HETATM    4  C6  LIG X 999      43.111 131.321  22.778  1.00  0.00    -0.023 A 
HETATM    5  C7  LIG X 999      43.263 131.112  24.158  1.00  0.00     0.012 A 
HETATM    6  C8  LIG X 999      44.073 130.073  24.624  1.00  0.00     0.001 A 
HETATM    7  C9  LIG X 999      44.736 129.238  23.721  1.00  0.00     0.001 A 
HETATM    8  C10 LIG X 999      44.594 129.437  22.345  1.00  0.00     0.012 A 
HETATM    9  C11 LIG X 999      43.782 130.477  21.864  1.00  0.00    -0.025 A 
HETATM   10  C12 LIG X 999      43.630 130.683  20.485  1.00  0.00     0.032 A 
ENDROOT
BRANCH   1  11
HETATM   11  C2  LIG X 999      42.663 131.905  18.541  1.00  0.00     0.283 C 
HETATM   12  N1  LIG X 999      43.693 131.534  17.614  1.00  0.00    -0.162 NA
HETATM   13  C1  LIG X 999      44.974 131.632  17.822  1.00  0.00     0.289 C 
HETATM   14  O2  LIG X 999      41.585 132.375  18.088  1.00  0.00    -0.265 OA
BRANCH  13  15
HETATM   15  O1  LIG X 999      45.459 132.209  18.994  1.00  0.00    -0.325 OA
HETATM   16  H1  LIG X 999      45.689 133.194  19.026  1.00  0.00     0.221 HD
ENDBRANCH  13  15
BRANCH  13  17
HETATM   17  O4  LIG X 999      45.893 131.186  16.861  1.00  0.00    -0.294 OA
BRANCH  17  18
HETATM   18  C13 LIG X 999      45.592 130.911  15.489  1.00  0.00     0.224 C 
HETATM   19 CL1  LIG X 999      45.243 129.177  15.235  1.00  0.00    -0.095 Cl
HETATM   20  C14 LIG X 999      46.713 131.387  14.566  1.00  0.00     0.057 C 
ENDBRANCH  17  18
ENDBRANCH  13  17
ENDBRANCH   1  11
BRANCH   2  21
HETATM   21  O3  LIG X 999      41.385 133.637  20.460  1.00  0.00    -0.360 OA
HETATM   22  H2  LIG X 999      41.786 134.551  20.287  1.00  0.00     0.217 HD
ENDBRANCH   2  21
TORSDOF 5
ENDMDL
MODEL 6
REMARK VINA RESULT:      -4.8      4.725      7.413
REMARK  5 active torsions:
REMARK  status: ('A' for Active; 'I' for Inactive)
REMARK    1  A    between atoms: O1_2  and  C1_3 
REMARK    2  A    between atoms: C1_3  and  O4_19 
REMARK       I    between atoms: N1_4  and  C2_5 
REMARK    3  A    between atoms: C2_5  and  C3_7 
REMARK    4  A    between atoms: C4_8  and  O3_9 
REMARK    5  A    between atoms: O4_19  and  C13_20 
ROOT
HETATM    1  C3  LIG X 999      44.073 131.363  17.787  1.00  0.00     0.068 A 
HETATM    2  C4  LIG X 999      45.227 130.669  18.204  1.00  0.00     0.082 A 
HETATM    3  C5  LIG X 999      45.510 130.538  19.572  1.00  0.00     0.049 A 
HETATM    4  C6  LIG X 999      44.640 131.074  20.532  1.00  0.00    -0.023 A 
HETATM    5  C7  LIG X 999      44.919 130.942  21.902  1.00  0.00     0.012 A 
HETATM    6  C8  LIG X 999      44.042 131.477  22.850  1.00  0.00     0.001 A 
HETATM    7  C9  LIG X 999      42.884 132.144  22.440  1.00  0.00     0.001 A 
HETATM    8  C10 LIG X 999      42.596 132.280  21.079  1.00  0.00     0.012 A 
HETATM    9  C11 LIG X 999      43.469 131.749  20.117  1.00  0.00    -0.025 A 
HETATM   10  C12 LIG X 999      43.192 131.883  18.749  1.00  0.00     0.032 A 
ENDROOT
BRANCH   1  11
HETATM   11  C2  LIG X 999      43.753 131.524  16.348  1.00  0.00     0.283 C 
HETATM   12  N1  LIG X 999      44.766 131.530  15.332  1.00  0.00    -0.162 NA
HETATM   13  C1  LIG X 999      45.958 132.038  15.450  1.00  0.00     0.289 C 
HETATM   14  O2  LIG X 999      42.547 131.624  15.998  1.00  0.00    -0.265 OA
BRANCH  13  15
HETATM   15  O1  LIG X 999      46.327 132.718  16.608  1.00  0.00    -0.325 OA
HETATM   16  H1  LIG X 999      46.859 132.251  17.333  1.00  0.00     0.221 HD
ENDBRANCH  13  15
BRANCH  13  17
HETATM   17  O4  LIG X 999      46.888 131.937  14.405  1.00  0.00    -0.294 OA
BRANCH  17  18
HETATM   18  C13 LIG X 999      46.999 130.837  13.495  1.00  0.00     0.224 C 
HETATM   19 CL1  LIG X 999      47.553 129.357  14.328  1.00  0.00    -0.095 Cl
HETATM   20  C14 LIG X 999      47.909 131.178  12.316  1.00  0.00     0.057 C 
ENDBRANCH  17  18
ENDBRANCH  13  17
ENDBRANCH   1  11
BRANCH   2  21
HETATM   21  O3  LIG X 999      46.083 130.094  17.264  1.00  0.00    -0.360 OA
HETATM   22  H2  LIG X 999      46.723 130.654  16.714  1.00  0.00     0.217 HD
ENDBRANCH   2  21
TORSDOF 5
ENDMDL
MODEL 7
REMARK VINA RESULT:      -4.8      2.638      5.734
REMARK  5 active torsions:
REMARK  status: ('A' for Active; 'I' for Inactive)
REMARK    1  A    between atoms: O1_2  and  C1_3 
REMARK    2  A    between atoms: C1_3  and  O4_19 
REMARK       I    between atoms: N1_4  and  C2_5 
REMARK    3  A    between atoms: C2_5  and  C3_7 
REMARK    4  A    between atoms: C4_8  and  O3_9 
REMARK    5  A    between atoms: O4_19  and  C13_20 
ROOT
HETATM    1  C3  LIG X 999      43.932 129.587  23.052  1.00  0.00     0.068 A 
HETATM    2  C4  LIG X 999      42.684 129.112  23.501  1.00  0.00     0.082 A 
HETATM    3  C5  LIG X 999      42.456 127.732  23.607  1.00  0.00     0.049 A 
HETATM    4  C6  LIG X 999      43.470 126.818  23.291  1.00  0.00    -0.023 A 
HETATM    5  C7  LIG X 999      43.247 125.436  23.399  1.00  0.00     0.012 A 
HETATM    6  C8  LIG X 999      44.267 124.534  23.085  1.00  0.00     0.001 A 
HETATM    7  C9  LIG X 999      45.515 125.002  22.663  1.00  0.00     0.001 A 
HETATM    8  C10 LIG X 999      45.750 126.376  22.553  1.00  0.00     0.012 A 
HETATM    9  C11 LIG X 999      44.732 127.292  22.864  1.00  0.00    -0.025 A 
HETATM   10  C12 LIG X 999      44.956 128.672  22.753  1.00  0.00     0.032 A 
ENDROOT
BRANCH   1  11
HETATM   11  C2  LIG X 999      44.199 131.040  22.921  1.00  0.00     0.283 C 
HETATM   12  N1  LIG X 999      44.372 131.678  21.648  1.00  0.00    -0.162 NA
HETATM   13  C1  LIG X 999      44.954 131.154  20.608  1.00  0.00     0.289 C 
HETATM   14  O2  LIG X 999      44.241 131.750  23.961  1.00  0.00    -0.265 OA
BRANCH  13  15
HETATM   15  O1  LIG X 999      45.552 129.898  20.688  1.00  0.00    -0.325 OA
HETATM   16  H1  LIG X 999      45.998 129.488  19.877  1.00  0.00     0.221 HD
ENDBRANCH  13  15
BRANCH  13  17
HETATM   17  O4  LIG X 999      45.017 131.852  19.394  1.00  0.00    -0.294 OA
BRANCH  17  18
HETATM   18  C13 LIG X 999      44.446 131.418  18.154  1.00  0.00     0.224 C 
HETATM   19 CL1  LIG X 999      45.373 132.038  16.758  1.00  0.00    -0.095 Cl
HETATM   20  C14 LIG X 999      42.973 131.807  18.052  1.00  0.00     0.057 C 
ENDBRANCH  17  18
ENDBRANCH  13  17
ENDBRANCH   1  11
BRANCH   2  21
HETATM   21  O3  LIG X 999      41.676 130.008  23.859  1.00  0.00    -0.360 OA
HETATM   22  H2  LIG X 999      40.724 129.702  24.022  1.00  0.00     0.217 HD
ENDBRANCH   2  21
TORSDOF 5
ENDMDL
MODEL 8
REMARK VINA RESULT:      -4.7      3.419      6.061
REMARK  5 active torsions:
REMARK  status: ('A' for Active; 'I' for Inactive)
REMARK    1  A    between atoms: O1_2  and  C1_3 
REMARK    2  A    between atoms: C1_3  and  O4_19 
REMARK       I    between atoms: N1_4  and  C2_5 
REMARK    3  A    between atoms: C2_5  and  C3_7 
REMARK    4  A    between atoms: C4_8  and  O3_9 
REMARK    5  A    between atoms: O4_19  and  C13_20 
ROOT
HETATM    1  C3  LIG X 999      44.453 131.101  21.050  1.00  0.00     0.068 A 
HETATM    2  C4  LIG X 999      43.150 131.281  21.557  1.00  0.00     0.082 A 
HETATM    3  C5  LIG X 999      42.607 130.338  22.442  1.00  0.00     0.049 A 
HETATM    4  C6  LIG X 999      43.358 129.226  22.846  1.00  0.00    -0.023 A 
HETATM    5  C7  LIG X 999      42.818 128.282  23.734  1.00  0.00     0.012 A 
HETATM    6  C8  LIG X 999      43.579 127.180  24.133  1.00  0.00     0.001 A 
HETATM    7  C9  LIG X 999      44.880 127.012  23.652  1.00  0.00     0.001 A 
HETATM    8  C10 LIG X 999      45.429 127.945  22.768  1.00  0.00     0.012 A 
HETATM    9  C11 LIG X 999      44.674 129.056  22.359  1.00  0.00    -0.025 A 
HETATM   10  C12 LIG X 999      45.214 129.997  21.470  1.00  0.00     0.032 A 
ENDROOT
BRANCH   1  11
HETATM   11  C2  LIG X 999      45.051 132.076  20.106  1.00  0.00     0.283 C 
HETATM   12  N1  LIG X 999      45.199 131.798  18.706  1.00  0.00    -0.162 NA
HETATM   13  C1  LIG X 999      45.485 130.639  18.188  1.00  0.00     0.289 C 
HETATM   14  O2  LIG X 999      45.409 133.204  20.538  1.00  0.00    -0.265 OA
BRANCH  13  15
HETATM   15  O1  LIG X 999      45.759 129.545  19.005  1.00  0.00    -0.325 OA
HETATM   16  H1  LIG X 999      46.448 128.856  18.730  1.00  0.00     0.221 HD
ENDBRANCH  13  15
BRANCH  13  17
HETATM   17  O4  LIG X 999      45.552 130.472  16.797  1.00  0.00    -0.294 OA
BRANCH  17  18
HETATM   18  C13 LIG X 999      45.496 131.527  15.830  1.00  0.00     0.224 C 
HETATM   19 CL1  LIG X 999      43.881 131.630  15.071  1.00  0.00    -0.095 Cl
HETATM   20  C14 LIG X 999      46.590 131.374  14.775  1.00  0.00     0.057 C 
ENDBRANCH  17  18
ENDBRANCH  13  17
ENDBRANCH   1  11
BRANCH   2  21
HETATM   21  O3  LIG X 999      42.402 132.402  21.197  1.00  0.00    -0.360 OA
HETATM   22  H2  LIG X 999      42.815 133.326  21.153  1.00  0.00     0.217 HD
ENDBRANCH   2  21
TORSDOF 5
ENDMDL
MODEL 9
REMARK VINA RESULT:      -4.7      4.750      6.946
REMARK  5 active torsions:
REMARK  status: ('A' for Active; 'I' for Inactive)
REMARK    1  A    between atoms: O1_2  and  C1_3 
REMARK    2  A    between atoms: C1_3  and  O4_19 
REMARK       I    between atoms: N1_4  and  C2_5 
REMARK    3  A    between atoms: C2_5  and  C3_7 
REMARK    4  A    between atoms: C4_8  and  O3_9 
REMARK    5  A    between atoms: O4_19  and  C13_20 
ROOT
HETATM    1  C3  LIG X 999      43.642 131.549  17.453  1.00  0.00     0.068 A 
HETATM    2  C4  LIG X 999      42.481 132.121  18.010  1.00  0.00     0.082 A 
HETATM    3  C5  LIG X 999      42.320 132.164  19.403  1.00  0.00     0.049 A 
HETATM    4  C6  LIG X 999      43.317 131.660  20.249  1.00  0.00    -0.023 A 
HETATM    5  C7  LIG X 999      43.160 131.704  21.644  1.00  0.00     0.012 A 
HETATM    6  C8  LIG X 999      44.163 131.204  22.478  1.00  0.00     0.001 A 
HETATM    7  C9  LIG X 999      45.327 130.658  21.930  1.00  0.00     0.001 A 
HETATM    8  C10 LIG X 999      45.495 130.610  20.543  1.00  0.00     0.012 A 
HETATM    9  C11 LIG X 999      44.494 131.109  19.694  1.00  0.00    -0.025 A 
HETATM   10  C12 LIG X 999      44.651 131.062  18.301  1.00  0.00     0.032 A 
ENDROOT
BRANCH   1  11
HETATM   11  C2  LIG X 999      43.837 131.482  15.984  1.00  0.00     0.283 C 
HETATM   12  N1  LIG X 999      44.901 130.729  15.384  1.00  0.00    -0.162 NA
HETATM   13  C1  LIG X 999      46.100 130.588  15.870  1.00  0.00     0.289 C 
HETATM   14  O2  LIG X 999      43.020 132.076  15.231  1.00  0.00    -0.265 OA
BRANCH  13  15
HETATM   15  O1  LIG X 999      46.478 131.260  17.030  1.00  0.00    -0.325 OA
HETATM   16  H1  LIG X 999      45.805 131.812  17.548  1.00  0.00     0.221 HD
ENDBRANCH  13  15
BRANCH  13  17
HETATM   17  O4  LIG X 999      47.046 129.781  15.221  1.00  0.00    -0.294 OA
BRANCH  17  18
HETATM   18  C13 LIG X 999      47.374 129.841  13.829  1.00  0.00     0.224 C 
HETATM   19 CL1  LIG X 999      48.978 129.119  13.507  1.00  0.00    -0.095 Cl
HETATM   20  C14 LIG X 999      47.300 131.271  13.299  1.00  0.00     0.057 C 
ENDBRANCH  17  18
ENDBRANCH  13  17
ENDBRANCH   1  11
BRANCH   2  21
HETATM   21  O3  LIG X 999      41.496 132.663  17.183  1.00  0.00    -0.360 OA
HETATM   22  H2  LIG X 999      41.715 133.355  16.477  1.00  0.00     0.217 HD
ENDBRANCH   2  21
TORSDOF 5
ENDMDL
