REMARK VINA RESULT:      -4.2      3.083      7.056
REMARK  6 active torsions:
REMARK  status: ('A' for Active; 'I' for Inactive)
REMARK    1  A    between atoms: N1_15  and  C15_17 
REMARK    2  A    between atoms: C15_17  and  C16_18 
REMARK    3  A    between atoms: C16_18  and  C17_19 
REMARK    4  A    between atoms: C17_19  and  C18_20 
REMARK    5  A    between atoms: C18_20  and  C19_21 
REMARK    6  A    between atoms: C19_21  and  N2_22 
ROOT
HETATM    1  C1  LIG X 999      43.635 130.991  24.625  1.00  0.00     0.001 C 
HETATM    2  C2  LIG X 999      42.824 131.987  24.088  1.00  0.00     0.001 C 
HETATM    3  C3  LIG X 999      42.775 132.189  22.707  1.00  0.00     0.013 C 
HETATM    4  C4  LIG X 999      43.503 131.361  21.820  1.00  0.00    -0.013 C 
HETATM    5  C5  LIG X 999      44.416 130.432  22.397  1.00  0.00    -0.025 C 
HETATM    6  C6  LIG X 999      44.444 130.229  23.787  1.00  0.00     0.012 C 
HETATM    7  C7  LIG X 999      45.332 129.754  21.591  1.00  0.00     0.014 C 
HETATM    8  C8  LIG X 999      45.399 130.021  20.231  1.00  0.00     0.031 C 
HETATM    9  C9  LIG X 999      44.481 130.887  19.622  1.00  0.00     0.045 C 
HETATM   10  C10 LIG X 999      43.444 131.488  20.392  1.00  0.00     0.008 C 
HETATM   11  C11 LIG X 999      42.400 132.138  19.668  1.00  0.00    -0.045 C 
HETATM   12  C12 LIG X 999      41.034 132.443  20.234  1.00  0.00     0.049 C 
HETATM   13  C13 LIG X 999      42.572 132.397  18.302  1.00  0.00     0.056 C 
HETATM   14  C14 LIG X 999      43.686 131.909  17.611  1.00  0.00     0.101 C 
HETATM   15  N1  LIG X 999      43.818 132.182  16.333  1.00  0.00    -0.376 N 
HETATM   16  H11 LIG X 999      43.077 132.745  15.855  1.00  0.00     0.161 HD
HETATM   17  N3  LIG X 999      44.583 131.125  18.281  1.00  0.00    -0.342 N 
HETATM   18  H28 LIG X 999      45.374 130.675  17.771  1.00  0.00     0.167 HD
ENDROOT
BRANCH  15  19
HETATM   19  C15 LIG X 999      44.941 131.778  15.477  1.00  0.00     0.121 C 
BRANCH  19  20
HETATM   20  C16 LIG X 999      44.694 130.408  14.819  1.00  0.00     0.020 C 
BRANCH  20  21
HETATM   21  C17 LIG X 999      45.640 129.295  15.312  1.00  0.00     0.004 C 
BRANCH  21  22
HETATM   22  C18 LIG X 999      47.136 129.527  15.018  1.00  0.00     0.035 C 
BRANCH  22  23
HETATM   23  C19 LIG X 999      47.478 129.772  13.525  1.00  0.00     0.216 C 
HETATM   24  C21 LIG X 999      47.568 131.275  13.225  1.00  0.00     0.042 C 
BRANCH  23  25
HETATM   25  N2  LIG X 999      48.688 129.065  13.052  1.00  0.00     0.083 N 
HETATM   26  H21 LIG X 999      48.571 128.037  13.202  1.00  0.00     0.315 HD
HETATM   27  C20 LIG X 999      49.939 129.490  13.694  1.00  0.00     0.307 C 
ENDBRANCH  23  25
ENDBRANCH  22  23
ENDBRANCH  21  22
ENDBRANCH  20  21
ENDBRANCH  19  20
ENDBRANCH  15  19
TORSDOF 6
