REMARK VINA RESULT:      -6.9      2.291      7.242
REMARK  7 active torsions:
REMARK  status: ('A' for Active; 'I' for Inactive)
REMARK    1  A    between atoms: N1_2  and  C2_3 
REMARK    2  A    between atoms: C2_3  and  C4_5 
REMARK    3  A    between atoms: C4_5  and  C5_6 
REMARK    4  A    between atoms: C5_6  and  C6_7 
REMARK    5  A    between atoms: C6_7  and  C7_8 
REMARK    6  A    between atoms: C7_8  and  N2_9 
REMARK    7  A    between atoms: N2_9  and  C8_10 
ROOT
HETATM    1  C8  LIG X 999      43.439 131.751  22.381  1.00  0.00     0.226 C 
HETATM    2  C9  LIG X 999      44.626 131.094  22.051  1.00  0.00     0.065 C 
HETATM    3  C10 LIG X 999      44.950 130.843  20.707  1.00  0.00    -0.045 C 
HETATM    4  C11 LIG X 999      46.082 129.875  20.469  1.00  0.00     0.049 C 
HETATM    5  C12 LIG X 999      44.124 131.393  19.674  1.00  0.00     0.010 C 
HETATM    6  C13 LIG X 999      42.874 131.942  20.078  1.00  0.00     0.070 C 
HETATM    7  C14 LIG X 999      41.907 132.292  19.137  1.00  0.00     0.033 C 
HETATM    8  C15 LIG X 999      42.148 132.125  17.781  1.00  0.00     0.014 C 
HETATM    9  C16 LIG X 999      43.406 131.707  17.336  1.00  0.00    -0.025 C 
HETATM   10  C17 LIG X 999      43.658 131.649  15.955  1.00  0.00     0.012 C 
HETATM   11  C18 LIG X 999      44.938 131.367  15.486  1.00  0.00     0.001 C 
HETATM   12  C19 LIG X 999      45.982 131.181  16.386  1.00  0.00     0.001 C 
HETATM   13  C20 LIG X 999      45.743 131.221  17.762  1.00  0.00     0.013 C 
HETATM   14  C21 LIG X 999      44.435 131.400  18.272  1.00  0.00    -0.013 C 
HETATM   15  N3  LIG X 999      42.587 132.120  21.394  1.00  0.00    -0.224 NA
ENDROOT
BRANCH   1  16
HETATM   16  N2  LIG X 999      43.099 132.014  23.757  1.00  0.00    -0.028 N 
HETATM   17  H17 LIG X 999      42.086 132.269  23.816  1.00  0.00     0.285 HD
HETATM   18  H18 LIG X 999      43.650 132.830  24.112  1.00  0.00     0.285 HD
BRANCH  16  19
HETATM   19  C7  LIG X 999      43.344 130.835  24.605  1.00  0.00     0.240 C 
BRANCH  19  20
HETATM   20  C6  LIG X 999      42.377 129.681  24.286  1.00  0.00     0.028 C 
BRANCH  20  21
HETATM   21  C5  LIG X 999      43.006 128.325  24.625  1.00  0.00     0.004 C 
BRANCH  21  22
HETATM   22  C4  LIG X 999      44.349 128.144  23.895  1.00  0.00     0.035 C 
BRANCH  22  23
HETATM   23  C2  LIG X 999      44.322 127.040  22.811  1.00  0.00     0.216 C 
HETATM   24  C3  LIG X 999      45.748 126.644  22.390  1.00  0.00     0.042 C 
BRANCH  23  25
HETATM   25  N1  LIG X 999      43.563 125.865  23.286  1.00  0.00     0.083 N 
HETATM   26  C1  LIG X 999      43.435 124.837  22.249  1.00  0.00     0.307 C 
HETATM   27  H4  LIG X 999      42.589 126.172  23.518  1.00  0.00     0.315 HD
ENDBRANCH  23  25
ENDBRANCH  22  23
ENDBRANCH  21  22
ENDBRANCH  20  21
ENDBRANCH  19  20
ENDBRANCH  16  19
ENDBRANCH   1  16
TORSDOF 7
