REMARK VINA RESULT:      -6.3      3.478      6.320
REMARK  4 active torsions:
REMARK  status: ('A' for Active; 'I' for Inactive)
REMARK    1  A    between atoms: C3_3  and  O1_4 
REMARK    2  A    between atoms: O1_4  and  C4_5 
REMARK    3  A    between atoms: C4_5  and  O2_6 
REMARK    4  A    between atoms: C5_8  and  C6_9 
ROOT
HETATM    1  C1  LIG X 999      44.642 127.287  24.129  1.00  0.00     0.014 C 
HETATM    2  C2  LIG X 999      43.695 128.029  24.041  1.00  0.00    -0.091 C 
HETATM    3  C3  LIG X 999      42.548 128.932  23.933  1.00  0.00     0.270 C 
ENDROOT
BRANCH   3   4
HETATM    4  O1  LIG X 999      42.748 129.809  22.834  1.00  0.00    -0.319 OA
BRANCH   4   5
HETATM    5  C4  LIG X 999      42.443 131.172  22.896  1.00  0.00     0.179 C 
HETATM    6  C5  LIG X 999      43.012 132.026  22.037  1.00  0.00     0.075 C 
BRANCH   5   7
HETATM    7  O2  LIG X 999      41.535 131.637  23.849  1.00  0.00    -0.341 OA
HETATM    8  H4  LIG X 999      40.769 131.064  24.186  1.00  0.00     0.220 HD
ENDBRANCH   5   7
BRANCH   6   9
HETATM    9  C6  LIG X 999      43.948 131.586  20.979  1.00  0.00    -0.021 A 
HETATM   10  C7  LIG X 999      45.182 131.057  21.386  1.00  0.00     0.012 A 
HETATM   11  C8  LIG X 999      46.136 130.666  20.446  1.00  0.00     0.002 A 
HETATM   12  C9  LIG X 999      45.871 130.787  19.083  1.00  0.00     0.012 A 
HETATM   13  C10 LIG X 999      44.634 131.280  18.644  1.00  0.00    -0.025 A 
HETATM   14  C11 LIG X 999      44.364 131.374  17.270  1.00  0.00     0.012 A 
HETATM   15  C15 LIG X 999      43.649 131.673  19.592  1.00  0.00    -0.015 A 
HETATM   16  C12 LIG X 999      43.123 131.834  16.827  1.00  0.00     0.001 A 
HETATM   17  C13 LIG X 999      42.138 132.192  17.749  1.00  0.00     0.001 A 
HETATM   18  C14 LIG X 999      42.392 132.107  19.120  1.00  0.00     0.013 A 
ENDBRANCH   6   9
ENDBRANCH   4   5
ENDBRANCH   3   4
TORSDOF 4
