REMARK VINA RESULT:      -5.3      2.427      7.730
REMARK  4 active torsions:
REMARK  status: ('A' for Active; 'I' for Inactive)
REMARK    1  A    between atoms: C2_2  and  N1_3 
REMARK    2  A    between atoms: C3_6  and  O1_7 
REMARK    3  A    between atoms: O1_7  and  C4_8 
REMARK    4  A    between atoms: C4_8  and  C5_9 
ROOT
HETATM    1  N1  LIG X 999      41.867 132.321  22.919  1.00  0.00    -0.070 NA
HETATM    2  N2  LIG X 999      40.903 133.026  22.616  1.00  0.00    -0.162 NA
HETATM    3  N3  LIG X 999      39.941 133.731  22.315  1.00  0.00     0.068 N 
ENDROOT
BRANCH   1   4
HETATM    4  C2  LIG X 999      42.822 131.863  21.950  1.00  0.00     0.127 A 
HETATM    5  C1  LIG X 999      42.626 132.078  20.573  1.00  0.00     0.049 A 
HETATM    6  C14 LIG X 999      43.567 131.623  19.641  1.00  0.00    -0.023 A 
HETATM    7  C9  LIG X 999      44.730 130.941  20.094  1.00  0.00    -0.022 A 
HETATM    8  C13 LIG X 999      43.371 131.834  18.263  1.00  0.00     0.021 A 
HETATM    9  C8  LIG X 999      44.921 130.731  21.465  1.00  0.00     0.051 A 
HETATM   10  C10 LIG X 999      45.678 130.479  19.159  1.00  0.00     0.021 A 
HETATM   11  C3  LIG X 999      43.969 131.187  22.399  1.00  0.00     0.102 A 
HETATM   12  C11 LIG X 999      45.449 130.714  17.802  1.00  0.00    -0.024 A 
HETATM   13  C12 LIG X 999      44.336 131.367  17.370  1.00  0.00    -0.024 A 
HETATM   14  C18 LIG X 999      46.289 130.304  16.657  1.00  0.00     0.276 C 
HETATM   15  C15 LIG X 999      44.327 131.456  15.894  1.00  0.00     0.276 C 
HETATM   16  N4  LIG X 999      45.653 130.919  15.449  1.00  0.00    -0.067 N 
HETATM   17  C16 LIG X 999      45.476 129.911  14.379  1.00  0.00     0.272 C 
HETATM   18  C17 LIG X 999      46.500 132.023  14.937  1.00  0.00     0.272 C 
BRANCH  11  19
HETATM   19  O1  LIG X 999      44.126 130.990  23.783  1.00  0.00    -0.337 OA
BRANCH  19  20
HETATM   20  C4  LIG X 999      44.520 129.770  24.409  1.00  0.00     0.269 C 
BRANCH  20  21
HETATM   21  C5  LIG X 999      43.521 128.724  24.167  1.00  0.00    -0.080 C 
HETATM   22  C6  LIG X 999      42.703 127.863  23.962  1.00  0.00    -0.109 C 
HETATM   23  C7  LIG X 999      41.711 126.817  23.710  1.00  0.00     0.112 C 
ENDBRANCH  20  21
ENDBRANCH  19  20
ENDBRANCH  11  19
ENDBRANCH   1   4
TORSDOF 4
