REMARK VINA RESULT:      -4.8      2.499      3.415
REMARK  6 active torsions:
REMARK  status: ('A' for Active; 'I' for Inactive)
REMARK    1  A    between atoms: C6_6  and  N1_7 
REMARK       I    between atoms: N1_7  and  C7_8 
REMARK    2  A    between atoms: C7_8  and  O2_10 
REMARK    3  A    between atoms: O2_10  and  C8_11 
REMARK    4  A    between atoms: C8_11  and  C10_13 
REMARK    5  A    between atoms: C10_13  and  O3_14 
REMARK    6  A    between atoms: C12_16  and  N2_17 
ROOT
HETATM    1  N2  LIG X 999      42.609 131.909  22.598  1.00  0.00    -0.070 NA
HETATM    2  N3  LIG X 999      42.173 132.419  21.566  1.00  0.00    -0.162 NA
HETATM    3  N4  LIG X 999      41.735 132.930  20.535  1.00  0.00     0.068 N 
ENDROOT
BRANCH   1   4
HETATM    4  C12 LIG X 999      43.269 130.633  22.608  1.00  0.00     0.122 A 
HETATM    5  C6  LIG X 999      44.561 130.531  22.064  1.00  0.00     0.095 A 
HETATM    6  C5  LIG X 999      45.211 129.283  22.037  1.00  0.00     0.046 A 
HETATM    7  C4  LIG X 999      44.598 128.150  22.590  1.00  0.00    -0.024 A 
HETATM    8  C3  LIG X 999      45.250 126.906  22.577  1.00  0.00     0.012 A 
HETATM    9  C14 LIG X 999      43.309 128.258  23.162  1.00  0.00    -0.024 A 
HETATM   10  C2  LIG X 999      44.630 125.783  23.130  1.00  0.00     0.001 A 
HETATM   11  C1  LIG X 999      43.357 125.890  23.697  1.00  0.00     0.001 A 
HETATM   12  C15 LIG X 999      42.696 127.122  23.714  1.00  0.00     0.012 A 
HETATM   13  C13 LIG X 999      42.652 129.496  23.162  1.00  0.00     0.049 A 
BRANCH   5  14
HETATM   14  N1  LIG X 999      45.170 131.700  21.493  1.00  0.00    -0.185 NA
HETATM   15  C7  LIG X 999      45.173 132.048  20.105  1.00  0.00     0.387 C 
HETATM   16  O1  LIG X 999      45.523 133.210  19.767  1.00  0.00    -0.236 OA
BRANCH  15  17
HETATM   17  O2  LIG X 999      44.832 131.097  19.136  1.00  0.00    -0.295 OA
BRANCH  17  18
HETATM   18  C8  LIG X 999      45.232 131.179  17.768  1.00  0.00     0.153 C 
HETATM   19  C9  LIG X 999      45.894 129.865  17.337  1.00  0.00     0.042 C 
BRANCH  18  20
HETATM   20  C10 LIG X 999      43.994 131.478  16.916  1.00  0.00     0.199 C 
BRANCH  20  21
HETATM   21  O3  LIG X 999      44.034 130.710  15.730  1.00  0.00    -0.393 OA
HETATM   22  C11 LIG X 999      44.140 131.570  14.620  1.00  0.00     0.201 C 
ENDBRANCH  20  21
ENDBRANCH  18  20
ENDBRANCH  17  18
ENDBRANCH  15  17
ENDBRANCH   5  14
ENDBRANCH   1   4
TORSDOF 6
