REMARK VINA RESULT:      -6.1      3.335      5.789
REMARK  3 active torsions:
REMARK  status: ('A' for Active; 'I' for Inactive)
REMARK    1  A    between atoms: C3_3  and  O1_4 
REMARK    2  A    between atoms: O1_4  and  C4_5 
REMARK    3  A    between atoms: C5_6  and  C6_7 
ROOT
HETATM    1  C1  LIG X 999      45.591 126.909  22.197  1.00  0.00     0.014 C 
HETATM    2  C2  LIG X 999      44.978 127.839  22.656  1.00  0.00    -0.091 C 
HETATM    3  C3  LIG X 999      44.233 128.969  23.213  1.00  0.00     0.268 C 
ENDROOT
BRANCH   3   4
HETATM    4  O1  LIG X 999      44.758 130.182  22.686  1.00  0.00    -0.338 OA
BRANCH   4   5
HETATM    5  C4  LIG X 999      44.024 130.958  21.783  1.00  0.00     0.094 A 
HETATM    6  C5  LIG X 999      42.901 131.685  22.232  1.00  0.00     0.036 A 
HETATM    7  C7  LIG X 999      42.159 132.446  21.312  1.00  0.00     0.018 A 
HETATM    8  C8  LIG X 999      42.528 132.497  19.968  1.00  0.00     0.013 A 
HETATM    9  C9  LIG X 999      43.650 131.792  19.515  1.00  0.00    -0.023 A 
HETATM   10  C10 LIG X 999      44.026 131.851  18.164  1.00  0.00     0.012 A 
HETATM   11  C14 LIG X 999      44.411 131.019  20.427  1.00  0.00     0.009 A 
HETATM   12  C11 LIG X 999      45.150 131.154  17.717  1.00  0.00     0.001 A 
HETATM   13  C12 LIG X 999      45.907 130.395  18.612  1.00  0.00     0.001 A 
HETATM   14  C13 LIG X 999      45.544 130.326  19.959  1.00  0.00     0.015 A 
BRANCH   6  15
HETATM   15  C6  LIG X 999      42.509 131.656  23.657  1.00  0.00     0.272 C 
HETATM   16  O2  LIG X 999      43.108 132.364  24.511  1.00  0.00    -0.301 OA
ENDBRANCH   6  15
ENDBRANCH   4   5
ENDBRANCH   3   4
TORSDOF 3
