REMARK VINA RESULT:      -6.3      1.685      3.069
REMARK  1 active torsions:
REMARK  status: ('A' for Active; 'I' for Inactive)
REMARK    1  A    between atoms: C10_11  and  N2_12 
ROOT
HETATM    1  N2  LIG X 999      42.002 131.976  19.905  1.00  0.00    -0.052 NA
HETATM    2  N3  LIG X 999      42.292 132.091  21.097  1.00  0.00    -0.160 NA
HETATM    3  N4  LIG X 999      42.579 132.206  22.287  1.00  0.00     0.068 N 
ENDROOT
BRANCH   1   4
HETATM    4  C10 LIG X 999      42.999 131.684  18.923  1.00  0.00     0.186 C 
HETATM    5  N1  LIG X 999      42.766 131.926  17.610  1.00  0.00    -0.226 NA
HETATM    6  C9  LIG X 999      43.680 131.643  16.646  1.00  0.00     0.071 C 
HETATM    7  C8  LIG X 999      43.382 131.986  15.328  1.00  0.00     0.033 C 
HETATM    8  C14 LIG X 999      44.923 131.033  16.979  1.00  0.00     0.010 C 
HETATM    9  C7  LIG X 999      44.286 131.727  14.308  1.00  0.00     0.014 C 
HETATM   10  C5  LIG X 999      45.462 131.018  14.572  1.00  0.00    -0.025 C 
HETATM   11  C4  LIG X 999      45.766 130.600  15.901  1.00  0.00    -0.013 C 
HETATM   12  C6  LIG X 999      46.308 130.675  13.506  1.00  0.00     0.012 C 
HETATM   13  C3  LIG X 999      46.836 129.687  16.063  1.00  0.00     0.013 C 
HETATM   14  C2  LIG X 999      47.661 129.343  14.990  1.00  0.00     0.001 C 
HETATM   15  C1  LIG X 999      47.414 129.858  13.720  1.00  0.00     0.001 C 
HETATM   16  C12 LIG X 999      45.241 130.940  18.374  1.00  0.00    -0.045 C 
HETATM   17  C11 LIG X 999      44.241 131.206  19.324  1.00  0.00     0.063 C 
HETATM   18  C13 LIG X 999      46.631 130.718  18.918  1.00  0.00     0.049 C 
ENDBRANCH   1   4
TORSDOF 1
