REMARK VINA RESULT:      -8.1      1.043      2.491
REMARK  3 active torsions:
REMARK  status: ('A' for Active; 'I' for Inactive)
REMARK    1  A    between atoms: C3_3  and  O1_4 
REMARK    2  A    between atoms: O1_4  and  C4_5 
REMARK    3  A    between atoms: C5_7  and  C6_8 
ROOT
HETATM    1  C1  LIG X 999      47.591 131.052  13.002  1.00  0.00     0.014 C 
HETATM    2  C2  LIG X 999      46.522 131.043  13.559  1.00  0.00    -0.091 C 
HETATM    3  C3  LIG X 999      45.225 131.033  14.238  1.00  0.00     0.270 C 
ENDROOT
BRANCH   3   4
HETATM    4  O1  LIG X 999      45.412 131.379  15.604  1.00  0.00    -0.317 OA
BRANCH   4   5
HETATM    5  C4  LIG X 999      46.119 130.567  16.494  1.00  0.00     0.217 C 
HETATM    6  O2  LIG X 999      47.285 129.928  16.084  1.00  0.00    -0.164 OA
HETATM    7  C5  LIG X 999      45.691 130.404  17.748  1.00  0.00     0.079 C 
BRANCH   7   8
HETATM    8  C6  LIG X 999      44.486 131.084  18.273  1.00  0.00    -0.020 A 
HETATM    9  C7  LIG X 999      43.564 131.579  17.338  1.00  0.00     0.012 A 
HETATM   10  C8  LIG X 999      42.382 132.188  17.757  1.00  0.00     0.002 A 
HETATM   11  C9  LIG X 999      42.103 132.325  19.115  1.00  0.00     0.012 A 
HETATM   12  C10 LIG X 999      43.020 131.872  20.073  1.00  0.00    -0.025 A 
HETATM   13  C11 LIG X 999      42.745 132.037  21.440  1.00  0.00     0.012 A 
HETATM   14  C15 LIG X 999      44.234 131.258  19.661  1.00  0.00    -0.015 A 
HETATM   15  C12 LIG X 999      43.669 131.618  22.399  1.00  0.00     0.001 A 
HETATM   16  C13 LIG X 999      44.876 131.043  22.004  1.00  0.00     0.001 A 
HETATM   17  C14 LIG X 999      45.165 130.871  20.649  1.00  0.00     0.013 A 
ENDBRANCH   7   8
ENDBRANCH   4   5
ENDBRANCH   3   4
TORSDOF 3
