REMARK VINA RESULT:      -7.8      1.785      5.825
REMARK  1 active torsions:
REMARK  status: ('A' for Active; 'I' for Inactive)
REMARK    1  A    between atoms: C8_9  and  N2_10 
ROOT
HETATM    1  C1  LIG X 999      43.355 130.236  22.369  1.00  0.00     0.283 C 
HETATM    2  N1  LIG X 999      44.154 131.231  21.622  1.00  0.00    -0.005 N 
HETATM    3  C2  LIG X 999      44.570 132.335  22.511  1.00  0.00     0.283 C 
HETATM    4  C3  LIG X 999      45.338 130.589  20.959  1.00  0.00     0.286 A 
HETATM    5  C4  LIG X 999      45.148 130.799  19.489  1.00  0.00    -0.015 A 
HETATM    6  C5  LIG X 999      45.978 130.389  18.446  1.00  0.00     0.022 A 
HETATM    7  C6  LIG X 999      45.602 130.696  17.123  1.00  0.00    -0.023 A 
HETATM    8  C7  LIG X 999      46.407 130.303  16.043  1.00  0.00     0.041 A 
HETATM    9  C8  LIG X 999      46.028 130.611  14.728  1.00  0.00     0.026 A 
HETATM   10  C9  LIG X 999      44.839 131.316  14.492  1.00  0.00     0.030 A 
HETATM   11  C10 LIG X 999      44.027 131.714  15.557  1.00  0.00     0.014 A 
HETATM   12  C11 LIG X 999      44.394 131.412  16.875  1.00  0.00    -0.025 A 
HETATM   13  C12 LIG X 999      43.580 131.810  17.955  1.00  0.00     0.030 A 
HETATM   14  C13 LIG X 999      43.994 131.483  19.245  1.00  0.00     0.049 A 
HETATM   15  C14 LIG X 999      43.382 131.752  20.518  1.00  0.00     0.351 A 
HETATM   16  O1  LIG X 999      42.293 132.373  20.658  1.00  0.00    -0.259 OA
ENDROOT
BRANCH   9  17
HETATM   17  N2  LIG X 999      46.852 130.208  13.631  1.00  0.00    -0.399 N 
HETATM   18  H11 LIG X 999      47.686 130.772  13.353  1.00  0.00     0.156 HD
HETATM   19  H12 LIG X 999      46.634 129.342  13.088  1.00  0.00     0.156 HD
ENDBRANCH   9  17
TORSDOF 1
