REMARK VINA RESULT:      -1.9      7.853      9.099
REMARK  2 active torsions:
REMARK  status: ('A' for Active; 'I' for Inactive)
REMARK    1  A    between atoms: C4_4  and  O1_5 
REMARK    2  A    between atoms: C10_11  and  N1_12 
ROOT
HETATM    1  N1  LIG X 999      46.445 130.620  19.705  1.00  0.00    -0.072 NA
HETATM    2  N2  LIG X 999      46.387 131.590  20.463  1.00  0.00    -0.162 NA
HETATM    3  N3  LIG X 999      46.329 132.557  21.220  1.00  0.00     0.068 N 
ENDROOT
BRANCH   1   4
HETATM    4  C10 LIG X 999      45.621 130.510  18.535  1.00  0.00     0.101 C 
HETATM    5  C9  LIG X 999      44.425 131.260  18.496  1.00  0.00     0.007 C 
HETATM    6  C8  LIG X 999      43.740 131.699  17.372  1.00  0.00    -0.022 C 
HETATM    7  C12 LIG X 999      43.616 131.566  19.709  1.00  0.00     0.278 C 
HETATM    8  C7  LIG X 999      44.224 131.754  16.058  1.00  0.00     0.012 C 
HETATM    9  C15 LIG X 999      42.349 132.039  17.749  1.00  0.00     0.276 C 
HETATM   10  C6  LIG X 999      45.574 131.989  15.774  1.00  0.00     0.037 C 
HETATM   11  C4  LIG X 999      46.283 131.302  14.768  1.00  0.00     0.068 C 
HETATM   12  C3  LIG X 999      45.995 129.971  14.403  1.00  0.00     0.037 C 
HETATM   13  C2  LIG X 999      45.326 129.016  15.194  1.00  0.00     0.003 C 
HETATM   14  C1  LIG X 999      45.150 129.091  16.581  1.00  0.00     0.002 C 
HETATM   15  C11 LIG X 999      46.050 129.737  17.439  1.00  0.00     0.035 C 
HETATM   16  N4  LIG X 999      42.366 132.225  19.227  1.00  0.00    -0.067 N 
HETATM   17  C13 LIG X 999      41.169 131.612  19.847  1.00  0.00     0.272 C 
HETATM   18  C14 LIG X 999      42.393 133.671  19.556  1.00  0.00     0.272 C 
BRANCH  11  19
HETATM   19  O1  LIG X 999      47.351 131.918  14.100  1.00  0.00    -0.356 OA
HETATM   20  C5  LIG X 999      48.016 131.373  12.964  1.00  0.00     0.210 C 
ENDBRANCH  11  19
ENDBRANCH   1   4
TORSDOF 2
