REMARK VINA RESULT:      -5.3      2.947      5.335
REMARK  1 active torsions:
REMARK  status: ('A' for Active; 'I' for Inactive)
REMARK    1  A    between atoms: C7_7  and  N1_8 
ROOT
HETATM    1  N1  LIG X 999      44.976 131.742  15.438  1.00  0.00    -0.110 NA
HETATM    2  N2  LIG X 999      45.632 131.332  14.481  1.00  0.00    -0.167 NA
HETATM    3  N3  LIG X 999      46.288 130.922  13.524  1.00  0.00     0.068 N 
ENDROOT
BRANCH   1   4
HETATM    4  C7  LIG X 999      45.461 131.588  16.808  1.00  0.00     0.153 C 
HETATM    5  C6  LIG X 999      45.741 130.106  17.091  1.00  0.00     0.031 C 
HETATM    6  C5  LIG X 999      46.273 129.918  18.515  1.00  0.00     0.003 C 
HETATM    7  C4  LIG X 999      45.278 130.456  19.547  1.00  0.00     0.009 C 
HETATM    8  C3  LIG X 999      44.944 131.941  19.293  1.00  0.00     0.018 C 
HETATM    9  C2  LIG X 999      43.886 132.393  20.273  1.00  0.00    -0.021 C 
HETATM   10  C8  LIG X 999      44.459 132.179  17.835  1.00  0.00     0.043 C 
HETATM   11  C1  LIG X 999      42.585 132.264  19.981  1.00  0.00    -0.004 C 
HETATM   12  C10 LIG X 999      42.160 131.773  18.656  1.00  0.00    -0.004 C 
HETATM   13  C9  LIG X 999      43.042 131.667  17.656  1.00  0.00    -0.019 C 
ENDBRANCH   1   4
TORSDOF 1
