REMARK VINA RESULT:      -8.3      1.368      7.297
REMARK  3 active torsions:
REMARK  status: ('A' for Active; 'I' for Inactive)
REMARK    1  A    between atoms: N2_3  and  N3_4 
REMARK    2  A    between atoms: C1_5  and  C2_6 
REMARK    3  A    between atoms: C7_12  and  N5_13 
ROOT
HETATM    1  N5  LIG X 999      44.261 131.223  23.487  1.00  0.00    -0.073 NA
HETATM    2  N6  LIG X 999      44.236 130.126  24.048  1.00  0.00    -0.162 NA
HETATM    3  N7  LIG X 999      44.211 129.032  24.609  1.00  0.00     0.068 N 
ENDROOT
BRANCH   1   4
HETATM    4  C7  LIG X 999      44.006 131.374  22.083  1.00  0.00     0.094 A 
HETATM    5  C6  LIG X 999      44.980 131.062  21.117  1.00  0.00     0.046 A 
HETATM    6  C5  LIG X 999      44.701 131.220  19.752  1.00  0.00    -0.021 A 
HETATM    7  C4  LIG X 999      45.678 130.908  18.779  1.00  0.00     0.046 A 
HETATM    8  C10 LIG X 999      43.416 131.701  19.346  1.00  0.00    -0.024 A 
HETATM    9  C3  LIG X 999      45.342 131.086  17.441  1.00  0.00     0.086 A 
HETATM   10  N4  LIG X 999      46.113 130.853  16.363  1.00  0.00    -0.228 NA
HETATM   11  C12 LIG X 999      44.118 131.544  17.058  1.00  0.00     0.063 A 
HETATM   12  C2  LIG X 999      45.298 131.190  15.327  1.00  0.00     0.148 A 
HETATM   13  N8  LIG X 999      44.072 131.617  15.723  1.00  0.00    -0.338 N 
HETATM   14  H8  LIG X 999      43.275 131.929  15.125  1.00  0.00     0.167 HD
HETATM   15  C11 LIG X 999      43.121 131.865  17.975  1.00  0.00     0.044 A 
HETATM   16  C9  LIG X 999      42.457 132.007  20.320  1.00  0.00     0.014 A 
HETATM   17  C8  LIG X 999      42.752 131.844  21.676  1.00  0.00     0.035 A 
BRANCH  12  18
HETATM   18  C1  LIG X 999      45.683 131.110  13.902  1.00  0.00     0.193 C 
HETATM   19  N3  LIG X 999      46.707 130.440  13.464  1.00  0.00    -0.140 NA
BRANCH  19  20
HETATM   20  N2  LIG X 999      47.566 129.714  14.298  1.00  0.00    -0.051 NA
HETATM   21  N1  LIG X 999      48.445 128.949  13.793  1.00  0.00    -0.184 NA
HETATM   22  H1  LIG X 999      49.084 128.408  14.416  1.00  0.00     0.214 HD
ENDBRANCH  19  20
ENDBRANCH  12  18
ENDBRANCH   1   4
TORSDOF 3
