REMARK VINA RESULT:      -4.8      2.801      6.102
REMARK  6 active torsions:
REMARK  status: ('A' for Active; 'I' for Inactive)
REMARK    1  A    between atoms: C6_6  and  N1_7 
REMARK       I    between atoms: N1_7  and  C7_8 
REMARK    2  A    between atoms: C7_8  and  O2_10 
REMARK    3  A    between atoms: O2_10  and  C8_11 
REMARK    4  A    between atoms: C8_11  and  C10_13 
REMARK    5  A    between atoms: C10_13  and  O3_14 
REMARK    6  A    between atoms: C12_16  and  N2_17 
ROOT
HETATM    1  N2  LIG X 999      42.430 132.189  21.796  1.00  0.00    -0.070 NA
HETATM    2  N3  LIG X 999      41.514 132.962  21.509  1.00  0.00    -0.162 NA
HETATM    3  N4  LIG X 999      40.598 133.733  21.226  1.00  0.00     0.068 N 
ENDROOT
BRANCH   1   4
HETATM    4  C12 LIG X 999      43.374 131.719  20.821  1.00  0.00     0.122 A 
HETATM    5  C6  LIG X 999      44.532 131.055  21.260  1.00  0.00     0.095 A 
HETATM    6  C5  LIG X 999      45.483 130.615  20.322  1.00  0.00     0.046 A 
HETATM    7  C4  LIG X 999      45.264 130.793  18.949  1.00  0.00    -0.024 A 
HETATM    8  C3  LIG X 999      46.205 130.342  18.010  1.00  0.00     0.012 A 
HETATM    9  C14 LIG X 999      44.086 131.438  18.505  1.00  0.00    -0.024 A 
HETATM   10  C2  LIG X 999      45.977 130.526  16.643  1.00  0.00     0.001 A 
HETATM   11  C1  LIG X 999      44.812 131.161  16.204  1.00  0.00     0.001 A 
HETATM   12  C15 LIG X 999      43.868 131.617  17.130  1.00  0.00     0.012 A 
HETATM   13  C13 LIG X 999      43.153 131.901  19.443  1.00  0.00     0.049 A 
BRANCH   5  14
HETATM   14  N1  LIG X 999      44.746 130.889  22.671  1.00  0.00    -0.185 NA
HETATM   15  C7  LIG X 999      44.301 129.781  23.461  1.00  0.00     0.387 C 
HETATM   16  O1  LIG X 999      44.760 129.637  24.625  1.00  0.00    -0.236 OA
BRANCH  15  17
HETATM   17  O2  LIG X 999      43.338 128.897  22.960  1.00  0.00    -0.295 OA
BRANCH  17  18
HETATM   18  C8  LIG X 999      42.694 127.895  23.748  1.00  0.00     0.153 C 
HETATM   19  C9  LIG X 999      41.173 128.073  23.678  1.00  0.00     0.042 C 
BRANCH  18  20
HETATM   20  C10 LIG X 999      43.113 126.518  23.222  1.00  0.00     0.199 C 
BRANCH  20  21
HETATM   21  O3  LIG X 999      44.414 126.208  23.681  1.00  0.00    -0.393 OA
HETATM   22  C11 LIG X 999      45.283 126.097  22.578  1.00  0.00     0.201 C 
ENDBRANCH  20  21
ENDBRANCH  18  20
ENDBRANCH  17  18
ENDBRANCH  15  17
ENDBRANCH   5  14
ENDBRANCH   1   4
TORSDOF 6
