REMARK VINA RESULT:      -4.6      2.146      4.995
REMARK  5 active torsions:
REMARK  status: ('A' for Active; 'I' for Inactive)
REMARK    1  A    between atoms: O1_2  and  C1_3 
REMARK    2  A    between atoms: C1_3  and  C15_22 
REMARK    3  A    between atoms: N1_4  and  C2_5 
REMARK    4  A    between atoms: C3_6  and  O2_7 
REMARK    5  A    between atoms: O2_7  and  C4_8 
REMARK       I    between atoms: C4_8  and  N2_10 
ROOT
HETATM    1  C2  LIG X 999      43.107 126.398  23.924  1.00  0.00     0.104 A 
HETATM    2  C3  LIG X 999      42.730 127.725  24.192  1.00  0.00     0.110 A 
HETATM    3  C7  LIG X 999      41.383 128.106  24.070  1.00  0.00     0.041 A 
HETATM    4  C8  LIG X 999      40.411 127.170  23.722  1.00  0.00     0.015 A 
HETATM    5  C9  LIG X 999      40.763 125.833  23.499  1.00  0.00    -0.024 A 
HETATM    6  C10 LIG X 999      39.775 124.890  23.174  1.00  0.00     0.012 A 
HETATM    7  C11 LIG X 999      40.121 123.552  22.973  1.00  0.00     0.001 A 
HETATM    8  C12 LIG X 999      41.450 123.144  23.100  1.00  0.00     0.001 A 
HETATM    9  C13 LIG X 999      42.444 124.072  23.419  1.00  0.00     0.014 A 
HETATM   10  C14 LIG X 999      42.120 125.432  23.607  1.00  0.00     0.006 A 
ENDROOT
BRANCH   1  11
HETATM   11  N1  LIG X 999      44.496 126.052  24.020  1.00  0.00    -0.221 NA
HETATM   12  C1  LIG X 999      45.377 126.341  23.109  1.00  0.00     0.176 C 
BRANCH  12  13
HETATM   13  O1  LIG X 999      44.996 127.050  21.967  1.00  0.00    -0.344 OA
HETATM   14  H1  LIG X 999      44.969 128.060  21.943  1.00  0.00     0.219 HD
ENDBRANCH  12  13
BRANCH  12  15
HETATM   15  C15 LIG X 999      46.777 125.920  23.305  1.00  0.00     0.053 A 
HETATM   16  C16 LIG X 999      47.452 125.808  24.509  1.00  0.00     0.156 A 
HETATM   17  N3  LIG X 999      48.718 125.409  24.274  1.00  0.00    -0.185 NA
HETATM   18  N4  LIG X 999      48.851 125.253  22.966  1.00  0.00    -0.285 N 
HETATM   19  C17 LIG X 999      50.102 124.891  22.315  1.00  0.00     0.179 C 
HETATM   20  C18 LIG X 999      47.701 125.566  22.341  1.00  0.00     0.129 A 
ENDBRANCH  12  15
ENDBRANCH   1  11
BRANCH   2  21
HETATM   21  O2  LIG X 999      43.731 128.651  24.526  1.00  0.00    -0.254 OA
BRANCH  21  22
HETATM   22  C4  LIG X 999      43.959 129.869  23.869  1.00  0.00     0.461 C 
HETATM   23  O3  LIG X 999      44.583 129.898  22.771  1.00  0.00    -0.230 OA
HETATM   24  N2  LIG X 999      43.407 131.081  24.422  1.00  0.00     0.009 N 
HETATM   25  H2  LIG X 999      42.985 130.862  25.356  1.00  0.00     0.292 HD
HETATM   26  C5  LIG X 999      42.345 131.600  23.547  1.00  0.00     0.282 C 
HETATM   27  C6  LIG X 999      44.464 132.085  24.621  1.00  0.00     0.282 C 
ENDBRANCH  21  22
ENDBRANCH   2  21
TORSDOF 5
