REMARK VINA RESULT:      -6.4      0.000      0.000
REMARK  3 active torsions:
REMARK  status: ('A' for Active; 'I' for Inactive)
REMARK    1  A    between atoms: C2_2  and  O1_3 
REMARK    2  A    between atoms: O1_3  and  C3_4 
REMARK       I    between atoms: C3_4  and  N1_6 
REMARK    3  A    between atoms: N1_6  and  C4_7 
ROOT
HETATM    1  C4  LIG X 999      44.928 131.324  16.840  1.00  0.00     0.063 A 
HETATM    2  C5  LIG X 999      46.012 130.556  17.283  1.00  0.00     0.032 A 
HETATM    3  C6  LIG X 999      46.161 130.245  18.637  1.00  0.00     0.014 A 
HETATM    4  C7  LIG X 999      45.215 130.687  19.570  1.00  0.00    -0.025 A 
HETATM    5  C8  LIG X 999      45.355 130.377  20.937  1.00  0.00     0.021 A 
HETATM    6  C9  LIG X 999      44.383 130.834  21.829  1.00  0.00    -0.024 A 
HETATM    7  C10 LIG X 999      43.311 131.557  21.405  1.00  0.00    -0.024 A 
HETATM    8  C11 LIG X 999      43.130 131.879  20.060  1.00  0.00     0.021 A 
HETATM    9  C12 LIG X 999      44.094 131.446  19.127  1.00  0.00    -0.023 A 
HETATM   10  C13 LIG X 999      43.956 131.749  17.765  1.00  0.00     0.044 A 
HETATM   11  C14 LIG X 999      42.424 131.885  22.543  1.00  0.00     0.276 C 
HETATM   12  N2  LIG X 999      43.150 131.421  23.767  1.00  0.00    -0.067 N 
HETATM   13  C15 LIG X 999      43.631 132.588  24.546  1.00  0.00     0.272 C 
HETATM   14  C16 LIG X 999      42.262 130.605  24.625  1.00  0.00     0.272 C 
HETATM   15  C17 LIG X 999      44.315 130.609  23.289  1.00  0.00     0.276 C 
ENDROOT
BRANCH   1  16
HETATM   16  N1  LIG X 999      44.812 131.605  15.438  1.00  0.00    -0.188 NA
HETATM   17  C3  LIG X 999      45.454 130.882  14.383  1.00  0.00     0.387 C 
HETATM   18  O2  LIG X 999      45.464 131.372  13.222  1.00  0.00    -0.236 OA
BRANCH  17  19
HETATM   19  O1  LIG X 999      46.017 129.626  14.623  1.00  0.00    -0.303 OA
BRANCH  19  20
HETATM   20  C2  LIG X 999      47.405 129.357  14.457  1.00  0.00     0.176 C 
HETATM   21  C1  LIG X 999      47.954 130.205  13.322  1.00  0.00     0.034 C 
ENDBRANCH  19  20
ENDBRANCH  17  19
ENDBRANCH   1  16
TORSDOF 3
