REMARK VINA RESULT:      -5.4      2.867      4.992
REMARK  5 active torsions:
REMARK  status: ('A' for Active; 'I' for Inactive)
REMARK    1  A    between atoms: C3_3  and  O1_4 
REMARK    2  A    between atoms: O1_4  and  C4_5 
REMARK    3  A    between atoms: C5_6  and  C6_7 
REMARK    4  A    between atoms: C6_7  and  O2_8 
REMARK    5  A    between atoms: C17_20  and  N1_21 
ROOT
HETATM    1  C1  LIG X 999      49.207 125.211  22.379  1.00  0.00     0.014 C 
HETATM    2  C2  LIG X 999      48.131 125.462  22.862  1.00  0.00    -0.091 C 
HETATM    3  C3  LIG X 999      46.822 125.766  23.450  1.00  0.00     0.268 C 
ENDROOT
BRANCH   3   4
HETATM    4  O1  LIG X 999      45.802 125.710  22.454  1.00  0.00    -0.336 OA
BRANCH   4   5
HETATM    5  C4  LIG X 999      44.459 125.477  22.776  1.00  0.00     0.108 C 
HETATM    6  C5  LIG X 999      43.965 124.163  22.894  1.00  0.00     0.012 C 
HETATM    7  C7  LIG X 999      42.571 123.964  23.085  1.00  0.00    -0.014 C 
HETATM    8  C8  LIG X 999      42.005 122.666  23.090  1.00  0.00     0.013 C 
HETATM    9  C12 LIG X 999      41.703 125.092  23.225  1.00  0.00    -0.012 C 
HETATM   10  C9  LIG X 999      40.626 122.485  23.120  1.00  0.00     0.001 C 
HETATM   11  C10 LIG X 999      39.780 123.584  23.107  1.00  0.00     0.001 C 
HETATM   12  C11 LIG X 999      40.309 124.872  23.135  1.00  0.00     0.013 C 
HETATM   13  C13 LIG X 999      42.262 126.401  23.352  1.00  0.00     0.013 C 
HETATM   14  C14 LIG X 999      41.559 127.557  23.826  1.00  0.00    -0.045 C 
HETATM   15  C18 LIG X 999      43.628 126.575  23.016  1.00  0.00     0.105 C 
HETATM   16  C15 LIG X 999      40.278 127.503  24.625  1.00  0.00     0.049 C 
HETATM   17  C16 LIG X 999      42.146 128.824  23.687  1.00  0.00     0.063 C 
HETATM   18  C17 LIG X 999      43.459 128.942  23.222  1.00  0.00     0.186 C 
HETATM   19  N4  LIG X 999      44.164 127.823  22.945  1.00  0.00    -0.223 NA
BRANCH   6  20
HETATM   20  C6  LIG X 999      44.943 122.999  22.846  1.00  0.00     0.206 C 
BRANCH  20  21
HETATM   21  O2  LIG X 999      45.618 122.993  21.617  1.00  0.00    -0.396 OA
HETATM   22  H6  LIG X 999      46.326 122.300  21.673  1.00  0.00     0.209 HD
ENDBRANCH  20  21
ENDBRANCH   6  20
BRANCH  18  23
HETATM   23  N1  LIG X 999      44.104 130.216  23.088  1.00  0.00    -0.052 NA
HETATM   24  N2  LIG X 999      44.572 130.609  22.018  1.00  0.00    -0.160 NA
HETATM   25  N3  LIG X 999      45.041 131.003  20.951  1.00  0.00     0.068 N 
ENDBRANCH  18  23
ENDBRANCH   4   5
ENDBRANCH   3   4
TORSDOF 5
