REMARK VINA RESULT:      -7.5      2.040      6.685
REMARK  4 active torsions:
REMARK  status: ('A' for Active; 'I' for Inactive)
REMARK       I    between atoms: N1_1  and  C1_2 
REMARK    1  A    between atoms: C1_2  and  C2_4 
REMARK    2  A    between atoms: C11_13  and  O2_14 
REMARK    3  A    between atoms: O2_14  and  C12_15 
REMARK    4  A    between atoms: C12_15  and  C13_17 
ROOT
HETATM    1  C2  LIG X 999      43.813 130.427  23.044  1.00  0.00     0.068 A 
HETATM    2  C3  LIG X 999      43.653 129.301  23.876  1.00  0.00     0.032 A 
HETATM    3  C4  LIG X 999      44.264 128.080  23.563  1.00  0.00    -0.025 A 
HETATM    4  C5  LIG X 999      44.098 126.962  24.397  1.00  0.00     0.012 A 
HETATM    5  C6  LIG X 999      44.720 125.752  24.082  1.00  0.00     0.001 A 
HETATM    6  C7  LIG X 999      45.512 125.647  22.935  1.00  0.00     0.001 A 
HETATM    7  C8  LIG X 999      45.684 126.752  22.098  1.00  0.00     0.012 A 
HETATM    8  C9  LIG X 999      45.062 127.973  22.404  1.00  0.00    -0.023 A 
HETATM    9  C10 LIG X 999      45.229 129.087  21.573  1.00  0.00     0.050 A 
HETATM   10  C11 LIG X 999      44.601 130.310  21.872  1.00  0.00     0.096 A 
ENDROOT
BRANCH  10  11
HETATM   11  O2  LIG X 999      44.793 131.430  21.046  1.00  0.00    -0.274 OA
BRANCH  11  12
HETATM   12  C12 LIG X 999      43.999 131.771  19.941  1.00  0.00     0.298 C 
HETATM   13  O3  LIG X 999      42.950 132.454  20.096  1.00  0.00    -0.259 OA
BRANCH  12  14
HETATM   14  C13 LIG X 999      44.432 131.376  18.583  1.00  0.00     0.039 A 
HETATM   15  C14 LIG X 999      43.650 131.712  17.463  1.00  0.00     0.017 A 
HETATM   16  C15 LIG X 999      44.057 131.340  16.178  1.00  0.00     0.001 A 
HETATM   17  C16 LIG X 999      45.248 130.632  15.996  1.00  0.00     0.000 A 
HETATM   18  C17 LIG X 999      46.033 130.294  17.101  1.00  0.00     0.001 A 
HETATM   19  C18 LIG X 999      45.630 130.663  18.388  1.00  0.00     0.017 A 
ENDBRANCH  12  14
ENDBRANCH  11  12
ENDBRANCH  10  11
BRANCH   1  20
HETATM   20  C1  LIG X 999      43.140 131.701  23.420  1.00  0.00     0.273 C 
HETATM   21  N1  LIG X 999      41.963 132.145  22.746  1.00  0.00    -0.263 NA
HETATM   22  H1  LIG X 999      41.493 133.038  23.015  1.00  0.00     0.190 HD
HETATM   23  O1  LIG X 999      43.602 132.409  24.356  1.00  0.00    -0.266 OA
ENDBRANCH   1  20
TORSDOF 4
