REMARK VINA RESULT:      -4.0      5.267      6.991
REMARK  5 active torsions:
REMARK  status: ('A' for Active; 'I' for Inactive)
REMARK    1  A    between atoms: C3_3  and  N1_4 
REMARK    2  A    between atoms: N1_4  and  C6_7 
REMARK    3  A    between atoms: C6_7  and  C7_8 
REMARK    4  A    between atoms: C9_10  and  C10_11 
REMARK    5  A    between atoms: C11_14  and  N4_15 
ROOT
HETATM    1  C1  LIG X 999      45.667 131.075  17.725  1.00  0.00     0.013 C 
HETATM    2  C2  LIG X 999      44.858 131.209  18.608  1.00  0.00    -0.089 C 
HETATM    3  C3  LIG X 999      43.864 131.375  19.690  1.00  0.00     0.329 C 
ENDROOT
BRANCH   3   4
HETATM    4  N1  LIG X 999      44.432 131.181  21.060  1.00  0.00    -0.061 N 
HETATM    5  C4  LIG X 999      45.215 132.381  21.459  1.00  0.00     0.273 C 
HETATM    6  C5  LIG X 999      43.346 130.974  22.051  1.00  0.00     0.273 C 
BRANCH   4   7
HETATM    7  C6  LIG X 999      45.372 130.015  21.067  1.00  0.00     0.275 C 
BRANCH   7   8
HETATM    8  C7  LIG X 999      44.979 128.895  22.013  1.00  0.00    -0.035 C 
HETATM    9  C8  LIG X 999      44.937 127.615  21.584  1.00  0.00     0.001 C 
HETATM   10  C9  LIG X 999      44.660 126.487  22.557  1.00  0.00     0.054 C 
HETATM   11  C12 LIG X 999      44.054 125.262  21.828  1.00  0.00     0.023 C 
HETATM   12  C16 LIG X 999      43.613 126.994  23.595  1.00  0.00     0.028 C 
HETATM   13  C13 LIG X 999      43.661 124.153  22.824  1.00  0.00     0.002 C 
HETATM   14  C14 LIG X 999      42.698 124.670  23.906  1.00  0.00     0.001 C 
HETATM   15  C15 LIG X 999      43.251 125.911  24.625  1.00  0.00     0.010 C 
HETATM   16  C17 LIG X 999      44.068 128.292  24.212  1.00  0.00    -0.020 C 
HETATM   17  C18 LIG X 999      44.665 129.204  23.435  1.00  0.00     0.005 C 
BRANCH  10  18
HETATM   18  C10 LIG X 999      45.991 126.112  23.193  1.00  0.00     0.184 A 
HETATM   19  N2  LIG X 999      46.414 126.569  24.391  1.00  0.00    -0.124 NA
HETATM   20  N3  LIG X 999      47.583 125.995  24.625  1.00  0.00    -0.099 NA
HETATM   21  C11 LIG X 999      47.822 125.206  23.564  1.00  0.00     0.326 A 
HETATM   22  O1  LIG X 999      46.854 125.264  22.684  1.00  0.00    -0.255 OA
BRANCH  21  23
HETATM   23  N4  LIG X 999      48.992 124.403  23.425  1.00  0.00    -0.023 NA
HETATM   24  N5  LIG X 999      49.553 124.294  22.334  1.00  0.00    -0.158 NA
HETATM   25  N6  LIG X 999      50.113 124.185  21.245  1.00  0.00     0.068 N 
ENDBRANCH  21  23
ENDBRANCH  10  18
ENDBRANCH   7   8
ENDBRANCH   4   7
ENDBRANCH   3   4
TORSDOF 5
