REMARK VINA RESULT:      -7.6      1.401      2.511
REMARK  1 active torsions:
REMARK  status: ('A' for Active; 'I' for Inactive)
REMARK    1  A    between atoms: C10_11  and  N2_12 
ROOT
HETATM    1  C1  LIG X 999      46.882 131.696  14.553  1.00  0.00     0.272 C 
HETATM    2  N1  LIG X 999      46.049 130.623  15.146  1.00  0.00    -0.067 N 
HETATM    3  C2  LIG X 999      46.151 129.411  14.302  1.00  0.00     0.272 C 
HETATM    4  C3  LIG X 999      44.626 131.078  15.249  1.00  0.00     0.276 C 
HETATM    5  C4  LIG X 999      44.379 131.287  16.692  1.00  0.00    -0.024 A 
HETATM    6  C5  LIG X 999      43.233 131.795  17.296  1.00  0.00     0.021 A 
HETATM    7  C6  LIG X 999      43.190 131.884  18.702  1.00  0.00    -0.023 A 
HETATM    8  C7  LIG X 999      42.042 132.386  19.329  1.00  0.00     0.012 A 
HETATM    9  C8  LIG X 999      41.980 132.469  20.717  1.00  0.00     0.003 A 
HETATM   10  C9  LIG X 999      43.064 132.062  21.495  1.00  0.00     0.030 A 
HETATM   11  C10 LIG X 999      44.234 131.563  20.903  1.00  0.00     0.036 A 
HETATM   12  C11 LIG X 999      44.308 131.457  19.487  1.00  0.00     0.001 A 
HETATM   13  C12 LIG X 999      45.442 130.929  18.820  1.00  0.00     0.024 A 
HETATM   14  C13 LIG X 999      45.442 130.867  17.426  1.00  0.00    -0.023 A 
HETATM   15  C14 LIG X 999      46.503 130.334  16.544  1.00  0.00     0.276 C 
ENDROOT
BRANCH  11  16
HETATM   16  N2  LIG X 999      45.321 131.189  21.765  1.00  0.00    -0.398 N 
HETATM   17  H13 LIG X 999      45.425 131.533  22.742  1.00  0.00     0.156 HD
HETATM   18  H14 LIG X 999      46.020 130.479  21.450  1.00  0.00     0.156 HD
ENDBRANCH  11  16
TORSDOF 1
