REMARK VINA RESULT:      -7.0      1.308      1.773
REMARK  1 active torsions:
REMARK  status: ('A' for Active; 'I' for Inactive)
REMARK    1  A    between atoms: C9_10  and  N2_11 
ROOT
HETATM    1  C1  LIG X 999      47.310 131.414  14.058  1.00  0.00     0.272 C 
HETATM    2  N1  LIG X 999      46.338 130.651  14.875  1.00  0.00    -0.067 N 
HETATM    3  C2  LIG X 999      46.232 129.274  14.335  1.00  0.00     0.272 C 
HETATM    4  C3  LIG X 999      44.995 131.314  14.856  1.00  0.00     0.276 C 
HETATM    5  C4  LIG X 999      44.577 131.404  16.271  1.00  0.00    -0.024 A 
HETATM    6  C5  LIG X 999      43.355 131.852  16.776  1.00  0.00     0.021 A 
HETATM    7  C6  LIG X 999      43.171 131.878  18.172  1.00  0.00    -0.025 A 
HETATM    8  C7  LIG X 999      41.959 132.317  18.725  1.00  0.00     0.014 A 
HETATM    9  C8  LIG X 999      41.786 132.341  20.111  1.00  0.00     0.030 A 
HETATM   10  C9  LIG X 999      42.820 131.929  20.964  1.00  0.00     0.026 A 
HETATM   11  C10 LIG X 999      44.037 131.489  20.423  1.00  0.00     0.041 A 
HETATM   12  C11 LIG X 999      44.224 131.459  19.033  1.00  0.00    -0.023 A 
HETATM   13  C12 LIG X 999      45.444 131.021  18.484  1.00  0.00     0.021 A 
HETATM   14  C13 LIG X 999      45.585 131.003  17.096  1.00  0.00    -0.024 A 
HETATM   15  C14 LIG X 999      46.772 130.607  16.308  1.00  0.00     0.276 C 
ENDROOT
BRANCH  10  16
HETATM   16  N2  LIG X 999      42.634 131.958  22.382  1.00  0.00    -0.399 N 
HETATM   17  H12 LIG X 999      43.199 131.344  23.009  1.00  0.00     0.156 HD
HETATM   18  H13 LIG X 999      41.929 132.595  22.815  1.00  0.00     0.156 HD
ENDBRANCH  10  16
TORSDOF 1
