REMARK VINA RESULT:      -8.9      0.000      0.000
REMARK  4 active torsions:
REMARK  status: ('A' for Active; 'I' for Inactive)
REMARK    1  A    between atoms: O1_2  and  C1_3 
REMARK    2  A    between atoms: C1_3  and  N1_6 
REMARK    3  A    between atoms: N1_6  and  C4_8 
REMARK    4  A    between atoms: C4_8  and  C5_9 
ROOT
HETATM    1  C5  LIG X 999      44.695 131.095  16.452  1.00  0.00    -0.035 A 
HETATM    2  C6  LIG X 999      45.737 130.650  17.284  1.00  0.00     0.010 A 
HETATM    3  C7  LIG X 999      45.629 130.747  18.673  1.00  0.00     0.013 A 
HETATM    4  C8  LIG X 999      44.480 131.300  19.254  1.00  0.00    -0.026 A 
HETATM    5  C9  LIG X 999      44.361 131.400  20.649  1.00  0.00     0.012 A 
HETATM    6  C10 LIG X 999      43.211 131.957  21.216  1.00  0.00     0.001 A 
HETATM    7  C11 LIG X 999      42.175 132.417  20.399  1.00  0.00     0.001 A 
HETATM    8  C12 LIG X 999      42.282 132.322  19.008  1.00  0.00     0.012 A 
HETATM    9  C13 LIG X 999      43.430 131.764  18.425  1.00  0.00    -0.025 A 
HETATM   10  C14 LIG X 999      43.548 131.664  17.031  1.00  0.00     0.021 A 
ENDROOT
BRANCH   1  11
HETATM   11  C4  LIG X 999      44.820 131.011  14.944  1.00  0.00     0.113 C 
HETATM   12  C15 LIG X 999      43.560 131.581  14.285  1.00  0.00     0.037 C 
BRANCH  11  13
HETATM   13  N1  LIG X 999      46.014 131.730  14.482  1.00  0.00    -0.363 N 
HETATM   14  H6  LIG X 999      46.074 132.760  14.656  1.00  0.00     0.162 HD
BRANCH  13  15
HETATM   15  C1  LIG X 999      47.122 131.082  13.826  1.00  0.00     0.131 C 
HETATM   16  C2  LIG X 999      47.454 129.832  14.169  1.00  0.00     0.024 C 
HETATM   17  C3  LIG X 999      48.592 129.108  13.522  1.00  0.00     0.040 C 
BRANCH  15  18
HETATM   18  O1  LIG X 999      47.858 131.736  12.833  1.00  0.00    -0.347 OA
HETATM   19  H1  LIG X 999      47.755 131.535  11.848  1.00  0.00     0.219 HD
ENDBRANCH  15  18
ENDBRANCH  13  15
ENDBRANCH  11  13
ENDBRANCH   1  11
TORSDOF 4
