REMARK VINA RESULT:      -3.6      4.383      7.636
REMARK  5 active torsions:
REMARK  status: ('A' for Active; 'I' for Inactive)
REMARK    1  A    between atoms: C3_3  and  C4_4 
REMARK    2  A    between atoms: C4_4  and  S1_5 
REMARK    3  A    between atoms: S1_5  and  C5_6 
REMARK    4  A    between atoms: C6_7  and  N1_8 
REMARK    5  A    between atoms: C10_12  and  N2_13 
ROOT
HETATM    1  C1  LIG X 999      52.227 125.553  21.750  1.00  0.00     0.112 C 
HETATM    2  C2  LIG X 999      50.810 125.336  22.040  1.00  0.00    -0.110 C 
HETATM    3  C3  LIG X 999      49.643 125.151  22.275  1.00  0.00    -0.097 C 
ENDROOT
BRANCH   3   4
HETATM    4  C4  LIG X 999      48.224 124.919  22.553  1.00  0.00     0.173 C 
BRANCH   4   5
HETATM    5  S1  LIG X 999      47.843 125.301  24.297  1.00  0.00    -0.115 SA
BRANCH   5   6
HETATM    6  C5  LIG X 999      46.094 124.835  24.185  1.00  0.00     0.038 A 
HETATM    7  C6  LIG X 999      45.723 123.481  24.341  1.00  0.00     0.043 A 
HETATM    8  C7  LIG X 999      44.380 123.114  24.238  1.00  0.00     0.031 A 
HETATM    9  C8  LIG X 999      43.394 124.063  23.986  1.00  0.00     0.017 A 
HETATM   10  C9  LIG X 999      43.722 125.421  23.827  1.00  0.00     0.002 A 
HETATM   11  C10 LIG X 999      42.721 126.407  23.567  1.00  0.00     0.045 A 
HETATM   12  C14 LIG X 999      45.093 125.816  23.954  1.00  0.00    -0.004 A 
HETATM   13  C11 LIG X 999      43.118 127.751  23.505  1.00  0.00     0.003 A 
HETATM   14  C12 LIG X 999      44.419 128.119  23.635  1.00  0.00    -0.021 A 
HETATM   15  C18 LIG X 999      42.280 128.947  23.234  1.00  0.00     0.278 C 
HETATM   16  C13 LIG X 999      45.426 127.186  23.847  1.00  0.00     0.023 A 
HETATM   17  C15 LIG X 999      44.577 129.579  23.463  1.00  0.00     0.276 C 
HETATM   18  N3  LIG X 999      43.189 130.127  23.383  1.00  0.00    -0.067 N 
HETATM   19  C16 LIG X 999      42.863 130.867  24.625  1.00  0.00     0.272 C 
HETATM   20  C17 LIG X 999      43.053 131.043  22.226  1.00  0.00     0.272 C 
BRANCH   7  21
HETATM   21  N1  LIG X 999      46.692 122.460  24.625  1.00  0.00    -0.398 N 
HETATM   22  H6  LIG X 999      47.143 121.890  23.877  1.00  0.00     0.156 HD
HETATM   23  H7  LIG X 999      46.989 122.271  25.608  1.00  0.00     0.156 HD
ENDBRANCH   7  21
BRANCH  11  24
HETATM   24  N2  LIG X 999      41.342 126.069  23.341  1.00  0.00    -0.398 N 
HETATM   25  H10 LIG X 999      40.579 126.716  23.636  1.00  0.00     0.156 HD
HETATM   26  H11 LIG X 999      41.049 125.247  22.773  1.00  0.00     0.156 HD
ENDBRANCH  11  24
ENDBRANCH   5   6
ENDBRANCH   4   5
ENDBRANCH   3   4
TORSDOF 5
