REMARK VINA RESULT:      -5.0      6.687      8.425
REMARK  1 active torsions:
REMARK  status: ('A' for Active; 'I' for Inactive)
REMARK    1  A    between atoms: C3_3  and  N1_4 
ROOT
HETATM    1  N1  LIG X 999      44.258 129.992  23.188  1.00  0.00    -0.072 NA
HETATM    2  N2  LIG X 999      44.154 130.719  22.199  1.00  0.00    -0.162 NA
HETATM    3  N3  LIG X 999      44.055 131.444  21.209  1.00  0.00     0.068 N 
ENDROOT
BRANCH   1   4
HETATM    4  C3  LIG X 999      43.493 128.787  23.335  1.00  0.00     0.104 A 
HETATM    5  C2  LIG X 999      42.140 128.920  23.673  1.00  0.00     0.035 A 
HETATM    6  C1  LIG X 999      41.345 127.798  23.907  1.00  0.00     0.003 A 
HETATM    7  C10 LIG X 999      41.885 126.519  23.796  1.00  0.00     0.012 A 
HETATM    8  C9  LIG X 999      43.222 126.346  23.417  1.00  0.00    -0.023 A 
HETATM    9  C4  LIG X 999      44.045 127.488  23.159  1.00  0.00     0.006 A 
HETATM   10  C8  LIG X 999      43.746 125.047  23.266  1.00  0.00     0.021 A 
HETATM   11  C5  LIG X 999      45.364 127.283  22.689  1.00  0.00     0.024 A 
HETATM   12  C6  LIG X 999      45.843 125.979  22.560  1.00  0.00    -0.023 A 
HETATM   13  C7  LIG X 999      45.066 124.901  22.847  1.00  0.00    -0.024 A 
HETATM   14  C14 LIG X 999      47.169 125.545  22.069  1.00  0.00     0.276 C 
HETATM   15  C11 LIG X 999      45.799 123.645  22.579  1.00  0.00     0.276 C 
HETATM   16  N4  LIG X 999      47.199 124.059  22.248  1.00  0.00    -0.067 N 
HETATM   17  C12 LIG X 999      47.664 123.392  21.012  1.00  0.00     0.272 C 
HETATM   18  C13 LIG X 999      48.110 123.700  23.361  1.00  0.00     0.272 C 
ENDBRANCH   1   4
TORSDOF 1
