MODEL 1
REMARK VINA RESULT:      -8.5      0.000      0.000
REMARK  3 active torsions:
REMARK  status: ('A' for Active; 'I' for Inactive)
REMARK    1  A    between atoms: C3_3  and  S1_4 
REMARK    2  A    between atoms: S1_4  and  C4_7 
REMARK    3  A    between atoms: C13_16  and  N1_17 
ROOT
HETATM    1  C1  LIG X 999      47.461 130.761  13.368  1.00  0.00     0.013 C 
HETATM    2  C2  LIG X 999      46.869 131.362  14.229  1.00  0.00    -0.102 C 
HETATM    3  C3  LIG X 999      46.145 132.091  15.273  1.00  0.00     0.238 C 
ENDROOT
BRANCH   3   4
HETATM    4  S1  LIG X 999      44.759 131.127  15.845  1.00  0.00     0.185 S 
HETATM    5  O1  LIG X 999      44.877 129.725  15.319  1.00  0.00    -0.222 OA
HETATM    6  O2  LIG X 999      43.480 131.726  15.328  1.00  0.00    -0.222 OA
BRANCH   4   7
HETATM    7  C4  LIG X 999      44.739 131.098  17.606  1.00  0.00     0.060 A 
HETATM    8  C5  LIG X 999      45.808 130.538  18.310  1.00  0.00     0.024 A 
HETATM    9  C6  LIG X 999      45.809 130.539  19.705  1.00  0.00     0.011 A 
HETATM   10  C7  LIG X 999      44.742 131.107  20.422  1.00  0.00    -0.022 A 
HETATM   11  C8  LIG X 999      43.656 131.673  19.712  1.00  0.00    -0.048 A 
HETATM   12  C13 LIG X 999      44.753 131.029  21.939  1.00  0.00     0.217 C 
HETATM   13  C9  LIG X 999      43.673 131.675  18.308  1.00  0.00     0.031 A 
HETATM   14  C10 LIG X 999      42.534 132.396  20.419  1.00  0.00     0.039 C 
HETATM   15  C11 LIG X 999      42.408 132.004  21.893  1.00  0.00     0.007 C 
HETATM   16  C12 LIG X 999      43.775 132.037  22.577  1.00  0.00     0.038 C 
BRANCH  12  17
HETATM   17  N1  LIG X 999      44.462 129.656  22.379  1.00  0.00    -0.071 N 
HETATM   18  H14 LIG X 999      44.893 128.967  21.720  1.00  0.00     0.275 HD
HETATM   19  H15 LIG X 999      43.428 129.495  22.377  1.00  0.00     0.275 HD
HETATM   20  H16 LIG X 999      44.825 129.486  23.344  1.00  0.00     0.275 HD
ENDBRANCH  12  17
ENDBRANCH   4   7
ENDBRANCH   3   4
TORSDOF 3
ENDMDL
MODEL 2
REMARK VINA RESULT:      -8.2      1.826      2.560
REMARK  3 active torsions:
REMARK  status: ('A' for Active; 'I' for Inactive)
REMARK    1  A    between atoms: C3_3  and  S1_4 
REMARK    2  A    between atoms: S1_4  and  C4_7 
REMARK    3  A    between atoms: C13_16  and  N1_17 
ROOT
HETATM    1  C1  LIG X 999      48.382 129.511  13.377  1.00  0.00     0.013 C 
HETATM    2  C2  LIG X 999      47.548 129.555  14.246  1.00  0.00    -0.102 C 
HETATM    3  C3  LIG X 999      46.534 129.612  15.302  1.00  0.00     0.238 C 
ENDROOT
BRANCH   3   4
HETATM    4  S1  LIG X 999      45.633 131.147  15.205  1.00  0.00     0.185 S 
HETATM    5  O1  LIG X 999      44.702 131.103  14.027  1.00  0.00    -0.222 OA
HETATM    6  O2  LIG X 999      46.595 132.287  15.012  1.00  0.00    -0.222 OA
BRANCH   4   7
HETATM    7  C4  LIG X 999      44.706 131.388  16.683  1.00  0.00     0.060 A 
HETATM    8  C5  LIG X 999      43.337 131.663  16.614  1.00  0.00     0.024 A 
HETATM    9  C6  LIG X 999      42.593 131.827  17.783  1.00  0.00     0.011 A 
HETATM   10  C7  LIG X 999      43.204 131.712  19.043  1.00  0.00    -0.022 A 
HETATM   11  C8  LIG X 999      44.591 131.436  19.116  1.00  0.00    -0.048 A 
HETATM   12  C13 LIG X 999      42.371 131.961  20.289  1.00  0.00     0.217 C 
HETATM   13  C9  LIG X 999      45.325 131.263  17.932  1.00  0.00     0.031 A 
HETATM   14  C10 LIG X 999      45.284 131.191  20.436  1.00  0.00     0.039 C 
HETATM   15  C11 LIG X 999      44.521 131.774  21.627  1.00  0.00     0.007 C 
HETATM   16  C12 LIG X 999      43.042 131.394  21.557  1.00  0.00     0.038 C 
BRANCH  12  17
HETATM   17  N1  LIG X 999      42.091 133.398  20.433  1.00  0.00    -0.071 N 
HETATM   18  H14 LIG X 999      41.639 133.587  21.357  1.00  0.00     0.275 HD
HETATM   19  H15 LIG X 999      41.428 133.706  19.684  1.00  0.00     0.275 HD
HETATM   20  H16 LIG X 999      42.968 133.961  20.354  1.00  0.00     0.275 HD
ENDBRANCH  12  17
ENDBRANCH   4   7
ENDBRANCH   3   4
TORSDOF 3
ENDMDL
MODEL 3
REMARK VINA RESULT:      -7.4      1.668      2.466
REMARK  3 active torsions:
REMARK  status: ('A' for Active; 'I' for Inactive)
REMARK    1  A    between atoms: C3_3  and  S1_4 
REMARK    2  A    between atoms: S1_4  and  C4_7 
REMARK    3  A    between atoms: C13_16  and  N1_17 
ROOT
HETATM    1  C1  LIG X 999      47.531 130.892  12.461  1.00  0.00     0.013 C 
HETATM    2  C2  LIG X 999      47.079 131.289  13.506  1.00  0.00    -0.102 C 
HETATM    3  C3  LIG X 999      46.528 131.768  14.775  1.00  0.00     0.238 C 
ENDROOT
BRANCH   3   4
HETATM    4  S1  LIG X 999      46.026 130.388  15.785  1.00  0.00     0.185 S 
HETATM    5  O1  LIG X 999      47.240 129.759  16.407  1.00  0.00    -0.222 OA
HETATM    6  O2  LIG X 999      45.338 129.359  14.931  1.00  0.00    -0.222 OA
BRANCH   4   7
HETATM    7  C4  LIG X 999      44.934 130.942  17.052  1.00  0.00     0.060 A 
HETATM    8  C5  LIG X 999      43.671 131.441  16.720  1.00  0.00     0.024 A 
HETATM    9  C6  LIG X 999      42.793 131.854  17.722  1.00  0.00     0.011 A 
HETATM   10  C7  LIG X 999      43.159 131.770  19.075  1.00  0.00    -0.022 A 
HETATM   11  C8  LIG X 999      44.439 131.268  19.415  1.00  0.00    -0.048 A 
HETATM   12  C13 LIG X 999      42.198 132.290  20.131  1.00  0.00     0.217 C 
HETATM   13  C9  LIG X 999      45.309 130.845  18.397  1.00  0.00     0.031 A 
HETATM   14  C10 LIG X 999      44.851 131.048  20.852  1.00  0.00     0.039 C 
HETATM   15  C11 LIG X 999      44.030 131.877  21.841  1.00  0.00     0.007 C 
HETATM   16  C12 LIG X 999      42.536 131.754  21.537  1.00  0.00     0.038 C 
BRANCH  12  17
HETATM   17  N1  LIG X 999      42.175 133.761  20.114  1.00  0.00    -0.071 N 
HETATM   18  H14 LIG X 999      42.223 134.112  19.130  1.00  0.00     0.275 HD
HETATM   19  H15 LIG X 999      43.007 134.134  20.627  1.00  0.00     0.275 HD
HETATM   20  H16 LIG X 999      41.309 134.128  20.571  1.00  0.00     0.275 HD
ENDBRANCH  12  17
ENDBRANCH   4   7
ENDBRANCH   3   4
TORSDOF 3
ENDMDL
MODEL 4
REMARK VINA RESULT:      -7.0      3.359      6.630
REMARK  3 active torsions:
REMARK  status: ('A' for Active; 'I' for Inactive)
REMARK    1  A    between atoms: C3_3  and  S1_4 
REMARK    2  A    between atoms: S1_4  and  C4_7 
REMARK    3  A    between atoms: C13_16  and  N1_17 
ROOT
HETATM    1  C1  LIG X 999      43.328 131.753  23.957  1.00  0.00     0.013 C 
HETATM    2  C2  LIG X 999      43.276 131.523  22.775  1.00  0.00    -0.102 C 
HETATM    3  C3  LIG X 999      43.217 131.247  21.338  1.00  0.00     0.238 C 
ENDROOT
BRANCH   3   4
HETATM    4  S1  LIG X 999      44.863 131.039  20.686  1.00  0.00     0.185 S 
HETATM    5  O1  LIG X 999      45.400 129.701  21.107  1.00  0.00    -0.222 OA
HETATM    6  O2  LIG X 999      45.764 132.111  21.235  1.00  0.00    -0.222 OA
BRANCH   4   7
HETATM    7  C4  LIG X 999      44.823 131.133  18.927  1.00  0.00     0.060 A 
HETATM    8  C5  LIG X 999      43.842 131.896  18.288  1.00  0.00     0.024 A 
HETATM    9  C6  LIG X 999      43.825 131.996  16.896  1.00  0.00     0.011 A 
HETATM   10  C7  LIG X 999      44.793 131.339  16.119  1.00  0.00    -0.022 A 
HETATM   11  C8  LIG X 999      45.787 130.563  16.763  1.00  0.00    -0.048 A 
HETATM   12  C13 LIG X 999      44.699 131.421  14.604  1.00  0.00     0.217 C 
HETATM   13  C9  LIG X 999      45.799 130.480  18.164  1.00  0.00     0.031 A 
HETATM   14  C10 LIG X 999      46.919 129.924  15.994  1.00  0.00     0.039 C 
HETATM   15  C11 LIG X 999      46.604 129.744  14.508  1.00  0.00     0.007 C 
HETATM   16  C12 LIG X 999      46.026 131.032  13.920  1.00  0.00     0.038 C 
BRANCH  12  17
HETATM   17  N1  LIG X 999      43.587 130.591  14.119  1.00  0.00    -0.071 N 
HETATM   18  H14 LIG X 999      43.777 129.582  14.317  1.00  0.00     0.275 HD
HETATM   19  H15 LIG X 999      43.489 130.700  13.083  1.00  0.00     0.275 HD
HETATM   20  H16 LIG X 999      42.686 130.869  14.571  1.00  0.00     0.275 HD
ENDBRANCH  12  17
ENDBRANCH   4   7
ENDBRANCH   3   4
TORSDOF 3
ENDMDL
MODEL 5
REMARK VINA RESULT:      -5.5      1.739      2.652
REMARK  3 active torsions:
REMARK  status: ('A' for Active; 'I' for Inactive)
REMARK    1  A    between atoms: C3_3  and  S1_4 
REMARK    2  A    between atoms: S1_4  and  C4_7 
REMARK    3  A    between atoms: C13_16  and  N1_17 
ROOT
HETATM    1  C1  LIG X 999      46.735 130.037  14.386  1.00  0.00     0.013 C 
HETATM    2  C2  LIG X 999      46.434 130.065  15.553  1.00  0.00    -0.102 C 
HETATM    3  C3  LIG X 999      46.067 130.103  16.970  1.00  0.00     0.238 C 
ENDROOT
BRANCH   3   4
HETATM    4  S1  LIG X 999      44.921 131.434  17.272  1.00  0.00     0.185 S 
HETATM    5  O1  LIG X 999      43.766 131.321  16.318  1.00  0.00    -0.222 OA
HETATM    6  O2  LIG X 999      45.605 132.753  17.042  1.00  0.00    -0.222 OA
BRANCH   4   7
HETATM    7  C4  LIG X 999      44.329 131.347  18.929  1.00  0.00     0.060 A 
HETATM    8  C5  LIG X 999      43.274 132.167  19.340  1.00  0.00     0.024 A 
HETATM    9  C6  LIG X 999      42.783 132.080  20.643  1.00  0.00     0.011 A 
HETATM   10  C7  LIG X 999      43.335 131.168  21.557  1.00  0.00    -0.022 A 
HETATM   11  C8  LIG X 999      44.406 130.338  21.146  1.00  0.00    -0.048 A 
HETATM   12  C13 LIG X 999      42.814 131.152  22.985  1.00  0.00     0.217 C 
HETATM   13  C9  LIG X 999      44.883 130.427  19.828  1.00  0.00     0.031 A 
HETATM   14  C10 LIG X 999      44.969 129.261  22.043  1.00  0.00     0.039 C 
HETATM   15  C11 LIG X 999      44.670 129.504  23.524  1.00  0.00     0.007 C 
HETATM   16  C12 LIG X 999      43.195 129.854  23.726  1.00  0.00     0.038 C 
BRANCH  12  17
HETATM   17  N1  LIG X 999      43.291 132.338  23.712  1.00  0.00    -0.071 N 
HETATM   18  H14 LIG X 999      44.014 132.064  24.416  1.00  0.00     0.275 HD
HETATM   19  H15 LIG X 999      42.496 132.781  24.227  1.00  0.00     0.275 HD
HETATM   20  H16 LIG X 999      43.697 133.043  23.055  1.00  0.00     0.275 HD
ENDBRANCH  12  17
ENDBRANCH   4   7
ENDBRANCH   3   4
TORSDOF 3
ENDMDL
