REMARK VINA RESULT:      -5.2      0.000      0.000
REMARK  3 active torsions:
REMARK  status: ('A' for Active; 'I' for Inactive)
REMARK    1  A    between atoms: N2_3  and  N3_4 
REMARK    2  A    between atoms: C1_5  and  C2_6 
REMARK    3  A    between atoms: C3_8  and  C4_9 
REMARK       I    between atoms: N4_19  and  C14_20 
ROOT
HETATM    1  C2  LIG X 999      44.339 128.519  23.722  1.00  0.00     0.259 C 
HETATM    2  O1  LIG X 999      43.165 127.727  23.740  1.00  0.00    -0.335 OA
HETATM    3  C3  LIG X 999      43.573 126.428  24.094  1.00  0.00     0.280 C 
HETATM    4  N4  LIG X 999      45.009 126.402  23.933  1.00  0.00    -0.247 N 
HETATM    5  C14 LIG X 999      45.844 125.254  24.158  1.00  0.00     0.232 C 
HETATM    6  O2  LIG X 999      45.348 124.192  24.623  1.00  0.00    -0.272 OA
HETATM    7  C15 LIG X 999      47.313 125.313  23.878  1.00  0.00     0.119 C 
HETATM    8  N5  LIG X 999      45.519 127.657  23.617  1.00  0.00    -0.199 NA
HETATM    9  H15 LIG X 999      46.190 127.927  24.374  1.00  0.00     0.150 HD
ENDROOT
BRANCH   3  10
HETATM   10  C4  LIG X 999      42.905 125.409  23.178  1.00  0.00     0.003 A 
HETATM   11  C5  LIG X 999      43.656 124.939  22.083  1.00  0.00     0.012 A 
HETATM   12  C6  LIG X 999      43.123 124.026  21.178  1.00  0.00     0.002 A 
HETATM   13  C7  LIG X 999      41.829 123.547  21.346  1.00  0.00     0.012 A 
HETATM   14  C8  LIG X 999      41.057 123.965  22.436  1.00  0.00    -0.025 A 
HETATM   15  C9  LIG X 999      39.759 123.453  22.596  1.00  0.00     0.012 A 
HETATM   16  C13 LIG X 999      41.586 124.895  23.379  1.00  0.00    -0.015 A 
HETATM   17  C10 LIG X 999      38.979 123.838  23.684  1.00  0.00     0.001 A 
HETATM   18  C11 LIG X 999      39.487 124.730  24.625  1.00  0.00     0.001 A 
HETATM   19  C12 LIG X 999      40.775 125.254  24.482  1.00  0.00     0.013 A 
ENDBRANCH   3  10
BRANCH   1  20
HETATM   20  C1  LIG X 999      44.298 129.474  22.571  1.00  0.00     0.164 C 
HETATM   21  N3  LIG X 999      43.401 130.405  22.522  1.00  0.00    -0.143 NA
BRANCH  21  22
HETATM   22  N2  LIG X 999      43.359 131.300  21.447  1.00  0.00    -0.052 NA
HETATM   23  N1  LIG X 999      42.382 132.102  21.328  1.00  0.00    -0.184 NA
HETATM   24  H1  LIG X 999      42.349 132.769  20.526  1.00  0.00     0.214 HD
ENDBRANCH  21  22
ENDBRANCH   1  20
TORSDOF 3
