REMARK VINA RESULT:      -5.6      8.169      9.174
REMARK  1 active torsions:
REMARK  status: ('A' for Active; 'I' for Inactive)
REMARK    1  A    between atoms: C10_11  and  N2_12 
ROOT
HETATM    1  N2  LIG X 999      45.528 126.247  22.565  1.00  0.00    -0.214 NA
HETATM    2  C11 LIG X 999      46.571 125.565  22.307  1.00  0.00     0.165 C 
HETATM    3  S1  LIG X 999      47.891 124.702  21.979  1.00  0.00    -0.055 SA
ENDROOT
BRANCH   1   4
HETATM    4  C10 LIG X 999      44.226 125.677  22.768  1.00  0.00     0.152 C 
HETATM    5  N1  LIG X 999      43.265 126.444  23.334  1.00  0.00    -0.229 NA
HETATM    6  C9  LIG X 999      42.013 125.982  23.589  1.00  0.00     0.070 C 
HETATM    7  C8  LIG X 999      41.074 126.870  24.114  1.00  0.00     0.033 C 
HETATM    8  C15 LIG X 999      41.663 124.632  23.305  1.00  0.00     0.010 C 
HETATM    9  C7  LIG X 999      39.780 126.450  24.386  1.00  0.00     0.014 C 
HETATM   10  C5  LIG X 999      39.431 125.104  24.241  1.00  0.00    -0.025 C 
HETATM   11  C4  LIG X 999      40.387 124.161  23.762  1.00  0.00    -0.013 C 
HETATM   12  C6  LIG X 999      38.147 124.684  24.625  1.00  0.00     0.012 C 
HETATM   13  C3  LIG X 999      40.053 122.789  23.868  1.00  0.00     0.013 C 
HETATM   14  C2  LIG X 999      38.776 122.386  24.266  1.00  0.00     0.001 C 
HETATM   15  C1  LIG X 999      37.817 123.332  24.616  1.00  0.00     0.001 C 
HETATM   16  C13 LIG X 999      42.610 123.869  22.546  1.00  0.00    -0.045 C 
HETATM   17  C12 LIG X 999      43.903 124.379  22.349  1.00  0.00     0.060 C 
HETATM   18  C14 LIG X 999      42.276 122.602  21.800  1.00  0.00     0.049 C 
ENDBRANCH   1   4
TORSDOF 1
