REMARK VINA RESULT:      -3.8      2.059      4.469
REMARK  5 active torsions:
REMARK  status: ('A' for Active; 'I' for Inactive)
REMARK    1  A    between atoms: C3_3  and  O1_4 
REMARK    2  A    between atoms: O1_4  and  C4_5 
REMARK    3  A    between atoms: C5_6  and  C6_7 
REMARK    4  A    between atoms: C6_7  and  O2_8 
REMARK    5  A    between atoms: C17_20  and  N1_21 
ROOT
HETATM    1  C1  LIG X 999      42.617 123.359  20.786  1.00  0.00     0.014 C 
HETATM    2  C2  LIG X 999      41.961 122.932  21.702  1.00  0.00    -0.091 C 
HETATM    3  C3  LIG X 999      41.166 122.413  22.814  1.00  0.00     0.268 C 
ENDROOT
BRANCH   3   4
HETATM    4  O1  LIG X 999      41.632 122.984  24.031  1.00  0.00    -0.337 OA
BRANCH   4   5
HETATM    5  C4  LIG X 999      42.135 124.287  24.075  1.00  0.00     0.106 C 
HETATM    6  C5  LIG X 999      41.260 125.370  24.288  1.00  0.00     0.012 C 
HETATM    7  C7  LIG X 999      41.757 126.694  24.170  1.00  0.00    -0.014 C 
HETATM    8  C8  LIG X 999      40.887 127.809  24.232  1.00  0.00     0.013 C 
HETATM    9  C12 LIG X 999      43.146 126.913  23.934  1.00  0.00    -0.012 C 
HETATM   10  C9  LIG X 999      41.351 129.094  23.966  1.00  0.00     0.001 C 
HETATM   11  C10 LIG X 999      42.674 129.291  23.597  1.00  0.00     0.001 C 
HETATM   12  C11 LIG X 999      43.557 128.214  23.557  1.00  0.00     0.013 C 
HETATM   13  C13 LIG X 999      44.055 125.811  23.984  1.00  0.00     0.011 C 
HETATM   14  C14 LIG X 999      45.475 125.933  24.112  1.00  0.00    -0.045 C 
HETATM   15  C18 LIG X 999      43.520 124.497  23.934  1.00  0.00     0.080 C 
HETATM   16  C15 LIG X 999      46.178 127.168  24.625  1.00  0.00     0.049 C 
HETATM   17  C16 LIG X 999      46.281 124.808  23.901  1.00  0.00     0.061 C 
HETATM   18  C17 LIG X 999      45.701 123.552  23.711  1.00  0.00     0.165 C 
HETATM   19  N4  LIG X 999      44.353 123.423  23.777  1.00  0.00    -0.336 N 
HETATM   20  H15 LIG X 999      43.963 122.455  23.707  1.00  0.00     0.168 HD
BRANCH   6  21
HETATM   21  C6  LIG X 999      39.797 125.101  24.594  1.00  0.00     0.206 C 
BRANCH  21  22
HETATM   22  O2  LIG X 999      39.090 124.940  23.396  1.00  0.00    -0.396 OA
HETATM   23  H6  LIG X 999      38.719 125.833  23.171  1.00  0.00     0.209 HD
ENDBRANCH  21  22
ENDBRANCH   6  21
BRANCH  18  24
HETATM   24  N1  LIG X 999      46.505 122.377  23.513  1.00  0.00    -0.054 NA
HETATM   25  N2  LIG X 999      47.603 122.414  22.956  1.00  0.00    -0.160 NA
HETATM   26  N3  LIG X 999      48.700 122.448  22.401  1.00  0.00     0.068 N 
ENDBRANCH  18  24
ENDBRANCH   4   5
ENDBRANCH   3   4
TORSDOF 5
