REMARK VINA RESULT:      -7.0      2.796      6.469
REMARK  5 active torsions:
REMARK  status: ('A' for Active; 'I' for Inactive)
REMARK    1  A    between atoms: C6_6  and  C7_7 
REMARK    2  A    between atoms: C7_7  and  N3_15 
REMARK    3  A    between atoms: N1_8  and  C8_9 
REMARK    4  A    between atoms: C8_9  and  C9_10 
REMARK    5  A    between atoms: C9_10  and  N2_11 
ROOT
HETATM    1  N3  LIG X 999      43.209 131.295  18.439  1.00  0.00    -0.052 NA
HETATM    2  N4  LIG X 999      42.713 132.153  19.170  1.00  0.00    -0.160 NA
HETATM    3  N5  LIG X 999      42.216 133.008  19.902  1.00  0.00     0.068 N 
ENDROOT
BRANCH   1   4
HETATM    4  C7  LIG X 999      44.628 131.072  18.368  1.00  0.00     0.191 C 
HETATM    5  N1  LIG X 999      45.292 130.773  19.446  1.00  0.00    -0.267 NA
BRANCH   4   6
HETATM    6  C6  LIG X 999      45.366 131.178  17.087  1.00  0.00     0.015 A 
HETATM    7  C5  LIG X 999      46.070 130.069  16.588  1.00  0.00     0.027 A 
HETATM    8  C4  LIG X 999      46.762 130.154  15.370  1.00  0.00    -0.025 A 
HETATM    9  C3  LIG X 999      47.476 129.051  14.875  1.00  0.00     0.012 A 
HETATM   10  C12 LIG X 999      46.742 131.363  14.634  1.00  0.00    -0.026 A 
HETATM   11  C2  LIG X 999      48.163 129.147  13.660  1.00  0.00     0.001 A 
HETATM   12  C1  LIG X 999      48.141 130.340  12.933  1.00  0.00     0.001 A 
HETATM   13  C13 LIG X 999      47.434 131.445  13.415  1.00  0.00     0.012 A 
HETATM   14  C11 LIG X 999      46.026 132.462  15.126  1.00  0.00     0.013 A 
HETATM   15  C10 LIG X 999      45.340 132.369  16.340  1.00  0.00     0.016 A 
ENDBRANCH   4   6
BRANCH   5  16
HETATM   16  C8  LIG X 999      44.715 130.659  20.785  1.00  0.00     0.178 C 
BRANCH  16  17
HETATM   17  C9  LIG X 999      45.181 131.806  21.692  1.00  0.00     0.251 C 
BRANCH  17  18
HETATM   18  N2  LIG X 999      46.477 132.335  21.268  1.00  0.00    -0.078 N 
HETATM   19  H9  LIG X 999      46.826 133.005  21.991  1.00  0.00     0.274 HD
HETATM   20  H10 LIG X 999      46.381 132.846  20.360  1.00  0.00     0.274 HD
HETATM   21  H11 LIG X 999      47.169 131.558  21.166  1.00  0.00     0.274 HD
ENDBRANCH  17  18
ENDBRANCH  16  17
ENDBRANCH   5  16
ENDBRANCH   1   4
TORSDOF 5
