MODEL 1
REMARK VINA RESULT:      -8.0      0.000      0.000
REMARK  1 active torsions:
REMARK  status: ('A' for Active; 'I' for Inactive)
REMARK    1  A    between atoms: C11_13  and  N2_14 
ROOT
HETATM    1  N2  LIG X 999      47.548 129.510  14.383  1.00  0.00    -0.053 NA
HETATM    2  N3  LIG X 999      47.798 130.222  13.408  1.00  0.00    -0.160 NA
HETATM    3  N4  LIG X 999      48.046 130.931  12.435  1.00  0.00     0.068 N 
ENDROOT
BRANCH   1   4
HETATM    4  C11 LIG X 999      46.711 129.975  15.443  1.00  0.00     0.175 A 
HETATM    5  C10 LIG X 999      45.497 130.625  15.272  1.00  0.00     0.026 A 
HETATM    6  C5  LIG X 999      45.055 130.882  16.526  1.00  0.00     0.017 A 
HETATM    7  C9  LIG X 999      44.747 131.013  14.163  1.00  0.00     0.016 A 
HETATM    8  C4  LIG X 999      45.956 130.409  17.421  1.00  0.00     0.046 A 
HETATM    9  C6  LIG X 999      43.872 131.521  16.830  1.00  0.00     0.005 A 
HETATM   10  C3  LIG X 999      45.724 130.555  18.868  1.00  0.00     0.033 A 
HETATM   11  N5  LIG X 999      46.995 129.841  16.770  1.00  0.00    -0.337 N 
HETATM   12  C2  LIG X 999      44.591 131.170  19.276  1.00  0.00     0.034 A 
HETATM   13  C1  LIG X 999      43.588 131.695  18.288  1.00  0.00     0.059 A 
HETATM   14  N1  LIG X 999      42.515 132.277  18.720  1.00  0.00    -0.300 NA
HETATM   15  H1  LIG X 999      41.779 132.664  18.089  1.00  0.00     0.187 HD
HETATM   16  H7  LIG X 999      47.836 129.395  17.199  1.00  0.00     0.167 HD
HETATM   17  C7  LIG X 999      43.077 131.933  15.734  1.00  0.00     0.015 A 
HETATM   18  C8  LIG X 999      43.519 131.676  14.406  1.00  0.00     0.002 A 
ENDBRANCH   1   4
TORSDOF 1
ENDMDL
MODEL 2
REMARK VINA RESULT:      -7.5      1.900      3.744
REMARK  1 active torsions:
REMARK  status: ('A' for Active; 'I' for Inactive)
REMARK    1  A    between atoms: C11_13  and  N2_14 
ROOT
HETATM    1  N2  LIG X 999      46.217 130.497  16.155  1.00  0.00    -0.053 NA
HETATM    2  N3  LIG X 999      46.166 130.754  14.952  1.00  0.00    -0.160 NA
HETATM    3  N4  LIG X 999      46.116 131.010  13.750  1.00  0.00     0.068 N 
ENDROOT
BRANCH   1   4
HETATM    4  C11 LIG X 999      45.206 130.958  17.054  1.00  0.00     0.175 A 
HETATM    5  C10 LIG X 999      45.311 130.960  18.437  1.00  0.00     0.026 A 
HETATM    6  C5  LIG X 999      44.139 131.473  18.879  1.00  0.00     0.017 A 
HETATM    7  C9  LIG X 999      46.299 130.568  19.340  1.00  0.00     0.016 A 
HETATM    8  C4  LIG X 999      43.355 131.773  17.815  1.00  0.00     0.046 A 
HETATM    9  C6  LIG X 999      43.809 131.658  20.204  1.00  0.00     0.005 A 
HETATM   10  C3  LIG X 999      42.014 132.349  18.009  1.00  0.00     0.033 A 
HETATM   11  N5  LIG X 999      43.998 131.460  16.668  1.00  0.00    -0.337 N 
HETATM   12  C2  LIG X 999      41.590 132.573  19.274  1.00  0.00     0.034 A 
HETATM   13  C1  LIG X 999      42.455 132.244  20.457  1.00  0.00     0.059 A 
HETATM   14  N1  LIG X 999      42.013 132.472  21.652  1.00  0.00    -0.300 NA
HETATM   15  H1  LIG X 999      42.561 132.268  22.516  1.00  0.00     0.187 HD
HETATM   16  H7  LIG X 999      43.640 131.580  15.695  1.00  0.00     0.167 HD
HETATM   17  C7  LIG X 999      44.782 131.276  21.157  1.00  0.00     0.015 A 
HETATM   18  C8  LIG X 999      46.023 130.733  20.719  1.00  0.00     0.002 A 
ENDBRANCH   1   4
TORSDOF 1
ENDMDL
MODEL 3
REMARK VINA RESULT:      -7.2      2.522      3.445
REMARK  1 active torsions:
REMARK  status: ('A' for Active; 'I' for Inactive)
REMARK    1  A    between atoms: C11_13  and  N2_14 
ROOT
HETATM    1  N2  LIG X 999      46.108 130.680  16.771  1.00  0.00    -0.053 NA
HETATM    2  N3  LIG X 999      45.704 129.809  15.999  1.00  0.00    -0.160 NA
HETATM    3  N4  LIG X 999      45.302 128.940  15.228  1.00  0.00     0.068 N 
ENDROOT
BRANCH   1   4
HETATM    4  C11 LIG X 999      45.509 130.866  18.054  1.00  0.00     0.175 A 
HETATM    5  C10 LIG X 999      44.246 131.396  18.273  1.00  0.00     0.026 A 
HETATM    6  C5  LIG X 999      44.089 131.391  19.618  1.00  0.00     0.017 A 
HETATM    7  C9  LIG X 999      43.233 131.877  17.444  1.00  0.00     0.016 A 
HETATM    8  C4  LIG X 999      45.205 130.880  20.194  1.00  0.00     0.046 A 
HETATM    9  C6  LIG X 999      42.967 131.835  20.284  1.00  0.00     0.005 A 
HETATM   10  C3  LIG X 999      45.305 130.758  21.658  1.00  0.00     0.033 A 
HETATM   11  N5  LIG X 999      46.102 130.547  19.240  1.00  0.00    -0.337 N 
HETATM   12  C2  LIG X 999      44.256 131.166  22.408  1.00  0.00     0.034 A 
HETATM   13  C1  LIG X 999      43.017 131.732  21.775  1.00  0.00     0.059 A 
HETATM   14  N1  LIG X 999      42.035 132.112  22.529  1.00  0.00    -0.300 NA
HETATM   15  H1  LIG X 999      41.147 132.514  22.155  1.00  0.00     0.187 HD
HETATM   16  H7  LIG X 999      47.049 130.132  19.387  1.00  0.00     0.167 HD
HETATM   17  C7  LIG X 999      41.913 132.332  19.481  1.00  0.00     0.015 A 
HETATM   18  C8  LIG X 999      42.051 132.349  18.065  1.00  0.00     0.002 A 
ENDBRANCH   1   4
TORSDOF 1
ENDMDL
MODEL 4
REMARK VINA RESULT:      -7.1      1.689      6.232
REMARK  1 active torsions:
REMARK  status: ('A' for Active; 'I' for Inactive)
REMARK    1  A    between atoms: C11_13  and  N2_14 
ROOT
HETATM    1  N2  LIG X 999      41.874 132.854  20.494  1.00  0.00    -0.053 NA
HETATM    2  N3  LIG X 999      42.008 132.516  21.671  1.00  0.00    -0.160 NA
HETATM    3  N4  LIG X 999      42.141 132.178  22.846  1.00  0.00     0.068 N 
ENDROOT
BRANCH   1   4
HETATM    4  C11 LIG X 999      42.712 132.316  19.470  1.00  0.00     0.175 A 
HETATM    5  C10 LIG X 999      43.932 131.693  19.685  1.00  0.00     0.026 A 
HETATM    6  C5  LIG X 999      44.374 131.346  18.453  1.00  0.00     0.017 A 
HETATM    7  C9  LIG X 999      44.690 131.399  20.818  1.00  0.00     0.016 A 
HETATM    8  C4  LIG X 999      43.465 131.738  17.527  1.00  0.00     0.046 A 
HETATM    9  C6  LIG X 999      45.561 130.695  18.194  1.00  0.00     0.005 A 
HETATM   10  C3  LIG X 999      43.694 131.484  16.096  1.00  0.00     0.033 A 
HETATM   11  N5  LIG X 999      42.422 132.344  18.137  1.00  0.00    -0.337 N 
HETATM   12  C2  LIG X 999      44.832 130.850  15.731  1.00  0.00     0.034 A 
HETATM   13  C1  LIG X 999      45.843 130.413  16.753  1.00  0.00     0.059 A 
HETATM   14  N1  LIG X 999      46.920 129.808  16.363  1.00  0.00    -0.300 NA
HETATM   15  H1  LIG X 999      47.661 129.479  17.019  1.00  0.00     0.187 HD
HETATM   16  H7  LIG X 999      41.575 132.748  17.678  1.00  0.00     0.167 HD
HETATM   17  C7  LIG X 999      46.363 130.377  19.315  1.00  0.00     0.015 A 
HETATM   18  C8  LIG X 999      45.923 130.730  20.622  1.00  0.00     0.002 A 
ENDBRANCH   1   4
TORSDOF 1
ENDMDL
MODEL 5
REMARK VINA RESULT:      -7.1      2.686      5.473
REMARK  1 active torsions:
REMARK  status: ('A' for Active; 'I' for Inactive)
REMARK    1  A    between atoms: C11_13  and  N2_14 
ROOT
HETATM    1  N2  LIG X 999      45.002 130.989  22.000  1.00  0.00    -0.053 NA
HETATM    2  N3  LIG X 999      44.378 130.146  22.647  1.00  0.00    -0.160 NA
HETATM    3  N4  LIG X 999      43.755 129.306  23.293  1.00  0.00     0.068 N 
ENDROOT
BRANCH   1   4
HETATM    4  C11 LIG X 999      44.961 131.004  20.572  1.00  0.00     0.175 A 
HETATM    5  C10 LIG X 999      43.908 131.488  19.810  1.00  0.00     0.026 A 
HETATM    6  C5  LIG X 999      44.290 131.308  18.524  1.00  0.00     0.017 A 
HETATM    7  C9  LIG X 999      42.672 132.059  20.109  1.00  0.00     0.016 A 
HETATM    8  C4  LIG X 999      45.521 130.740  18.501  1.00  0.00     0.046 A 
HETATM    9  C6  LIG X 999      43.538 131.652  17.422  1.00  0.00     0.005 A 
HETATM   10  C3  LIG X 999      46.181 130.431  17.222  1.00  0.00     0.033 A 
HETATM   11  N5  LIG X 999      45.959 130.542  19.764  1.00  0.00    -0.337 N 
HETATM   12  C2  LIG X 999      45.529 130.730  16.075  1.00  0.00     0.034 A 
HETATM   13  C1  LIG X 999      44.165 131.360  16.095  1.00  0.00     0.059 A 
HETATM   14  N1  LIG X 999      43.573 131.630  14.975  1.00  0.00    -0.300 NA
HETATM   15  H1  LIG X 999      42.627 132.067  14.918  1.00  0.00     0.187 HD
HETATM   16  H7  LIG X 999      46.869 130.122  20.054  1.00  0.00     0.167 HD
HETATM   17  C7  LIG X 999      42.275 132.236  17.677  1.00  0.00     0.015 A 
HETATM   18  C8  LIG X 999      41.849 132.437  19.020  1.00  0.00     0.002 A 
ENDBRANCH   1   4
TORSDOF 1
ENDMDL
MODEL 6
REMARK VINA RESULT:      -6.4      2.990      6.906
REMARK  1 active torsions:
REMARK  status: ('A' for Active; 'I' for Inactive)
REMARK    1  A    between atoms: C11_13  and  N2_14 
ROOT
HETATM    1  N2  LIG X 999      43.100 131.840  23.372  1.00  0.00    -0.053 NA
HETATM    2  N3  LIG X 999      42.753 130.838  23.998  1.00  0.00    -0.160 NA
HETATM    3  N4  LIG X 999      42.407 129.838  24.625  1.00  0.00     0.068 N 
ENDROOT
BRANCH   1   4
HETATM    4  C11 LIG X 999      43.074 131.865  21.943  1.00  0.00     0.175 A 
HETATM    5  C10 LIG X 999      44.103 131.431  21.121  1.00  0.00     0.026 A 
HETATM    6  C5  LIG X 999      43.657 131.635  19.859  1.00  0.00     0.017 A 
HETATM    7  C9  LIG X 999      45.367 130.886  21.346  1.00  0.00     0.016 A 
HETATM    8  C4  LIG X 999      42.412 132.169  19.908  1.00  0.00     0.046 A 
HETATM    9  C6  LIG X 999      44.366 131.342  18.714  1.00  0.00     0.005 A 
HETATM   10  C3  LIG X 999      41.686 132.494  18.670  1.00  0.00     0.033 A 
HETATM   11  N5  LIG X 999      42.029 132.321  21.195  1.00  0.00    -0.337 N 
HETATM   12  C2  LIG X 999      42.292 132.245  17.487  1.00  0.00     0.034 A 
HETATM   13  C1  LIG X 999      43.672 131.653  17.426  1.00  0.00     0.059 A 
HETATM   14  N1  LIG X 999      44.218 131.429  16.274  1.00  0.00    -0.300 NA
HETATM   15  H1  LIG X 999      45.171 131.021  16.161  1.00  0.00     0.187 HD
HETATM   16  H7  LIG X 999      41.121 132.708  21.538  1.00  0.00     0.167 HD
HETATM   17  C7  LIG X 999      45.655 130.786  18.895  1.00  0.00     0.015 A 
HETATM   18  C8  LIG X 999      46.148 130.561  20.210  1.00  0.00     0.002 A 
ENDBRANCH   1   4
TORSDOF 1
ENDMDL
