REMARK VINA RESULT:      -7.3      1.441      1.878
REMARK  7 active torsions:
REMARK  status: ('A' for Active; 'I' for Inactive)
REMARK    1  A    between atoms: C14_14  and  N1_15 
REMARK    2  A    between atoms: N1_15  and  C15_17 
REMARK    3  A    between atoms: C15_17  and  C16_18 
REMARK    4  A    between atoms: C16_18  and  C17_19 
REMARK    5  A    between atoms: C17_19  and  C18_20 
REMARK    6  A    between atoms: C18_20  and  C19_21 
REMARK    7  A    between atoms: C19_21  and  N2_22 
ROOT
HETATM    1  C1  LIG X 999      45.275 131.033  15.499  1.00  0.00     0.001 C 
HETATM    2  C2  LIG X 999      46.107 130.528  16.493  1.00  0.00     0.001 C 
HETATM    3  C3  LIG X 999      45.737 130.619  17.837  1.00  0.00     0.013 C 
HETATM    4  C4  LIG X 999      44.540 131.267  18.224  1.00  0.00    -0.013 C 
HETATM    5  C5  LIG X 999      43.650 131.667  17.187  1.00  0.00    -0.025 C 
HETATM    6  C6  LIG X 999      44.041 131.583  15.841  1.00  0.00     0.012 C 
HETATM    7  C7  LIG X 999      42.356 132.093  17.496  1.00  0.00     0.014 C 
HETATM    8  C8  LIG X 999      41.910 132.077  18.809  1.00  0.00     0.031 C 
HETATM    9  C9  LIG X 999      42.777 131.744  19.858  1.00  0.00     0.045 C 
HETATM   10  C10 LIG X 999      44.141 131.439  19.592  1.00  0.00     0.008 C 
HETATM   11  C11 LIG X 999      45.015 131.369  20.719  1.00  0.00    -0.045 C 
HETATM   12  C12 LIG X 999      46.518 131.495  20.636  1.00  0.00     0.049 C 
HETATM   13  C13 LIG X 999      44.471 131.322  22.011  1.00  0.00     0.056 C 
HETATM   14  C14 LIG X 999      43.090 131.484  22.215  1.00  0.00     0.101 C 
HETATM   15  N3  LIG X 999      42.298 131.737  21.136  1.00  0.00    -0.342 N 
HETATM   16  H28 LIG X 999      41.279 131.925  21.290  1.00  0.00     0.167 HD
ENDROOT
BRANCH  14  17
HETATM   17  N1  LIG X 999      42.549 131.442  23.412  1.00  0.00    -0.376 N 
HETATM   18  H11 LIG X 999      42.040 132.287  23.762  1.00  0.00     0.161 HD
BRANCH  17  19
HETATM   19  C15 LIG X 999      42.588 130.306  24.341  1.00  0.00     0.121 C 
BRANCH  19  20
HETATM   20  C16 LIG X 999      41.899 129.079  23.729  1.00  0.00     0.020 C 
BRANCH  20  21
HETATM   21  C17 LIG X 999      42.649 127.788  24.093  1.00  0.00     0.004 C 
BRANCH  21  22
HETATM   22  C18 LIG X 999      41.703 126.613  24.398  1.00  0.00     0.035 C 
BRANCH  22  23
HETATM   23  C19 LIG X 999      41.482 125.663  23.203  1.00  0.00     0.216 C 
HETATM   24  C21 LIG X 999      42.422 124.450  23.321  1.00  0.00     0.042 C 
BRANCH  23  25
HETATM   25  N2  LIG X 999      40.067 125.247  23.156  1.00  0.00     0.083 N 
HETATM   26  H21 LIG X 999      39.723 125.233  22.167  1.00  0.00     0.315 HD
HETATM   27  C20 LIG X 999      39.204 126.130  23.944  1.00  0.00     0.307 C 
ENDBRANCH  23  25
ENDBRANCH  22  23
ENDBRANCH  21  22
ENDBRANCH  20  21
ENDBRANCH  19  20
ENDBRANCH  17  19
ENDBRANCH  14  17
TORSDOF 7
