REMARK VINA RESULT:      -5.8      2.199      6.276
REMARK  1 active torsions:
REMARK  status: ('A' for Active; 'I' for Inactive)
REMARK    1  A    between atoms: C8_9  and  N2_10 
ROOT
HETATM    1  C1  LIG X 999      45.022 132.241  21.809  1.00  0.00     0.283 C 
HETATM    2  N1  LIG X 999      44.310 131.515  20.736  1.00  0.00    -0.005 N 
HETATM    3  C2  LIG X 999      43.021 130.991  21.231  1.00  0.00     0.283 C 
HETATM    4  C3  LIG X 999      44.118 132.383  19.527  1.00  0.00     0.286 A 
HETATM    5  C4  LIG X 999      44.860 131.709  18.416  1.00  0.00    -0.015 A 
HETATM    6  C5  LIG X 999      44.985 132.122  17.089  1.00  0.00     0.022 A 
HETATM    7  C6  LIG X 999      45.739 131.325  16.202  1.00  0.00    -0.023 A 
HETATM    8  C7  LIG X 999      45.892 131.702  14.859  1.00  0.00     0.041 A 
HETATM    9  C8  LIG X 999      46.643 130.907  13.981  1.00  0.00     0.026 A 
HETATM   10  C9  LIG X 999      47.244 129.729  14.449  1.00  0.00     0.030 A 
HETATM   11  C10 LIG X 999      47.100 129.341  15.783  1.00  0.00     0.014 A 
HETATM   12  C11 LIG X 999      46.353 130.127  16.670  1.00  0.00    -0.025 A 
HETATM   13  C12 LIG X 999      46.204 129.742  18.018  1.00  0.00     0.030 A 
HETATM   14  C13 LIG X 999      45.450 130.562  18.856  1.00  0.00     0.049 A 
HETATM   15  C14 LIG X 999      45.130 130.428  20.251  1.00  0.00     0.351 A 
HETATM   16  O1  LIG X 999      45.520 129.470  20.974  1.00  0.00    -0.259 OA
ENDROOT
BRANCH   9  17
HETATM   17  N2  LIG X 999      46.795 131.295  12.614  1.00  0.00    -0.399 N 
HETATM   18  H11 LIG X 999      47.256 130.660  11.925  1.00  0.00     0.156 HD
HETATM   19  H12 LIG X 999      46.447 132.221  12.279  1.00  0.00     0.156 HD
ENDBRANCH   9  17
TORSDOF 1
