REMARK VINA RESULT:      -8.1      1.091      2.607
REMARK  4 active torsions:
REMARK  status: ('A' for Active; 'I' for Inactive)
REMARK    1  A    between atoms: C3_3  and  O1_4 
REMARK    2  A    between atoms: O1_4  and  C4_5 
REMARK    3  A    between atoms: C4_5  and  C5_7 
REMARK    4  A    between atoms: C5_7  and  C6_8 
ROOT
HETATM    1  C1  LIG X 999      47.813 130.807  12.969  1.00  0.00     0.014 C 
HETATM    2  C2  LIG X 999      47.170 130.251  13.824  1.00  0.00    -0.091 C 
HETATM    3  C3  LIG X 999      46.391 129.575  14.862  1.00  0.00     0.271 C 
ENDROOT
BRANCH   3   4
HETATM    4  O1  LIG X 999      45.187 130.300  15.088  1.00  0.00    -0.309 OA
BRANCH   4   5
HETATM    5  C4  LIG X 999      45.146 131.474  15.845  1.00  0.00     0.263 C 
HETATM    6  O2  LIG X 999      46.044 132.351  15.722  1.00  0.00    -0.265 OA
BRANCH   5   7
HETATM    7  C5  LIG X 999      44.003 131.709  16.781  1.00  0.00     0.150 C 
BRANCH   7   8
HETATM    8  C6  LIG X 999      44.410 131.377  18.201  1.00  0.00    -0.038 A 
HETATM    9  C7  LIG X 999      45.636 130.718  18.398  1.00  0.00     0.008 A 
HETATM   10  C8  LIG X 999      46.083 130.401  19.680  1.00  0.00     0.001 A 
HETATM   11  C9  LIG X 999      45.321 130.744  20.794  1.00  0.00     0.012 A 
HETATM   12  C10 LIG X 999      44.101 131.415  20.637  1.00  0.00    -0.025 A 
HETATM   13  C11 LIG X 999      43.347 131.765  21.768  1.00  0.00     0.012 A 
HETATM   14  C15 LIG X 999      43.631 131.744  19.335  1.00  0.00    -0.019 A 
HETATM   15  C12 LIG X 999      42.136 132.441  21.624  1.00  0.00     0.001 A 
HETATM   16  C13 LIG X 999      41.666 132.773  20.355  1.00  0.00     0.001 A 
HETATM   17  C14 LIG X 999      42.401 132.430  19.219  1.00  0.00     0.013 A 
ENDBRANCH   7   8
ENDBRANCH   5   7
ENDBRANCH   4   5
ENDBRANCH   3   4
TORSDOF 4
