REMARK VINA RESULT:      -6.7      1.199      2.057
REMARK  3 active torsions:
REMARK  status: ('A' for Active; 'I' for Inactive)
REMARK       I    between atoms: N1_2  and  C3_4 
REMARK    1  A    between atoms: C3_4  and  O2_6 
REMARK    2  A    between atoms: O2_6  and  C4_7 
REMARK    3  A    between atoms: C13_16  and  N2_17 
ROOT
HETATM    1  C4  LIG X 999      43.610 131.596  17.782  1.00  0.00     0.108 A 
HETATM    2  C5  LIG X 999      42.360 132.116  18.120  1.00  0.00     0.040 A 
HETATM    3  C6  LIG X 999      42.006 132.306  19.452  1.00  0.00     0.015 A 
HETATM    4  C7  LIG X 999      42.890 131.951  20.476  1.00  0.00    -0.024 A 
HETATM    5  C8  LIG X 999      42.518 132.140  21.816  1.00  0.00     0.012 A 
HETATM    6  C9  LIG X 999      43.376 131.760  22.846  1.00  0.00     0.001 A 
HETATM    7  C10 LIG X 999      44.608 131.178  22.550  1.00  0.00     0.001 A 
HETATM    8  C11 LIG X 999      44.996 130.984  21.223  1.00  0.00     0.014 A 
HETATM    9  C12 LIG X 999      44.154 131.382  20.160  1.00  0.00     0.003 A 
HETATM   10  C13 LIG X 999      44.515 131.202  18.796  1.00  0.00     0.071 A 
ENDROOT
BRANCH   1  11
HETATM   11  O2  LIG X 999      43.925 131.475  16.424  1.00  0.00    -0.259 OA
BRANCH  11  12
HETATM   12  C3  LIG X 999      45.235 131.513  15.926  1.00  0.00     0.367 C 
HETATM   13  N1  LIG X 999      45.807 130.337  15.330  1.00  0.00    -0.336 N 
HETATM   14  C1  LIG X 999      45.014 129.106  15.267  1.00  0.00     0.154 C 
HETATM   15  C2  LIG X 999      47.173 130.378  14.801  1.00  0.00     0.154 C 
HETATM   16  O1  LIG X 999      45.904 132.583  15.984  1.00  0.00    -0.238 OA
ENDBRANCH  11  12
ENDBRANCH   1  11
BRANCH  10  17
HETATM   17  N2  LIG X 999      45.763 130.592  18.425  1.00  0.00    -0.396 N 
HETATM   18  H13 LIG X 999      45.817 129.795  17.756  1.00  0.00     0.156 HD
HETATM   19  H14 LIG X 999      46.655 130.881  18.883  1.00  0.00     0.156 HD
ENDBRANCH  10  17
TORSDOF 3
