REMARK VINA RESULT:      -5.5      2.030      3.096
REMARK  3 active torsions:
REMARK  status: ('A' for Active; 'I' for Inactive)
REMARK    1  A    between atoms: C2_2  and  N1_3 
REMARK       I    between atoms: N2_8  and  C7_9 
REMARK    2  A    between atoms: C7_9  and  C8_11 
REMARK    3  A    between atoms: C9_12  and  C10_13 
ROOT
HETATM    1  C8  LIG X 999      45.199 130.133  19.598  1.00  0.00     0.001 C 
HETATM    2  C9  LIG X 999      45.537 130.369  18.465  1.00  0.00    -0.057 C 
ENDROOT
BRANCH   1   3
HETATM    3  C7  LIG X 999      44.790 129.857  20.950  1.00  0.00     0.313 C 
HETATM    4  N2  LIG X 999      43.961 130.781  21.674  1.00  0.00    -0.269 N 
HETATM    5  N1  LIG X 999      43.546 130.517  22.994  1.00  0.00    -0.226 NA
HETATM    6  C6  LIG X 999      43.294 131.904  21.037  1.00  0.00     0.153 C 
HETATM    7  C3  LIG X 999      42.352 131.362  23.180  1.00  0.00     0.119 C 
HETATM    8  C4  LIG X 999      42.413 132.479  22.132  1.00  0.00     0.016 C 
HETATM    9  C5  LIG X 999      41.028 132.899  21.629  1.00  0.00     0.013 C 
HETATM   10  O1  LIG X 999      45.171 128.789  21.497  1.00  0.00    -0.257 OA
BRANCH   5  11
HETATM   11  C2  LIG X 999      44.634 130.909  23.913  1.00  0.00     0.109 C 
HETATM   12  C1  LIG X 999      44.286 132.212  24.625  1.00  0.00     0.023 C 
ENDBRANCH   5  11
ENDBRANCH   1   3
BRANCH   2  13
HETATM   13  C10 LIG X 999      45.938 130.653  17.113  1.00  0.00     0.019 A 
HETATM   14  C11 LIG X 999      45.518 131.836  16.492  1.00  0.00     0.021 A 
HETATM   15  C12 LIG X 999      45.903 132.118  15.179  1.00  0.00     0.013 A 
HETATM   16  C13 LIG X 999      46.714 131.217  14.472  1.00  0.00    -0.026 A 
HETATM   17  C14 LIG X 999      47.107 131.489  13.152  1.00  0.00     0.012 A 
HETATM   18  C18 LIG X 999      47.141 130.019  15.098  1.00  0.00    -0.025 A 
HETATM   19  C15 LIG X 999      47.914 130.583  12.460  1.00  0.00     0.001 A 
HETATM   20  C16 LIG X 999      48.335 129.401  13.076  1.00  0.00     0.001 A 
HETATM   21  C17 LIG X 999      47.951 129.118  14.390  1.00  0.00     0.012 A 
HETATM   22  C19 LIG X 999      46.748 129.745  16.417  1.00  0.00     0.032 A 
ENDBRANCH   2  13
TORSDOF 3
