REMARK VINA RESULT:      -7.5      5.086      7.506
REMARK  6 active torsions:
REMARK  status: ('A' for Active; 'I' for Inactive)
REMARK    1  A    between atoms: O1_2  and  C1_3 
REMARK    2  A    between atoms: C1_3  and  C2_4 
REMARK    3  A    between atoms: C1_3  and  C13_20 
REMARK    4  A    between atoms: C2_4  and  O3_6 
REMARK    5  A    between atoms: O3_6  and  C3_7 
REMARK    6  A    between atoms: C8_12  and  N1_13 
ROOT
HETATM    1  N1  LIG X 999      45.999 130.615  14.270  1.00  0.00    -0.073 NA
HETATM    2  N2  LIG X 999      47.001 129.903  14.173  1.00  0.00    -0.162 NA
HETATM    3  N3  LIG X 999      48.000 129.193  14.075  1.00  0.00     0.068 N 
ENDROOT
BRANCH   1   4
HETATM    4  C8  LIG X 999      45.376 130.893  15.531  1.00  0.00     0.094 A 
HETATM    5  C7  LIG X 999      46.015 130.612  16.753  1.00  0.00     0.046 A 
HETATM    6  C6  LIG X 999      45.375 130.897  17.970  1.00  0.00    -0.024 A 
HETATM    7  C5  LIG X 999      46.007 130.625  19.191  1.00  0.00     0.015 A 
HETATM    8  C11 LIG X 999      44.081 131.470  17.965  1.00  0.00    -0.023 A 
HETATM    9  C4  LIG X 999      45.361 130.912  20.398  1.00  0.00     0.038 A 
HETATM   10  C3  LIG X 999      44.068 131.465  20.400  1.00  0.00     0.080 A 
HETATM   11  C12 LIG X 999      43.443 131.756  19.181  1.00  0.00     0.049 A 
HETATM   12  C10 LIG X 999      43.452 131.750  16.744  1.00  0.00     0.014 A 
HETATM   13  C9  LIG X 999      44.097 131.462  15.538  1.00  0.00     0.035 A 
BRANCH  10  14
HETATM   14  O3  LIG X 999      43.389 131.777  21.586  1.00  0.00    -0.277 OA
BRANCH  14  15
HETATM   15  C2  LIG X 999      43.761 131.352  22.869  1.00  0.00     0.293 C 
HETATM   16  O2  LIG X 999      44.579 132.017  23.562  1.00  0.00    -0.262 OA
BRANCH  15  17
HETATM   17  C1  LIG X 999      43.246 130.040  23.389  1.00  0.00     0.217 C 
BRANCH  17  18
HETATM   18  O1  LIG X 999      42.036 129.730  22.750  1.00  0.00    -0.386 OA
HETATM   19  H1  LIG X 999      42.193 129.825  21.774  1.00  0.00     0.210 HD
ENDBRANCH  17  18
BRANCH  17  20
HETATM   20  C13 LIG X 999      44.252 128.910  23.123  1.00  0.00     0.037 C 
HETATM   21  C14 LIG X 999      43.764 127.557  23.644  1.00  0.00     0.008 C 
ENDBRANCH  17  20
ENDBRANCH  15  17
ENDBRANCH  14  15
ENDBRANCH  10  14
ENDBRANCH   1   4
TORSDOF 6
