REMARK VINA RESULT:      -5.1      7.288      8.839
REMARK  1 active torsions:
REMARK  status: ('A' for Active; 'I' for Inactive)
REMARK    1  A    between atoms: N1_2  and  C1_3 
ROOT
HETATM    1  C1  LIG X 999      39.229 123.233  23.972  1.00  0.00     0.143 C 
HETATM    2  N2  LIG X 999      40.407 122.805  23.455  1.00  0.00    -0.229 NA
HETATM    3  C2  LIG X 999      41.425 123.657  23.169  1.00  0.00     0.070 C 
HETATM    4  C3  LIG X 999      42.575 123.138  22.576  1.00  0.00     0.033 C 
HETATM    5  C4  LIG X 999      43.640 123.968  22.257  1.00  0.00     0.014 C 
HETATM    6  C5  LIG X 999      43.620 125.316  22.626  1.00  0.00    -0.025 C 
HETATM    7  C6  LIG X 999      44.755 126.109  22.386  1.00  0.00     0.012 C 
HETATM    8  C7  LIG X 999      44.812 127.416  22.863  1.00  0.00     0.001 C 
HETATM    9  C8  LIG X 999      43.759 127.927  23.615  1.00  0.00     0.001 C 
HETATM   10  C9  LIG X 999      42.618 127.155  23.849  1.00  0.00     0.013 C 
HETATM   11  C10 LIG X 999      42.482 125.862  23.289  1.00  0.00    -0.013 C 
HETATM   12  C11 LIG X 999      41.310 125.049  23.449  1.00  0.00     0.010 C 
HETATM   13  C12 LIG X 999      40.013 125.523  23.832  1.00  0.00    -0.045 C 
HETATM   14  C13 LIG X 999      39.583 126.969  23.773  1.00  0.00     0.049 C 
HETATM   15  C14 LIG X 999      39.010 124.595  24.155  1.00  0.00     0.059 C 
ENDROOT
BRANCH   1  16
HETATM   16  N1  LIG X 999      38.297 122.382  24.254  1.00  0.00    -0.282 NA
HETATM   17  H1  LIG X 999      38.479 121.551  24.861  1.00  0.00     0.188 HD
ENDBRANCH   1  16
TORSDOF 1
