REMARK VINA RESULT:      -2.3      3.610      6.074
REMARK  2 active torsions:
REMARK  status: ('A' for Active; 'I' for Inactive)
REMARK    1  A    between atoms: C4_4  and  O1_5 
REMARK    2  A    between atoms: C10_11  and  N1_12 
ROOT
HETATM    1  N1  LIG X 999      41.676 126.054  22.837  1.00  0.00    -0.072 NA
HETATM    2  N2  LIG X 999      41.360 124.864  22.788  1.00  0.00    -0.162 NA
HETATM    3  N3  LIG X 999      41.044 123.676  22.739  1.00  0.00     0.068 N 
ENDROOT
BRANCH   1   4
HETATM    4  C10 LIG X 999      42.995 126.482  23.209  1.00  0.00     0.101 C 
HETATM    5  C9  LIG X 999      43.350 127.824  22.953  1.00  0.00     0.007 C 
HETATM    6  C8  LIG X 999      44.623 128.338  22.748  1.00  0.00    -0.022 C 
HETATM    7  C12 LIG X 999      42.380 128.949  22.958  1.00  0.00     0.278 C 
HETATM    8  C7  LIG X 999      45.785 127.612  22.454  1.00  0.00     0.012 C 
HETATM    9  C15 LIG X 999      44.599 129.815  22.893  1.00  0.00     0.276 C 
HETATM   10  C6  LIG X 999      45.751 126.410  21.739  1.00  0.00     0.037 C 
HETATM   11  C4  LIG X 999      46.531 125.286  22.080  1.00  0.00     0.068 C 
HETATM   12  C3  LIG X 999      46.891 124.980  23.408  1.00  0.00     0.037 C 
HETATM   13  C2  LIG X 999      46.236 125.425  24.573  1.00  0.00     0.003 C 
HETATM   14  C1  LIG X 999      44.932 125.936  24.625  1.00  0.00     0.002 C 
HETATM   15  C11 LIG X 999      43.919 125.557  23.735  1.00  0.00     0.035 C 
HETATM   16  N4  LIG X 999      43.184 130.180  23.203  1.00  0.00    -0.067 N 
HETATM   17  C13 LIG X 999      42.721 131.289  22.339  1.00  0.00     0.272 C 
HETATM   18  C14 LIG X 999      43.064 130.589  24.624  1.00  0.00     0.272 C 
BRANCH  11  19
HETATM   19  O1  LIG X 999      46.955 124.386  21.090  1.00  0.00    -0.356 OA
HETATM   20  C5  LIG X 999      48.111 123.560  21.195  1.00  0.00     0.210 C 
ENDBRANCH  11  19
ENDBRANCH   1   4
TORSDOF 2
