REMARK VINA RESULT:      -4.4      2.883      3.628
REMARK  6 active torsions:
REMARK  status: ('A' for Active; 'I' for Inactive)
REMARK    1  A    between atoms: S1_2  and  C1_3 
REMARK    2  A    between atoms: C1_3  and  N2_15 
REMARK    3  A    between atoms: N1_4  and  C2_5 
REMARK    4  A    between atoms: N2_15  and  C12_18 
REMARK    5  A    between atoms: C13_19  and  C14_20 
REMARK    6  A    between atoms: C14_20  and  O2_22 
ROOT
HETATM    1  C1  LIG X 999      44.627 129.244  22.850  1.00  0.00     0.266 C 
HETATM    2  N1  LIG X 999      44.203 130.385  22.383  1.00  0.00    -0.219 NA
ENDROOT
BRANCH   1   3
HETATM    3  S1  LIG X 999      44.636 129.006  24.625  1.00  0.00    -0.098 SA
HETATM    4  H1  LIG X 999      45.451 127.865  24.518  1.00  0.00     0.110 HD
ENDBRANCH   1   3
BRANCH   1   5
HETATM    5  N2  LIG X 999      45.043 128.165  21.984  1.00  0.00     0.010 N 
HETATM    6  H9  LIG X 999      46.087 128.149  21.926  1.00  0.00     0.293 HD
HETATM    7  H10 LIG X 999      44.680 128.352  21.028  1.00  0.00     0.293 HD
BRANCH   5   8
HETATM    8  C12 LIG X 999      44.610 126.890  22.510  1.00  0.00     0.164 A 
HETATM    9  C13 LIG X 999      45.385 125.716  22.531  1.00  0.00     0.114 A 
HETATM   10  S2  LIG X 999      44.429 124.481  23.153  1.00  0.00    -0.094 SA
HETATM   11  C16 LIG X 999      43.055 125.399  23.439  1.00  0.00     0.053 A 
HETATM   12  C17 LIG X 999      43.318 126.702  23.044  1.00  0.00     0.046 A 
BRANCH   9  13
HETATM   13  C14 LIG X 999      46.791 125.514  22.136  1.00  0.00     0.302 C 
HETATM   14  O1  LIG X 999      47.687 126.329  22.485  1.00  0.00    -0.259 OA
BRANCH  13  15
HETATM   15  O2  LIG X 999      47.130 124.372  21.404  1.00  0.00    -0.322 OA
HETATM   16  C15 LIG X 999      48.193 123.505  21.780  1.00  0.00     0.213 C 
ENDBRANCH  13  15
ENDBRANCH   9  13
ENDBRANCH   5   8
ENDBRANCH   1   5
BRANCH   2  17
HETATM   17  C2  LIG X 999      44.168 130.745  20.997  1.00  0.00     0.060 A 
HETATM   18  C3  LIG X 999      43.115 131.528  20.513  1.00  0.00     0.032 A 
HETATM   19  C4  LIG X 999      43.060 131.881  19.163  1.00  0.00     0.014 A 
HETATM   20  C5  LIG X 999      44.076 131.473  18.286  1.00  0.00    -0.026 A 
HETATM   21  C6  LIG X 999      44.033 131.821  16.927  1.00  0.00     0.012 A 
HETATM   22  C10 LIG X 999      45.160 130.704  18.778  1.00  0.00    -0.024 A 
HETATM   23  C7  LIG X 999      45.059 131.420  16.067  1.00  0.00     0.001 A 
HETATM   24  C8  LIG X 999      46.132 130.668  16.555  1.00  0.00     0.001 A 
HETATM   25  C9  LIG X 999      46.183 130.307  17.904  1.00  0.00     0.012 A 
HETATM   26  C11 LIG X 999      45.198 130.346  20.134  1.00  0.00     0.044 A 
ENDBRANCH   2  17
TORSDOF 6
