REMARK VINA RESULT:      -6.7      2.243      8.322
REMARK  7 active torsions:
REMARK  status: ('A' for Active; 'I' for Inactive)
REMARK    1  A    between atoms: C2_2  and  C4_4 
REMARK    2  A    between atoms: C4_4  and  C5_5 
REMARK       I    between atoms: C5_5  and  N1_7 
REMARK    3  A    between atoms: N1_7  and  C6_8 
REMARK    4  A    between atoms: C6_8  and  C7_9 
REMARK    5  A    between atoms: C7_9  and  C8_10 
REMARK    6  A    between atoms: C8_10  and  O2_11 
REMARK    7  A    between atoms: O2_11  and  C9_12 
ROOT
HETATM    1  O2  LIG X 999      44.986 132.249  20.361  1.00  0.00    -0.351 OA
ENDROOT
BRANCH   1   2
HETATM    2  C8  LIG X 999      45.031 132.194  18.934  1.00  0.00     0.177 C 
BRANCH   2   3
HETATM    3  C7  LIG X 999      43.783 131.521  18.340  1.00  0.00     0.048 C 
BRANCH   3   4
HETATM    4  C6  LIG X 999      43.643 131.741  16.827  1.00  0.00     0.154 C 
BRANCH   4   5
HETATM    5  N1  LIG X 999      44.947 131.763  16.170  1.00  0.00    -0.256 NA
HETATM    6  C5  LIG X 999      45.147 131.440  14.790  1.00  0.00     0.238 C 
HETATM    7  O1  LIG X 999      44.162 131.201  14.040  1.00  0.00    -0.272 OA
BRANCH   6   8
HETATM    8  C4  LIG X 999      46.536 131.399  14.229  1.00  0.00     0.108 C 
BRANCH   8   9
HETATM    9  C2  LIG X 999      47.278 130.106  14.620  1.00  0.00    -0.014 C 
HETATM   10  C1  LIG X 999      46.295 128.969  14.941  1.00  0.00     0.010 C 
HETATM   11  C3  LIG X 999      48.224 129.679  13.493  1.00  0.00     0.010 C 
ENDBRANCH   8   9
ENDBRANCH   6   8
ENDBRANCH   4   5
ENDBRANCH   3   4
ENDBRANCH   2   3
ENDBRANCH   1   2
BRANCH   1  12
HETATM   12  C9  LIG X 999      44.664 131.183  21.217  1.00  0.00     0.069 A 
HETATM   13  C10 LIG X 999      45.436 130.019  21.130  1.00  0.00     0.037 A 
HETATM   14  C11 LIG X 999      45.144 128.906  21.921  1.00  0.00     0.015 A 
HETATM   15  C12 LIG X 999      44.072 128.945  22.822  1.00  0.00    -0.026 A 
HETATM   16  C13 LIG X 999      43.760 127.828  23.613  1.00  0.00     0.012 A 
HETATM   17  C17 LIG X 999      43.296 130.124  22.935  1.00  0.00    -0.023 A 
HETATM   18  C14 LIG X 999      42.689 127.881  24.510  1.00  0.00     0.001 A 
HETATM   19  C15 LIG X 999      41.925 129.045  24.625  1.00  0.00     0.001 A 
HETATM   20  C16 LIG X 999      42.225 130.164  23.842  1.00  0.00     0.012 A 
HETATM   21  C18 LIG X 999      43.602 131.239  22.140  1.00  0.00     0.049 A 
ENDBRANCH   1  12
TORSDOF 7
