REMARK VINA RESULT:      -4.7      2.661      6.108
REMARK  3 active torsions:
REMARK  status: ('A' for Active; 'I' for Inactive)
REMARK    1  A    between atoms: C3_3  and  N1_4 
REMARK    2  A    between atoms: C3_3  and  C4_7 
REMARK    3  A    between atoms: C3_3  and  C14_17 
ROOT
HETATM    1  C1  LIG X 999      45.247 129.653  21.920  1.00  0.00     0.015 C 
HETATM    2  C2  LIG X 999      44.891 130.510  21.149  1.00  0.00    -0.075 C 
HETATM    3  C3  LIG X 999      44.455 131.568  20.200  1.00  0.00     0.183 C 
ENDROOT
BRANCH   3   4
HETATM    4  N1  LIG X 999      45.168 132.797  20.578  1.00  0.00    -0.085 NA
HETATM    5  N2  LIG X 999      46.264 132.774  21.143  1.00  0.00    -0.165 NA
HETATM    6  N3  LIG X 999      47.357 132.750  21.706  1.00  0.00     0.068 N 
ENDBRANCH   3   4
BRANCH   3   7
HETATM    7  C4  LIG X 999      44.837 131.164  18.761  1.00  0.00    -0.012 A 
HETATM    8  C5  LIG X 999      45.932 130.304  18.524  1.00  0.00     0.012 A 
HETATM    9  C6  LIG X 999      46.308 129.952  17.226  1.00  0.00     0.013 A 
HETATM   10  C7  LIG X 999      45.610 130.462  16.126  1.00  0.00    -0.026 A 
HETATM   11  C8  LIG X 999      45.983 130.115  14.818  1.00  0.00     0.012 A 
HETATM   12  C12 LIG X 999      44.523 131.340  16.335  1.00  0.00    -0.025 A 
HETATM   13  C9  LIG X 999      45.283 130.638  13.727  1.00  0.00     0.001 A 
HETATM   14  C10 LIG X 999      44.210 131.509  13.933  1.00  0.00     0.001 A 
HETATM   15  C11 LIG X 999      43.829 131.861  15.231  1.00  0.00     0.012 A 
HETATM   16  C13 LIG X 999      44.150 131.688  17.642  1.00  0.00     0.023 A 
ENDBRANCH   3   7
BRANCH   3  17
HETATM   17  C14 LIG X 999      42.895 131.818  20.344  1.00  0.00    -0.005 C 
HETATM   18  C15 LIG X 999      42.409 131.484  21.776  1.00  0.00     0.018 C 
HETATM   19  C16 LIG X 999      42.515 133.289  20.044  1.00  0.00     0.018 C 
HETATM   20  C17 LIG X 999      42.104 130.914  19.361  1.00  0.00     0.018 C 
ENDBRANCH   3  17
TORSDOF 3
