REMARK VINA RESULT:      -8.3      4.628      6.647
REMARK  2 active torsions:
REMARK  status: ('A' for Active; 'I' for Inactive)
REMARK    1  A    between atoms: C1_1  and  N1_2 
REMARK    2  A    between atoms: C2_5  and  C3_7 
ROOT
HETATM    1  N1  LIG X 999      42.441 132.161  21.713  1.00  0.00    -0.082 NA
HETATM    2  N2  LIG X 999      42.633 131.957  22.912  1.00  0.00    -0.163 NA
HETATM    3  N3  LIG X 999      42.823 131.754  24.110  1.00  0.00     0.068 N 
ENDROOT
BRANCH   1   4
HETATM    4  C1  LIG X 999      43.380 131.705  20.740  1.00  0.00     0.196 C 
HETATM    5  C2  LIG X 999      43.144 131.891  19.436  1.00  0.00     0.137 C 
HETATM    6  O1  LIG X 999      41.984 132.559  19.049  1.00  0.00    -0.190 OA
BRANCH   5   7
HETATM    7  C3  LIG X 999      44.088 131.431  18.384  1.00  0.00     0.003 A 
HETATM    8  C4  LIG X 999      45.265 130.764  18.765  1.00  0.00     0.015 A 
HETATM    9  C5  LIG X 999      46.181 130.326  17.805  1.00  0.00     0.013 A 
HETATM   10  C6  LIG X 999      45.941 130.555  16.444  1.00  0.00    -0.026 A 
HETATM   11  C7  LIG X 999      46.855 130.119  15.472  1.00  0.00     0.012 A 
HETATM   12  C11 LIG X 999      44.768 131.239  16.046  1.00  0.00    -0.025 A 
HETATM   13  C8  LIG X 999      46.608 130.361  14.117  1.00  0.00     0.001 A 
HETATM   14  C9  LIG X 999      45.451 131.038  13.724  1.00  0.00     0.001 A 
HETATM   15  C10 LIG X 999      44.533 131.477  14.682  1.00  0.00     0.012 A 
HETATM   16  C12 LIG X 999      43.852 131.675  17.016  1.00  0.00     0.026 A 
ENDBRANCH   5   7
ENDBRANCH   1   4
TORSDOF 2
