MODEL 1
REMARK VINA RESULT:      -7.7      0.000      0.000
REMARK  1 active torsions:
REMARK  status: ('A' for Active; 'I' for Inactive)
REMARK    1  A    between atoms: C11_13  and  N2_14 
ROOT
HETATM    1  N2  LIG X 999      47.561 129.513  14.404  1.00  0.00    -0.053 NA
HETATM    2  N3  LIG X 999      47.805 130.166  13.389  1.00  0.00    -0.160 NA
HETATM    3  N4  LIG X 999      48.057 130.809  12.372  1.00  0.00     0.068 N 
ENDROOT
BRANCH   1   4
HETATM    4  C11 LIG X 999      46.697 129.991  15.442  1.00  0.00     0.175 A 
HETATM    5  C10 LIG X 999      45.470 130.649  15.295  1.00  0.00     0.026 A 
HETATM    6  C5  LIG X 999      45.054 130.888  16.565  1.00  0.00     0.017 A 
HETATM    7  C9  LIG X 999      44.680 131.058  14.215  1.00  0.00     0.016 A 
HETATM    8  C4  LIG X 999      45.970 130.409  17.439  1.00  0.00     0.046 A 
HETATM    9  C6  LIG X 999      43.881 131.524  16.904  1.00  0.00     0.005 A 
HETATM   10  C3  LIG X 999      45.765 130.539  18.893  1.00  0.00     0.033 A 
HETATM   11  N5  LIG X 999      46.995 129.849  16.763  1.00  0.00    -0.337 N 
HETATM   12  C2  LIG X 999      44.640 131.150  19.331  1.00  0.00     0.034 A 
HETATM   13  C1  LIG X 999      43.622 131.684  18.360  1.00  0.00     0.059 A 
HETATM   14  N1  LIG X 999      42.544 132.268  18.778  1.00  0.00    -0.300 NA
HETATM   15  H1  LIG X 999      42.344 132.389  19.796  1.00  0.00     0.187 HD
HETATM   16  H7  LIG X 999      47.844 129.398  17.171  1.00  0.00     0.167 HD
HETATM   17  C7  LIG X 999      43.056 131.953  15.846  1.00  0.00     0.015 A 
HETATM   18  C8  LIG X 999      43.459 131.719  14.503  1.00  0.00     0.002 A 
ENDBRANCH   1   4
TORSDOF 1
ENDMDL
MODEL 2
REMARK VINA RESULT:      -7.4      1.905      3.739
REMARK  1 active torsions:
REMARK  status: ('A' for Active; 'I' for Inactive)
REMARK    1  A    between atoms: C11_13  and  N2_14 
ROOT
HETATM    1  N2  LIG X 999      46.205 130.505  16.131  1.00  0.00    -0.053 NA
HETATM    2  N3  LIG X 999      46.126 130.747  14.927  1.00  0.00    -0.160 NA
HETATM    3  N4  LIG X 999      46.058 130.983  13.722  1.00  0.00     0.068 N 
ENDROOT
BRANCH   1   4
HETATM    4  C11 LIG X 999      45.227 130.952  17.077  1.00  0.00     0.175 A 
HETATM    5  C10 LIG X 999      45.325 130.944  18.474  1.00  0.00     0.026 A 
HETATM    6  C5  LIG X 999      44.147 131.464  18.903  1.00  0.00     0.017 A 
HETATM    7  C9  LIG X 999      46.294 130.550  19.403  1.00  0.00     0.016 A 
HETATM    8  C4  LIG X 999      43.372 131.771  17.837  1.00  0.00     0.046 A 
HETATM    9  C6  LIG X 999      43.801 131.647  20.223  1.00  0.00     0.005 A 
HETATM   10  C3  LIG X 999      42.031 132.354  18.024  1.00  0.00     0.033 A 
HETATM   11  N5  LIG X 999      44.023 131.461  16.696  1.00  0.00    -0.337 N 
HETATM   12  C2  LIG X 999      41.596 132.574  19.285  1.00  0.00     0.034 A 
HETATM   13  C1  LIG X 999      42.457 132.232  20.471  1.00  0.00     0.059 A 
HETATM   14  N1  LIG X 999      42.041 132.443  21.680  1.00  0.00    -0.300 NA
HETATM   15  H1  LIG X 999      41.101 132.854  21.874  1.00  0.00     0.187 HD
HETATM   16  H7  LIG X 999      43.673 131.587  15.720  1.00  0.00     0.167 HD
HETATM   17  C7  LIG X 999      44.748 131.263  21.193  1.00  0.00     0.015 A 
HETATM   18  C8  LIG X 999      45.993 130.715  20.779  1.00  0.00     0.002 A 
ENDBRANCH   1   4
TORSDOF 1
ENDMDL
MODEL 3
REMARK VINA RESULT:      -7.2      2.330      3.260
REMARK  1 active torsions:
REMARK  status: ('A' for Active; 'I' for Inactive)
REMARK    1  A    between atoms: C11_13  and  N2_14 
ROOT
HETATM    1  N2  LIG X 999      46.164 130.468  16.775  1.00  0.00    -0.053 NA
HETATM    2  N3  LIG X 999      46.199 131.288  15.857  1.00  0.00    -0.160 NA
HETATM    3  N4  LIG X 999      46.241 132.099  14.934  1.00  0.00     0.068 N 
ENDROOT
BRANCH   1   4
HETATM    4  C11 LIG X 999      45.508 130.728  18.022  1.00  0.00     0.175 A 
HETATM    5  C10 LIG X 999      44.249 131.307  18.218  1.00  0.00     0.026 A 
HETATM    6  C5  LIG X 999      44.089 131.333  19.565  1.00  0.00     0.017 A 
HETATM    7  C9  LIG X 999      43.239 131.805  17.387  1.00  0.00     0.016 A 
HETATM    8  C4  LIG X 999      45.184 130.805  20.161  1.00  0.00     0.046 A 
HETATM    9  C6  LIG X 999      42.982 131.825  20.219  1.00  0.00     0.005 A 
HETATM   10  C3  LIG X 999      45.272 130.712  21.630  1.00  0.00     0.033 A 
HETATM   11  N5  LIG X 999      46.075 130.423  19.221  1.00  0.00    -0.337 N 
HETATM   12  C2  LIG X 999      44.233 131.169  22.366  1.00  0.00     0.034 A 
HETATM   13  C1  LIG X 999      43.016 131.758  21.704  1.00  0.00     0.059 A 
HETATM   14  N1  LIG X 999      42.021 132.195  22.408  1.00  0.00    -0.300 NA
HETATM   15  H1  LIG X 999      42.026 132.156  23.452  1.00  0.00     0.187 HD
HETATM   16  H7  LIG X 999      47.008 129.984  19.384  1.00  0.00     0.167 HD
HETATM   17  C7  LIG X 999      41.941 132.337  19.419  1.00  0.00     0.015 A 
HETATM   18  C8  LIG X 999      42.074 132.325  18.004  1.00  0.00     0.002 A 
ENDBRANCH   1   4
TORSDOF 1
ENDMDL
MODEL 4
REMARK VINA RESULT:      -7.0      1.683      6.250
REMARK  1 active torsions:
REMARK  status: ('A' for Active; 'I' for Inactive)
REMARK    1  A    between atoms: C11_13  and  N2_14 
ROOT
HETATM    1  N2  LIG X 999      41.879 132.843  20.523  1.00  0.00    -0.053 NA
HETATM    2  N3  LIG X 999      41.963 132.532  21.711  1.00  0.00    -0.160 NA
HETATM    3  N4  LIG X 999      42.038 132.231  22.901  1.00  0.00     0.068 N 
ENDROOT
BRANCH   1   4
HETATM    4  C11 LIG X 999      42.742 132.299  19.517  1.00  0.00     0.175 A 
HETATM    5  C10 LIG X 999      43.971 131.655  19.706  1.00  0.00     0.026 A 
HETATM    6  C5  LIG X 999      44.385 131.333  18.454  1.00  0.00     0.017 A 
HETATM    7  C9  LIG X 999      44.761 131.319  20.810  1.00  0.00     0.016 A 
HETATM    8  C4  LIG X 999      43.469 131.754  17.551  1.00  0.00     0.046 A 
HETATM    9  C6  LIG X 999      45.560 130.680  18.156  1.00  0.00     0.005 A 
HETATM   10  C3  LIG X 999      43.673 131.530  16.109  1.00  0.00     0.033 A 
HETATM   11  N5  LIG X 999      42.443 132.355  18.190  1.00  0.00    -0.337 N 
HETATM   12  C2  LIG X 999      44.799 130.894  15.711  1.00  0.00     0.034 A 
HETATM   13  C1  LIG X 999      45.819 130.427  16.714  1.00  0.00     0.059 A 
HETATM   14  N1  LIG X 999      46.897 129.818  16.333  1.00  0.00    -0.300 NA
HETATM   15  H1  LIG X 999      47.096 129.631  15.326  1.00  0.00     0.187 HD
HETATM   16  H7  LIG X 999      41.593 132.777  17.754  1.00  0.00     0.167 HD
HETATM   17  C7  LIG X 999      46.386 130.322  19.240  1.00  0.00     0.015 A 
HETATM   18  C8  LIG X 999      45.984 130.643  20.565  1.00  0.00     0.002 A 
ENDBRANCH   1   4
TORSDOF 1
ENDMDL
MODEL 5
REMARK VINA RESULT:      -6.7      2.875      6.018
REMARK  1 active torsions:
REMARK  status: ('A' for Active; 'I' for Inactive)
REMARK    1  A    between atoms: C11_13  and  N2_14 
ROOT
HETATM    1  N2  LIG X 999      44.601 131.364  22.841  1.00  0.00    -0.053 NA
HETATM    2  N3  LIG X 999      43.718 130.823  23.506  1.00  0.00    -0.160 NA
HETATM    3  N4  LIG X 999      42.841 130.287  24.181  1.00  0.00     0.068 N 
ENDROOT
BRANCH   1   4
HETATM    4  C11 LIG X 999      44.642 131.301  21.410  1.00  0.00     0.175 A 
HETATM    5  C10 LIG X 999      43.665 131.742  20.509  1.00  0.00     0.026 A 
HETATM    6  C5  LIG X 999      44.175 131.458  19.284  1.00  0.00     0.017 A 
HETATM    7  C9  LIG X 999      42.409 132.349  20.618  1.00  0.00     0.016 A 
HETATM    8  C4  LIG X 999      45.390 130.878  19.422  1.00  0.00     0.046 A 
HETATM    9  C6  LIG X 999      43.547 131.723  18.088  1.00  0.00     0.005 A 
HETATM   10  C3  LIG X 999      46.168 130.466  18.240  1.00  0.00     0.033 A 
HETATM   11  N5  LIG X 999      45.697 130.771  20.732  1.00  0.00    -0.337 N 
HETATM   12  C2  LIG X 999      45.637 130.683  17.014  1.00  0.00     0.034 A 
HETATM   13  C1  LIG X 999      44.286 131.328  16.859  1.00  0.00     0.059 A 
HETATM   14  N1  LIG X 999      43.778 131.536  15.687  1.00  0.00    -0.300 NA
HETATM   15  H1  LIG X 999      44.282 131.266  14.813  1.00  0.00     0.187 HD
HETATM   16  H7  LIG X 999      46.568 130.365  21.141  1.00  0.00     0.167 HD
HETATM   17  C7  LIG X 999      42.279 132.335  18.152  1.00  0.00     0.015 A 
HETATM   18  C8  LIG X 999      41.714 132.646  19.419  1.00  0.00     0.002 A 
ENDBRANCH   1   4
TORSDOF 1
ENDMDL
MODEL 6
REMARK VINA RESULT:      -6.2      2.994      6.894
REMARK  1 active torsions:
REMARK  status: ('A' for Active; 'I' for Inactive)
REMARK    1  A    between atoms: C11_13  and  N2_14 
ROOT
HETATM    1  N2  LIG X 999      43.035 131.594  23.408  1.00  0.00    -0.053 NA
HETATM    2  N3  LIG X 999      42.752 130.558  24.010  1.00  0.00    -0.160 NA
HETATM    3  N4  LIG X 999      42.471 129.530  24.623  1.00  0.00     0.068 N 
ENDROOT
BRANCH   1   4
HETATM    4  C11 LIG X 999      43.074 131.671  21.978  1.00  0.00     0.175 A 
HETATM    5  C10 LIG X 999      44.119 131.284  21.131  1.00  0.00     0.026 A 
HETATM    6  C5  LIG X 999      43.668 131.558  19.881  1.00  0.00     0.017 A 
HETATM    7  C9  LIG X 999      45.393 130.732  21.306  1.00  0.00     0.016 A 
HETATM    8  C4  LIG X 999      42.422 132.083  19.954  1.00  0.00     0.046 A 
HETATM    9  C6  LIG X 999      44.375 131.336  18.721  1.00  0.00     0.005 A 
HETATM   10  C3  LIG X 999      41.695 132.473  18.732  1.00  0.00     0.033 A 
HETATM   11  N5  LIG X 999      42.036 132.161  21.245  1.00  0.00    -0.337 N 
HETATM   12  C2  LIG X 999      42.304 132.294  17.538  1.00  0.00     0.034 A 
HETATM   13  C1  LIG X 999      43.690 131.712  17.455  1.00  0.00     0.059 A 
HETATM   14  N1  LIG X 999      44.273 131.539  16.312  1.00  0.00    -0.300 NA
HETATM   15  H1  LIG X 999      43.808 131.796  15.413  1.00  0.00     0.187 HD
HETATM   16  H7  LIG X 999      41.126 132.524  21.607  1.00  0.00     0.167 HD
HETATM   17  C7  LIG X 999      45.662 130.780  18.852  1.00  0.00     0.015 A 
HETATM   18  C8  LIG X 999      46.168 130.479  20.146  1.00  0.00     0.002 A 
ENDBRANCH   1   4
TORSDOF 1
ENDMDL
MODEL 7
REMARK VINA RESULT:      -5.3      8.938     10.656
REMARK  1 active torsions:
REMARK  status: ('A' for Active; 'I' for Inactive)
REMARK    1  A    between atoms: C11_13  and  N2_14 
ROOT
HETATM    1  N2  LIG X 999      50.911 133.371  24.543  1.00  0.00    -0.053 NA
HETATM    2  N3  LIG X 999      51.829 132.577  24.339  1.00  0.00    -0.160 NA
HETATM    3  N4  LIG X 999      52.744 131.778  24.148  1.00  0.00     0.068 N 
ENDROOT
BRANCH   1   4
HETATM    4  C11 LIG X 999      50.576 134.419  23.624  1.00  0.00     0.175 A 
HETATM    5  C10 LIG X 999      51.275 135.611  23.398  1.00  0.00     0.026 A 
HETATM    6  C5  LIG X 999      50.555 136.255  22.445  1.00  0.00     0.017 A 
HETATM    7  C9  LIG X 999      52.440 136.196  23.907  1.00  0.00     0.016 A 
HETATM    8  C4  LIG X 999      49.479 135.507  22.107  1.00  0.00     0.046 A 
HETATM    9  C6  LIG X 999      50.876 137.482  21.910  1.00  0.00     0.005 A 
HETATM   10  C3  LIG X 999      48.525 135.978  21.087  1.00  0.00     0.033 A 
HETATM   11  N5  LIG X 999      49.474 134.365  22.826  1.00  0.00    -0.337 N 
HETATM   12  C2  LIG X 999      48.751 137.175  20.499  1.00  0.00     0.034 A 
HETATM   13  C1  LIG X 999      49.947 138.008  20.875  1.00  0.00     0.059 A 
HETATM   14  N1  LIG X 999      50.164 139.154  20.312  1.00  0.00    -0.300 NA
HETATM   15  H1  LIG X 999      49.523 139.539  19.583  1.00  0.00     0.187 HD
HETATM   16  H7  LIG X 999      48.767 133.598  22.780  1.00  0.00     0.167 HD
HETATM   17  C7  LIG X 999      52.042 138.107  22.395  1.00  0.00     0.015 A 
HETATM   18  C8  LIG X 999      52.821 137.461  23.393  1.00  0.00     0.002 A 
ENDBRANCH   1   4
TORSDOF 1
ENDMDL
MODEL 8
REMARK VINA RESULT:      -5.1      8.675     10.258
REMARK  1 active torsions:
REMARK  status: ('A' for Active; 'I' for Inactive)
REMARK    1  A    between atoms: C11_13  and  N2_14 
ROOT
HETATM    1  N2  LIG X 999      50.275 132.836  24.563  1.00  0.00    -0.053 NA
HETATM    2  N3  LIG X 999      51.035 131.873  24.467  1.00  0.00    -0.160 NA
HETATM    3  N4  LIG X 999      51.787 130.904  24.379  1.00  0.00     0.068 N 
ENDROOT
BRANCH   1   4
HETATM    4  C11 LIG X 999      50.531 134.091  23.922  1.00  0.00     0.175 A 
HETATM    5  C10 LIG X 999      49.758 134.719  22.937  1.00  0.00     0.026 A 
HETATM    6  C5  LIG X 999      50.422 135.871  22.663  1.00  0.00     0.017 A 
HETATM    7  C9  LIG X 999      48.570 134.421  22.261  1.00  0.00     0.016 A 
HETATM    8  C4  LIG X 999      51.534 135.947  23.430  1.00  0.00     0.046 A 
HETATM    9  C6  LIG X 999      50.019 136.812  21.742  1.00  0.00     0.005 A 
HETATM   10  C3  LIG X 999      52.441 137.104  23.330  1.00  0.00     0.033 A 
HETATM   11  N5  LIG X 999      51.620 134.853  24.217  1.00  0.00    -0.337 N 
HETATM   12  C2  LIG X 999      52.134 138.087  22.453  1.00  0.00     0.034 A 
HETATM   13  C1  LIG X 999      50.898 138.004  21.599  1.00  0.00     0.059 A 
HETATM   14  N1  LIG X 999      50.603 138.945  20.759  1.00  0.00    -0.300 NA
HETATM   15  H1  LIG X 999      51.207 139.789  20.645  1.00  0.00     0.187 HD
HETATM   16  H7  LIG X 999      52.370 134.637  24.911  1.00  0.00     0.167 HD
HETATM   17  C7  LIG X 999      48.827 136.551  21.039  1.00  0.00     0.015 A 
HETATM   18  C8  LIG X 999      48.106 135.354  21.300  1.00  0.00     0.002 A 
ENDBRANCH   1   4
TORSDOF 1
ENDMDL
MODEL 9
REMARK VINA RESULT:      -4.8      8.223      9.719
REMARK  1 active torsions:
REMARK  status: ('A' for Active; 'I' for Inactive)
REMARK    1  A    between atoms: C11_13  and  N2_14 
ROOT
HETATM    1  N2  LIG X 999      44.765 127.684  23.458  1.00  0.00    -0.053 NA
HETATM    2  N3  LIG X 999      44.660 128.774  22.896  1.00  0.00    -0.160 NA
HETATM    3  N4  LIG X 999      44.565 129.868  22.342  1.00  0.00     0.068 N 
ENDROOT
BRANCH   1   4
HETATM    4  C11 LIG X 999      43.908 126.575  23.161  1.00  0.00     0.175 A 
HETATM    5  C10 LIG X 999      42.558 126.426  23.501  1.00  0.00     0.026 A 
HETATM    6  C5  LIG X 999      42.209 125.215  22.998  1.00  0.00     0.017 A 
HETATM    7  C9  LIG X 999      41.609 127.198  24.181  1.00  0.00     0.016 A 
HETATM    8  C4  LIG X 999      43.278 124.653  22.387  1.00  0.00     0.046 A 
HETATM    9  C6  LIG X 999      40.957 124.650  23.098  1.00  0.00     0.005 A 
HETATM   10  C3  LIG X 999      43.173 123.327  21.752  1.00  0.00     0.033 A 
HETATM   11  N5  LIG X 999      44.341 125.481  22.478  1.00  0.00    -0.337 N 
HETATM   12  C2  LIG X 999      41.982 122.687  21.795  1.00  0.00     0.034 A 
HETATM   13  C1  LIG X 999      40.793 123.310  22.474  1.00  0.00     0.059 A 
HETATM   14  N1  LIG X 999      39.652 122.698  22.516  1.00  0.00    -0.300 NA
HETATM   15  H1  LIG X 999      39.517 121.757  22.083  1.00  0.00     0.187 HD
HETATM   16  H7  LIG X 999      45.300 125.313  22.099  1.00  0.00     0.167 HD
HETATM   17  C7  LIG X 999      39.972 125.395  23.776  1.00  0.00     0.015 A 
HETATM   18  C8  LIG X 999      40.301 126.667  24.316  1.00  0.00     0.002 A 
ENDBRANCH   1   4
TORSDOF 1
ENDMDL
