REMARK VINA RESULT:      -8.3      0.000      0.000
REMARK  3 active torsions:
REMARK  status: ('A' for Active; 'I' for Inactive)
REMARK    1  A    between atoms: C6_6  and  C7_7 
REMARK    2  A    between atoms: C7_7  and  C8_9 
REMARK    3  A    between atoms: C8_9  and  N1_10 
ROOT
HETATM    1  N1  LIG X 999      46.330 129.699  14.592  1.00  0.00    -0.108 NA
HETATM    2  N2  LIG X 999      47.410 129.596  14.010  1.00  0.00    -0.167 NA
HETATM    3  N3  LIG X 999      48.490 129.494  13.430  1.00  0.00     0.068 N 
ENDROOT
BRANCH   1   4
HETATM    4  C8  LIG X 999      46.270 129.896  16.036  1.00  0.00     0.272 C 
BRANCH   4   5
HETATM    5  C7  LIG X 999      45.664 131.233  16.387  1.00  0.00     0.181 C 
HETATM    6  O1  LIG X 999      45.848 132.211  15.611  1.00  0.00    -0.290 OA
BRANCH   5   7
HETATM    7  C6  LIG X 999      44.816 131.412  17.595  1.00  0.00     0.012 A 
HETATM    8  C5  LIG X 999      45.371 131.229  18.876  1.00  0.00     0.027 A 
HETATM    9  C4  LIG X 999      44.586 131.395  20.028  1.00  0.00    -0.025 A 
HETATM   10  C3  LIG X 999      45.139 131.208  21.304  1.00  0.00     0.012 A 
HETATM   11  C11 LIG X 999      43.223 131.753  19.902  1.00  0.00    -0.026 A 
HETATM   12  C2  LIG X 999      44.349 131.375  22.444  1.00  0.00     0.001 A 
HETATM   13  C1  LIG X 999      43.003 131.730  22.319  1.00  0.00     0.001 A 
HETATM   14  C12 LIG X 999      42.439 131.920  21.055  1.00  0.00     0.012 A 
HETATM   15  C10 LIG X 999      42.672 131.942  18.628  1.00  0.00     0.013 A 
HETATM   16  C9  LIG X 999      43.459 131.774  17.487  1.00  0.00     0.016 A 
ENDBRANCH   5   7
ENDBRANCH   4   5
ENDBRANCH   1   4
TORSDOF 3
