REMARK VINA RESULT:      -7.0      3.706      5.971
REMARK  3 active torsions:
REMARK  status: ('A' for Active; 'I' for Inactive)
REMARK    1  A    between atoms: C3_3  and  O1_4 
REMARK    2  A    between atoms: O1_4  and  C4_5 
REMARK    3  A    between atoms: C5_7  and  C6_8 
ROOT
HETATM    1  C1  LIG X 999      45.415 127.252  22.067  1.00  0.00     0.014 C 
HETATM    2  C2  LIG X 999      44.613 127.784  22.793  1.00  0.00    -0.091 C 
HETATM    3  C3  LIG X 999      43.638 128.432  23.672  1.00  0.00     0.270 C 
ENDROOT
BRANCH   3   4
HETATM    4  O1  LIG X 999      42.983 129.470  22.956  1.00  0.00    -0.317 OA
BRANCH   4   5
HETATM    5  C4  LIG X 999      42.969 130.795  23.401  1.00  0.00     0.217 C 
HETATM    6  O2  LIG X 999      42.390 131.117  24.624  1.00  0.00    -0.164 OA
HETATM    7  C5  LIG X 999      43.519 131.762  22.663  1.00  0.00     0.079 C 
BRANCH   7   8
HETATM    8  C6  LIG X 999      44.194 131.494  21.373  1.00  0.00    -0.020 A 
HETATM    9  C7  LIG X 999      45.508 131.005  21.421  1.00  0.00     0.012 A 
HETATM   10  C8  LIG X 999      46.191 130.682  20.249  1.00  0.00     0.002 A 
HETATM   11  C9  LIG X 999      45.580 130.852  19.008  1.00  0.00     0.012 A 
HETATM   12  C10 LIG X 999      44.280 131.371  18.926  1.00  0.00    -0.025 A 
HETATM   13  C11 LIG X 999      43.680 131.565  17.672  1.00  0.00     0.012 A 
HETATM   14  C15 LIG X 999      43.576 131.714  20.113  1.00  0.00    -0.015 A 
HETATM   15  C12 LIG X 999      42.399 132.112  17.582  1.00  0.00     0.001 A 
HETATM   16  C13 LIG X 999      41.713 132.481  18.739  1.00  0.00     0.001 A 
HETATM   17  C14 LIG X 999      42.294 132.294  19.994  1.00  0.00     0.013 A 
ENDBRANCH   7   8
ENDBRANCH   4   5
ENDBRANCH   3   4
TORSDOF 3
