REMARK VINA RESULT:      -6.2      1.485      6.995
REMARK  1 active torsions:
REMARK  status: ('A' for Active; 'I' for Inactive)
REMARK    1  A    between atoms: C2_2  and  N1_3 
ROOT
HETATM    1  N1  LIG X 999      42.519 131.967  22.990  1.00  0.00    -0.073 NA
HETATM    2  N2  LIG X 999      42.036 131.183  23.807  1.00  0.00    -0.162 NA
HETATM    3  N3  LIG X 999      41.551 130.401  24.625  1.00  0.00     0.068 N 
ENDROOT
BRANCH   1   4
HETATM    4  C2  LIG X 999      43.387 131.535  21.934  1.00  0.00     0.094 A 
HETATM    5  C1  LIG X 999      44.484 130.726  22.253  1.00  0.00     0.035 A 
HETATM    6  C10 LIG X 999      45.358 130.281  21.257  1.00  0.00     0.014 A 
HETATM    7  C9  LIG X 999      45.144 130.640  19.920  1.00  0.00    -0.025 A 
HETATM    8  C4  LIG X 999      44.032 131.463  19.584  1.00  0.00    -0.023 A 
HETATM    9  C8  LIG X 999      46.020 130.199  18.909  1.00  0.00     0.021 A 
HETATM   10  C3  LIG X 999      43.164 131.903  20.593  1.00  0.00     0.046 A 
HETATM   11  C5  LIG X 999      43.815 131.830  18.240  1.00  0.00     0.021 A 
HETATM   12  C6  LIG X 999      44.701 131.365  17.268  1.00  0.00    -0.024 A 
HETATM   13  C7  LIG X 999      45.765 130.579  17.591  1.00  0.00    -0.024 A 
HETATM   14  C14 LIG X 999      44.681 131.640  15.816  1.00  0.00     0.276 C 
HETATM   15  C11 LIG X 999      46.556 130.254  16.384  1.00  0.00     0.276 C 
HETATM   16  N4  LIG X 999      45.771 130.797  15.230  1.00  0.00    -0.067 N 
HETATM   17  C12 LIG X 999      46.639 131.606  14.343  1.00  0.00     0.272 C 
HETATM   18  C13 LIG X 999      45.186 129.683  14.446  1.00  0.00     0.272 C 
ENDBRANCH   1   4
TORSDOF 1
