MODEL 1
REMARK VINA RESULT:      -8.6      0.000      0.000
REMARK  1 active torsions:
REMARK  status: ('A' for Active; 'I' for Inactive)
REMARK    1  A    between atoms: C12_13  and  N2_14 
ROOT
HETATM    1  C1  LIG X 999      46.080 131.720  14.952  1.00  0.00     0.272 C 
HETATM    2  N1  LIG X 999      45.316 130.891  15.912  1.00  0.00    -0.067 N 
HETATM    3  C2  LIG X 999      44.938 129.618  15.254  1.00  0.00     0.272 C 
HETATM    4  C3  LIG X 999      46.130 130.613  17.136  1.00  0.00     0.276 C 
HETATM    5  C4  LIG X 999      45.252 130.942  18.280  1.00  0.00    -0.021 A 
HETATM    6  C5  LIG X 999      45.519 130.736  19.629  1.00  0.00     0.022 A 
HETATM    7  C6  LIG X 999      44.563 131.138  20.577  1.00  0.00    -0.023 A 
HETATM    8  C7  LIG X 999      44.816 130.943  21.944  1.00  0.00     0.012 A 
HETATM    9  C8  LIG X 999      43.886 131.354  22.897  1.00  0.00     0.001 A 
HETATM   10  C9  LIG X 999      42.699 131.967  22.500  1.00  0.00     0.001 A 
HETATM   11  C10 LIG X 999      42.426 132.170  21.145  1.00  0.00     0.014 A 
HETATM   12  C11 LIG X 999      43.342 131.751  20.155  1.00  0.00     0.001 A 
HETATM   13  C12 LIG X 999      43.101 131.936  18.760  1.00  0.00     0.045 A 
HETATM   14  C13 LIG X 999      44.093 131.517  17.858  1.00  0.00     0.003 A 
HETATM   15  C14 LIG X 999      44.089 131.613  16.375  1.00  0.00     0.278 C 
ENDROOT
BRANCH  13  16
HETATM   16  N2  LIG X 999      41.889 132.521  18.254  1.00  0.00    -0.398 N 
HETATM   17  H14 LIG X 999      41.653 133.518  18.455  1.00  0.00     0.156 HD
HETATM   18  H15 LIG X 999      41.241 132.020  17.612  1.00  0.00     0.156 HD
ENDBRANCH  13  16
TORSDOF 1
ENDMDL
MODEL 2
REMARK VINA RESULT:      -7.6      1.358      2.523
REMARK  1 active torsions:
REMARK  status: ('A' for Active; 'I' for Inactive)
REMARK    1  A    between atoms: C12_13  and  N2_14 
ROOT
HETATM    1  C1  LIG X 999      45.557 129.642  14.766  1.00  0.00     0.272 C 
HETATM    2  N1  LIG X 999      45.554 130.807  15.679  1.00  0.00    -0.067 N 
HETATM    3  C2  LIG X 999      46.378 131.887  15.085  1.00  0.00     0.272 C 
HETATM    4  C3  LIG X 999      44.159 131.295  15.911  1.00  0.00     0.276 C 
HETATM    5  C4  LIG X 999      44.023 131.429  17.377  1.00  0.00    -0.021 A 
HETATM    6  C5  LIG X 999      42.945 131.961  18.075  1.00  0.00     0.022 A 
HETATM    7  C6  LIG X 999      42.991 131.982  19.479  1.00  0.00    -0.023 A 
HETATM    8  C7  LIG X 999      41.910 132.511  20.201  1.00  0.00     0.012 A 
HETATM    9  C8  LIG X 999      41.932 132.521  21.595  1.00  0.00     0.001 A 
HETATM   10  C9  LIG X 999      43.027 132.000  22.283  1.00  0.00     0.001 A 
HETATM   11  C10 LIG X 999      44.114 131.468  21.583  1.00  0.00     0.014 A 
HETATM   12  C11 LIG X 999      44.127 131.458  20.172  1.00  0.00     0.001 A 
HETATM   13  C12 LIG X 999      45.219 130.928  19.419  1.00  0.00     0.045 A 
HETATM   14  C13 LIG X 999      45.116 130.932  18.017  1.00  0.00     0.003 A 
HETATM   15  C14 LIG X 999      46.098 130.428  17.022  1.00  0.00     0.278 C 
ENDROOT
BRANCH  13  16
HETATM   16  N2  LIG X 999      46.407 130.406  20.038  1.00  0.00    -0.398 N 
HETATM   17  H14 LIG X 999      47.352 130.655  19.672  1.00  0.00     0.156 HD
HETATM   18  H15 LIG X 999      46.389 129.835  20.908  1.00  0.00     0.156 HD
ENDBRANCH  13  16
TORSDOF 1
ENDMDL
MODEL 3
REMARK VINA RESULT:      -7.4      1.485      5.258
REMARK  1 active torsions:
REMARK  status: ('A' for Active; 'I' for Inactive)
REMARK    1  A    between atoms: C12_13  and  N2_14 
ROOT
HETATM    1  C1  LIG X 999      44.162 130.240  22.318  1.00  0.00     0.272 C 
HETATM    2  N1  LIG X 999      44.714 131.154  21.291  1.00  0.00    -0.067 N 
HETATM    3  C2  LIG X 999      45.282 132.347  21.964  1.00  0.00     0.272 C 
HETATM    4  C3  LIG X 999      45.772 130.468  20.486  1.00  0.00     0.276 C 
HETATM    5  C4  LIG X 999      45.426 130.725  19.072  1.00  0.00    -0.021 A 
HETATM    6  C5  LIG X 999      46.175 130.391  17.950  1.00  0.00     0.022 A 
HETATM    7  C6  LIG X 999      45.665 130.702  16.678  1.00  0.00    -0.023 A 
HETATM    8  C7  LIG X 999      46.406 130.369  15.533  1.00  0.00     0.012 A 
HETATM    9  C8  LIG X 999      45.904 130.653  14.264  1.00  0.00     0.001 A 
HETATM   10  C9  LIG X 999      44.660 131.265  14.122  1.00  0.00     0.001 A 
HETATM   11  C10 LIG X 999      43.906 131.606  15.249  1.00  0.00     0.014 A 
HETATM   12  C11 LIG X 999      44.394 131.345  16.548  1.00  0.00     0.001 A 
HETATM   13  C12 LIG X 999      43.659 131.680  17.725  1.00  0.00     0.045 A 
HETATM   14  C13 LIG X 999      44.218 131.344  18.970  1.00  0.00     0.003 A 
HETATM   15  C14 LIG X 999      43.649 131.568  20.324  1.00  0.00     0.278 C 
ENDROOT
BRANCH  13  16
HETATM   16  N2  LIG X 999      42.387 132.349  17.680  1.00  0.00    -0.398 N 
HETATM   17  H14 LIG X 999      42.267 133.295  18.106  1.00  0.00     0.156 HD
HETATM   18  H15 LIG X 999      41.565 131.972  17.166  1.00  0.00     0.156 HD
ENDBRANCH  13  16
TORSDOF 1
ENDMDL
MODEL 4
REMARK VINA RESULT:      -7.3      1.384      5.206
REMARK  1 active torsions:
REMARK  status: ('A' for Active; 'I' for Inactive)
REMARK    1  A    between atoms: C12_13  and  N2_14 
ROOT
HETATM    1  C1  LIG X 999      43.155 130.176  23.195  1.00  0.00     0.272 C 
HETATM    2  N1  LIG X 999      43.844 131.117  22.283  1.00  0.00    -0.067 N 
HETATM    3  C2  LIG X 999      44.351 132.267  23.070  1.00  0.00     0.272 C 
HETATM    4  C3  LIG X 999      44.976 130.439  21.579  1.00  0.00     0.276 C 
HETATM    5  C4  LIG X 999      44.806 130.764  20.147  1.00  0.00    -0.021 A 
HETATM    6  C5  LIG X 999      45.677 130.459  19.107  1.00  0.00     0.022 A 
HETATM    7  C6  LIG X 999      45.329 130.836  17.799  1.00  0.00    -0.023 A 
HETATM    8  C7  LIG X 999      46.193 130.532  16.735  1.00  0.00     0.012 A 
HETATM    9  C8  LIG X 999      45.852 130.881  15.430  1.00  0.00     0.001 A 
HETATM   10  C9  LIG X 999      44.646 131.530  15.170  1.00  0.00     0.001 A 
HETATM   11  C10 LIG X 999      43.771 131.843  16.214  1.00  0.00     0.014 A 
HETATM   12  C11 LIG X 999      44.095 131.515  17.548  1.00  0.00     0.001 A 
HETATM   13  C12 LIG X 999      43.232 131.819  18.644  1.00  0.00     0.045 A 
HETATM   14  C13 LIG X 999      43.632 131.417  19.930  1.00  0.00     0.003 A 
HETATM   15  C14 LIG X 999      42.910 131.598  21.216  1.00  0.00     0.278 C 
ENDROOT
BRANCH  13  16
HETATM   16  N2  LIG X 999      41.988 132.521  18.479  1.00  0.00    -0.398 N 
HETATM   17  H14 LIG X 999      41.976 133.547  18.287  1.00  0.00     0.156 HD
HETATM   18  H15 LIG X 999      41.064 132.043  18.464  1.00  0.00     0.156 HD
ENDBRANCH  13  16
TORSDOF 1
ENDMDL
MODEL 5
REMARK VINA RESULT:      -6.6      2.090      5.843
REMARK  1 active torsions:
REMARK  status: ('A' for Active; 'I' for Inactive)
REMARK    1  A    between atoms: C12_13  and  N2_14 
ROOT
HETATM    1  C1  LIG X 999      43.375 132.440  24.576  1.00  0.00     0.272 C 
HETATM    2  N1  LIG X 999      43.224 131.444  23.491  1.00  0.00    -0.067 N 
HETATM    3  C2  LIG X 999      42.670 130.192  24.060  1.00  0.00     0.272 C 
HETATM    4  C3  LIG X 999      42.320 131.962  22.417  1.00  0.00     0.276 C 
HETATM    5  C4  LIG X 999      43.040 131.736  21.146  1.00  0.00    -0.021 A 
HETATM    6  C5  LIG X 999      42.558 131.945  19.860  1.00  0.00     0.022 A 
HETATM    7  C6  LIG X 999      43.407 131.692  18.769  1.00  0.00    -0.023 A 
HETATM    8  C7  LIG X 999      42.940 131.901  17.462  1.00  0.00     0.012 A 
HETATM    9  C8  LIG X 999      43.777 131.673  16.371  1.00  0.00     0.001 A 
HETATM   10  C9  LIG X 999      45.087 131.240  16.570  1.00  0.00     0.001 A 
HETATM   11  C10 LIG X 999      45.572 131.024  17.862  1.00  0.00     0.014 A 
HETATM   12  C11 LIG X 999      44.745 131.232  18.987  1.00  0.00     0.001 A 
HETATM   13  C12 LIG X 999      45.199 131.021  20.324  1.00  0.00     0.045 A 
HETATM   14  C13 LIG X 999      44.307 131.293  21.375  1.00  0.00     0.003 A 
HETATM   15  C14 LIG X 999      44.542 131.170  22.837  1.00  0.00     0.278 C 
ENDROOT
BRANCH  13  16
HETATM   16  N2  LIG X 999      46.519 130.537  20.626  1.00  0.00    -0.398 N 
HETATM   17  H14 LIG X 999      47.313 130.710  19.971  1.00  0.00     0.156 HD
HETATM   18  H15 LIG X 999      46.762 130.073  21.525  1.00  0.00     0.156 HD
ENDBRANCH  13  16
TORSDOF 1
ENDMDL
