REMARK VINA RESULT:      -6.8      3.781      7.184
REMARK  4 active torsions:
REMARK  status: ('A' for Active; 'I' for Inactive)
REMARK    1  A    between atoms: O1_2  and  C1_3 
REMARK    2  A    between atoms: C1_3  and  C14_17 
REMARK    3  A    between atoms: N1_4  and  C2_5 
REMARK    4  A    between atoms: C2_5  and  C3_6 
ROOT
HETATM    1  C3  LIG X 999      43.966 131.189  21.662  1.00  0.00    -0.033 A 
HETATM    2  C4  LIG X 999      42.817 131.821  21.157  1.00  0.00     0.010 A 
HETATM    3  C5  LIG X 999      42.675 132.049  19.786  1.00  0.00     0.013 A 
HETATM    4  C6  LIG X 999      43.678 131.643  18.895  1.00  0.00    -0.026 A 
HETATM    5  C7  LIG X 999      43.545 131.869  17.516  1.00  0.00     0.012 A 
HETATM    6  C8  LIG X 999      44.551 131.456  16.637  1.00  0.00     0.001 A 
HETATM    7  C9  LIG X 999      45.693 130.817  17.126  1.00  0.00     0.001 A 
HETATM    8  C10 LIG X 999      45.838 130.587  18.498  1.00  0.00     0.012 A 
HETATM    9  C11 LIG X 999      44.836 130.997  19.391  1.00  0.00    -0.025 A 
HETATM   10  C12 LIG X 999      44.970 130.771  20.768  1.00  0.00     0.021 A 
ENDROOT
BRANCH   1  11
HETATM   11  C2  LIG X 999      44.097 130.927  23.145  1.00  0.00     0.139 C 
HETATM   12  C13 LIG X 999      43.706 132.179  23.939  1.00  0.00     0.039 C 
BRANCH  11  13
HETATM   13  N1  LIG X 999      43.246 129.795  23.520  1.00  0.00    -0.261 NA
HETATM   14  C1  LIG X 999      43.648 128.561  23.587  1.00  0.00     0.132 C 
BRANCH  14  15
HETATM   15  O1  LIG X 999      44.963 128.223  23.264  1.00  0.00    -0.348 OA
HETATM   16  H1  LIG X 999      45.558 127.741  23.927  1.00  0.00     0.219 HD
ENDBRANCH  14  15
BRANCH  14  17
HETATM   17  C14 LIG X 999      42.676 127.490  23.978  1.00  0.00     0.081 C 
HETATM   18  C15 LIG X 999      41.248 128.021  23.933  1.00  0.00     0.013 C 
ENDBRANCH  14  17
ENDBRANCH  11  13
ENDBRANCH   1  11
TORSDOF 4
