REMARK VINA RESULT:      -8.4      0.000      0.000
REMARK  7 active torsions:
REMARK  status: ('A' for Active; 'I' for Inactive)
REMARK    1  A    between atoms: C6_6  and  O1_7 
REMARK    2  A    between atoms: O1_7  and  C7_8 
REMARK    3  A    between atoms: C7_8  and  O3_10 
REMARK    4  A    between atoms: O3_10  and  C8_11 
REMARK    5  A    between atoms: C8_11  and  N1_12 
REMARK       I    between atoms: N1_12  and  C9_14 
REMARK    6  A    between atoms: C9_14  and  C10_16 
REMARK    7  A    between atoms: C10_16  and  N2_17 
ROOT
HETATM    1  N2  LIG X 999      43.871 128.431  23.069  1.00  0.00    -0.261 NA
HETATM    2  C11 LIG X 999      44.658 127.658  23.705  1.00  0.00     0.158 C 
HETATM    3  S1  LIG X 999      45.656 126.684  24.511  1.00  0.00    -0.055 SA
ENDROOT
BRANCH   1   4
HETATM    4  C10 LIG X 999      43.172 129.532  23.726  1.00  0.00     0.197 C 
HETATM    5  C12 LIG X 999      41.692 129.182  23.868  1.00  0.00     0.044 C 
BRANCH   4   6
HETATM    6  C9  LIG X 999      43.336 130.803  22.933  1.00  0.00     0.243 C 
HETATM    7  N1  LIG X 999      42.796 130.902  21.608  1.00  0.00    -0.338 N 
HETATM    8  H7  LIG X 999      42.397 130.052  21.151  1.00  0.00     0.164 HD
HETATM    9  O4  LIG X 999      43.926 131.790  23.451  1.00  0.00    -0.271 OA
BRANCH   7  10
HETATM   10  C8  LIG X 999      42.699 132.180  20.907  1.00  0.00     0.306 C 
BRANCH  10  11
HETATM   11  O3  LIG X 999      43.402 132.115  19.668  1.00  0.00    -0.278 OA
BRANCH  11  12
HETATM   12  C7  LIG X 999      44.668 131.539  19.540  1.00  0.00     0.413 C 
HETATM   13  O2  LIG X 999      45.584 131.822  20.361  1.00  0.00    -0.229 OA
BRANCH  12  14
HETATM   14  O1  LIG X 999      44.879 130.594  18.529  1.00  0.00    -0.256 OA
BRANCH  14  15
HETATM   15  C6  LIG X 999      45.450 130.860  17.276  1.00  0.00     0.082 A 
HETATM   16  C5  LIG X 999      46.224 129.862  16.672  1.00  0.00     0.049 A 
HETATM   17  C4  LIG X 999      46.819 130.080  15.421  1.00  0.00    -0.023 A 
HETATM   18  C3  LIG X 999      47.610 129.087  14.822  1.00  0.00     0.012 A 
HETATM   19  C15 LIG X 999      46.622 131.315  14.756  1.00  0.00    -0.026 A 
HETATM   20  C2  LIG X 999      48.199 129.317  13.575  1.00  0.00     0.001 A 
HETATM   21  C1  LIG X 999      48.005 130.535  12.919  1.00  0.00     0.001 A 
HETATM   22  C16 LIG X 999      47.218 131.532  13.505  1.00  0.00     0.012 A 
HETATM   23  C14 LIG X 999      45.828 132.303  15.352  1.00  0.00     0.015 A 
HETATM   24  C13 LIG X 999      45.242 132.076  16.601  1.00  0.00     0.038 A 
ENDBRANCH  14  15
ENDBRANCH  12  14
ENDBRANCH  11  12
ENDBRANCH  10  11
ENDBRANCH   7  10
ENDBRANCH   4   6
ENDBRANCH   1   4
TORSDOF 7
