REMARK VINA RESULT:      -7.0      1.964      3.920
REMARK  3 active torsions:
REMARK  status: ('A' for Active; 'I' for Inactive)
REMARK    1  A    between atoms: C3_3  and  O1_4 
REMARK    2  A    between atoms: O1_4  and  C4_5 
REMARK    3  A    between atoms: C5_7  and  C6_8 
ROOT
HETATM    1  C1  LIG X 999      42.603 127.626  23.888  1.00  0.00     0.014 C 
HETATM    2  C2  LIG X 999      42.360 128.742  23.503  1.00  0.00    -0.091 C 
HETATM    3  C3  LIG X 999      42.065 130.098  23.036  1.00  0.00     0.270 C 
ENDROOT
BRANCH   3   4
HETATM    4  O1  LIG X 999      42.995 130.454  22.021  1.00  0.00    -0.317 OA
BRANCH   4   5
HETATM    5  C4  LIG X 999      44.211 131.081  22.307  1.00  0.00     0.217 C 
HETATM    6  O2  LIG X 999      44.621 131.233  23.629  1.00  0.00    -0.164 OA
HETATM    7  C5  LIG X 999      45.010 131.514  21.325  1.00  0.00     0.078 C 
BRANCH   7   8
HETATM    8  C6  LIG X 999      44.689 131.413  19.883  1.00  0.00    -0.031 A 
HETATM    9  C7  LIG X 999      43.491 131.925  19.351  1.00  0.00     0.012 A 
HETATM   10  C8  LIG X 999      43.225 131.835  17.983  1.00  0.00     0.013 A 
HETATM   11  C9  LIG X 999      44.160 131.247  17.119  1.00  0.00    -0.026 A 
HETATM   12  C10 LIG X 999      43.903 131.152  15.743  1.00  0.00     0.012 A 
HETATM   13  C14 LIG X 999      45.380 130.753  17.641  1.00  0.00    -0.025 A 
HETATM   14  C11 LIG X 999      44.847 130.570  14.892  1.00  0.00     0.001 A 
HETATM   15  C12 LIG X 999      46.051 130.082  15.406  1.00  0.00     0.001 A 
HETATM   16  C13 LIG X 999      46.320 130.172  16.775  1.00  0.00     0.012 A 
HETATM   17  C15 LIG X 999      45.637 130.848  19.017  1.00  0.00     0.024 A 
ENDBRANCH   7   8
ENDBRANCH   4   5
ENDBRANCH   3   4
TORSDOF 3
