REMARK VINA RESULT:      -7.2      3.565      6.047
REMARK  3 active torsions:
REMARK  status: ('A' for Active; 'I' for Inactive)
REMARK    1  A    between atoms: C3_3  and  S1_4 
REMARK    2  A    between atoms: S1_4  and  C4_7 
REMARK    3  A    between atoms: C12_15  and  N1_16 
ROOT
HETATM    1  C1  LIG X 999      44.984 127.890  22.680  1.00  0.00     0.013 C 
HETATM    2  C2  LIG X 999      44.212 128.700  23.130  1.00  0.00    -0.102 C 
HETATM    3  C3  LIG X 999      43.275 129.684  23.676  1.00  0.00     0.233 C 
ENDROOT
BRANCH   3   4
HETATM    4  S1  LIG X 999      43.450 131.256  22.841  1.00  0.00     0.159 S 
HETATM    5  O1  LIG X 999      44.759 131.891  23.221  1.00  0.00    -0.227 OA
HETATM    6  O2  LIG X 999      42.328 132.151  23.285  1.00  0.00    -0.227 OA
BRANCH   4   7
HETATM    7  C4  LIG X 999      43.362 131.056  21.057  1.00  0.00     0.116 C 
HETATM    8  C5  LIG X 999      44.758 131.138  20.425  1.00  0.00     0.059 C 
HETATM    9  C6  LIG X 999      44.711 131.171  18.916  1.00  0.00    -0.049 A 
HETATM   10  C7  LIG X 999      45.878 130.857  18.201  1.00  0.00     0.007 A 
HETATM   11  C11 LIG X 999      43.550 131.583  18.215  1.00  0.00    -0.019 A 
HETATM   12  C8  LIG X 999      45.887 130.898  16.806  1.00  0.00     0.001 A 
HETATM   13  C9  LIG X 999      44.733 131.257  16.110  1.00  0.00     0.001 A 
HETATM   14  C10 LIG X 999      43.570 131.588  16.806  1.00  0.00     0.010 A 
HETATM   15  C12 LIG X 999      42.251 131.889  18.942  1.00  0.00     0.252 C 
HETATM   16  C13 LIG X 999      42.459 132.135  20.450  1.00  0.00     0.060 C 
BRANCH  15  17
HETATM   17  N1  LIG X 999      41.577 133.038  18.329  1.00  0.00     0.087 N 
HETATM   18  H12 LIG X 999      41.299 132.786  17.353  1.00  0.00     0.313 HD
HETATM   19  H13 LIG X 999      40.703 133.252  18.863  1.00  0.00     0.313 HD
ENDBRANCH  15  17
ENDBRANCH   4   7
ENDBRANCH   3   4
TORSDOF 3
