REMARK VINA RESULT:      -8.7      1.843      2.660
REMARK  3 active torsions:
REMARK  status: ('A' for Active; 'I' for Inactive)
REMARK    1  A    between atoms: C3_3  and  S1_4 
REMARK    2  A    between atoms: S1_4  and  C4_7 
REMARK    3  A    between atoms: C12_15  and  N1_16 
ROOT
HETATM    1  C1  LIG X 999      47.633 131.001  12.811  1.00  0.00     0.013 C 
HETATM    2  C2  LIG X 999      47.120 131.294  13.863  1.00  0.00    -0.102 C 
HETATM    3  C3  LIG X 999      46.496 131.650  15.140  1.00  0.00     0.233 C 
ENDROOT
BRANCH   3   4
HETATM    4  S1  LIG X 999      44.980 130.735  15.384  1.00  0.00     0.159 S 
HETATM    5  O1  LIG X 999      43.867 131.365  14.592  1.00  0.00    -0.227 OA
HETATM    6  O2  LIG X 999      45.194 129.333  14.887  1.00  0.00    -0.227 OA
BRANCH   4   7
HETATM    7  C4  LIG X 999      44.534 130.672  17.123  1.00  0.00     0.116 C 
HETATM    8  C5  LIG X 999      43.543 131.797  17.453  1.00  0.00     0.059 C 
HETATM    9  C6  LIG X 999      43.249 131.889  18.930  1.00  0.00    -0.049 A 
HETATM   10  C7  LIG X 999      42.087 132.560  19.345  1.00  0.00     0.007 A 
HETATM   11  C11 LIG X 999      44.155 131.393  19.901  1.00  0.00    -0.019 A 
HETATM   12  C8  LIG X 999      41.793 132.696  20.703  1.00  0.00     0.001 A 
HETATM   13  C9  LIG X 999      42.658 132.169  21.661  1.00  0.00     0.001 A 
HETATM   14  C10 LIG X 999      43.826 131.514  21.264  1.00  0.00     0.010 A 
HETATM   15  C12 LIG X 999      45.400 130.618  19.503  1.00  0.00     0.252 C 
HETATM   16  C13 LIG X 999      45.772 130.801  18.017  1.00  0.00     0.060 C 
BRANCH  15  17
HETATM   17  N1  LIG X 999      46.531 130.991  20.359  1.00  0.00     0.087 N 
HETATM   18  H12 LIG X 999      47.097 131.723  19.872  1.00  0.00     0.313 HD
HETATM   19  H13 LIG X 999      46.169 131.411  21.247  1.00  0.00     0.313 HD
ENDBRANCH  15  17
ENDBRANCH   4   7
ENDBRANCH   3   4
TORSDOF 3
