MODEL 1
REMARK VINA RESULT:      -4.6      0.000      0.000
REMARK  3 active torsions:
REMARK  status: ('A' for Active; 'I' for Inactive)
REMARK    1  A    between atoms: C3_3  and  S1_4 
REMARK    2  A    between atoms: S1_4  and  C4_7 
REMARK    3  A    between atoms: C6_9  and  N1_10 
ROOT
HETATM    1  C1  LIG X 999      47.831 123.421  20.507  1.00  0.00     0.013 C 
HETATM    2  C2  LIG X 999      47.199 124.104  21.273  1.00  0.00    -0.102 C 
HETATM    3  C3  LIG X 999      46.432 124.931  22.207  1.00  0.00     0.233 C 
ENDROOT
BRANCH   3   4
HETATM    4  S1  LIG X 999      44.768 124.304  22.379  1.00  0.00     0.160 S 
HETATM    5  O1  LIG X 999      43.848 125.193  21.591  1.00  0.00    -0.227 OA
HETATM    6  O2  LIG X 999      44.731 122.924  21.785  1.00  0.00    -0.227 OA
BRANCH   4   7
HETATM    7  C4  LIG X 999      44.240 124.220  24.113  1.00  0.00     0.123 C 
HETATM    8  C5  LIG X 999      43.270 123.050  24.355  1.00  0.00     0.055 C 
HETATM    9  C6  LIG X 999      41.916 123.248  23.643  1.00  0.00     0.170 C 
HETATM   10  C7  LIG X 999      41.413 124.674  23.671  1.00  0.00     0.011 C 
HETATM   11  C8  LIG X 999      42.191 125.720  23.993  1.00  0.00    -0.050 C 
HETATM   12  C9  LIG X 999      41.701 127.100  23.771  1.00  0.00     0.017 C 
HETATM   13  C13 LIG X 999      43.568 125.513  24.624  1.00  0.00     0.060 C 
HETATM   14  C10 LIG X 999      42.572 128.104  23.849  1.00  0.00    -0.024 C 
HETATM   15  C11 LIG X 999      43.953 127.913  24.172  1.00  0.00    -0.027 C 
HETATM   16  C17 LIG X 999      42.324 129.542  23.601  1.00  0.00     0.276 C 
HETATM   17  C12 LIG X 999      44.469 126.727  24.502  1.00  0.00    -0.007 C 
HETATM   18  C14 LIG X 999      44.653 129.217  24.123  1.00  0.00     0.275 C 
HETATM   19  N4  LIG X 999      43.675 130.186  23.533  1.00  0.00    -0.067 N 
HETATM   20  C15 LIG X 999      44.030 130.458  22.118  1.00  0.00     0.272 C 
HETATM   21  C16 LIG X 999      43.684 131.462  24.284  1.00  0.00     0.272 C 
BRANCH   9  22
HETATM   22  N1  LIG X 999      40.916 122.377  24.250  1.00  0.00    -0.106 NA
HETATM   23  N2  LIG X 999      39.718 122.510  23.999  1.00  0.00    -0.167 NA
HETATM   24  N3  LIG X 999      38.521 122.643  23.751  1.00  0.00     0.068 N 
ENDBRANCH   9  22
ENDBRANCH   4   7
ENDBRANCH   3   4
TORSDOF 3
ENDMDL
MODEL 2
REMARK VINA RESULT:      -4.0      2.873      5.750
REMARK  3 active torsions:
REMARK  status: ('A' for Active; 'I' for Inactive)
REMARK    1  A    between atoms: C3_3  and  S1_4 
REMARK    2  A    between atoms: S1_4  and  C4_7 
REMARK    3  A    between atoms: C6_9  and  N1_10 
ROOT
HETATM    1  C1  LIG X 999      43.673 130.329  22.979  1.00  0.00     0.013 C 
HETATM    2  C2  LIG X 999      43.533 129.168  23.271  1.00  0.00    -0.102 C 
HETATM    3  C3  LIG X 999      43.365 127.758  23.629  1.00  0.00     0.233 C 
ENDROOT
BRANCH   3   4
HETATM    4  S1  LIG X 999      44.720 126.784  22.990  1.00  0.00     0.160 S 
HETATM    5  O1  LIG X 999      45.475 127.625  22.000  1.00  0.00    -0.227 OA
HETATM    6  O2  LIG X 999      45.633 126.454  24.137  1.00  0.00    -0.227 OA
BRANCH   4   7
HETATM    7  C4  LIG X 999      44.155 125.243  22.216  1.00  0.00     0.123 C 
HETATM    8  C5  LIG X 999      42.764 124.827  22.730  1.00  0.00     0.055 C 
HETATM    9  C6  LIG X 999      42.782 124.422  24.218  1.00  0.00     0.170 C 
HETATM   10  C7  LIG X 999      44.010 123.639  24.625  1.00  0.00     0.011 C 
HETATM   11  C8  LIG X 999      45.119 123.572  23.872  1.00  0.00    -0.050 C 
HETATM   12  C9  LIG X 999      46.360 122.991  24.435  1.00  0.00     0.017 C 
HETATM   13  C13 LIG X 999      45.117 124.053  22.420  1.00  0.00     0.060 C 
HETATM   14  C10 LIG X 999      47.503 123.169  23.774  1.00  0.00    -0.024 C 
HETATM   15  C11 LIG X 999      47.580 123.866  22.527  1.00  0.00    -0.027 C 
HETATM   16  C17 LIG X 999      48.861 122.739  24.178  1.00  0.00     0.276 C 
HETATM   17  C12 LIG X 999      46.507 124.326  21.880  1.00  0.00    -0.007 C 
HETATM   18  C14 LIG X 999      48.993 123.934  22.090  1.00  0.00     0.275 C 
HETATM   19  N4  LIG X 999      49.804 123.436  23.247  1.00  0.00    -0.067 N 
HETATM   20  C15 LIG X 999      50.441 124.581  23.942  1.00  0.00     0.272 C 
HETATM   21  C16 LIG X 999      50.861 122.508  22.784  1.00  0.00     0.272 C 
BRANCH   9  22
HETATM   22  N1  LIG X 999      41.591 123.633  24.520  1.00  0.00    -0.106 NA
HETATM   23  N2  LIG X 999      40.483 123.965  24.099  1.00  0.00    -0.167 NA
HETATM   24  N3  LIG X 999      39.375 124.296  23.681  1.00  0.00     0.068 N 
ENDBRANCH   9  22
ENDBRANCH   4   7
ENDBRANCH   3   4
TORSDOF 3
ENDMDL
MODEL 3
REMARK VINA RESULT:      -2.5      2.858      5.518
REMARK  3 active torsions:
REMARK  status: ('A' for Active; 'I' for Inactive)
REMARK    1  A    between atoms: C3_3  and  S1_4 
REMARK    2  A    between atoms: S1_4  and  C4_7 
REMARK    3  A    between atoms: C6_9  and  N1_10 
ROOT
HETATM    1  C1  LIG X 999      42.761 131.559  21.938  1.00  0.00     0.013 C 
HETATM    2  C2  LIG X 999      42.719 130.672  22.754  1.00  0.00    -0.102 C 
HETATM    3  C3  LIG X 999      42.670 129.596  23.745  1.00  0.00     0.233 C 
ENDROOT
BRANCH   3   4
HETATM    4  S1  LIG X 999      43.846 128.314  23.338  1.00  0.00     0.160 S 
HETATM    5  O1  LIG X 999      44.966 128.938  22.554  1.00  0.00    -0.227 OA
HETATM    6  O2  LIG X 999      44.403 127.771  24.624  1.00  0.00    -0.227 OA
BRANCH   4   7
HETATM    7  C4  LIG X 999      43.089 126.959  22.398  1.00  0.00     0.123 C 
HETATM    8  C5  LIG X 999      41.636 126.705  22.840  1.00  0.00     0.055 C 
HETATM    9  C6  LIG X 999      41.544 126.155  24.278  1.00  0.00     0.170 C 
HETATM   10  C7  LIG X 999      42.630 125.163  24.625  1.00  0.00     0.011 C 
HETATM   11  C8  LIG X 999      43.743 125.007  23.890  1.00  0.00    -0.050 C 
HETATM   12  C9  LIG X 999      44.866 124.195  24.414  1.00  0.00     0.017 C 
HETATM   13  C13 LIG X 999      43.860 125.624  22.496  1.00  0.00     0.060 C 
HETATM   14  C10 LIG X 999      46.044 124.266  23.796  1.00  0.00    -0.024 C 
HETATM   15  C11 LIG X 999      46.265 125.065  22.630  1.00  0.00    -0.027 C 
HETATM   16  C17 LIG X 999      47.310 123.602  24.180  1.00  0.00     0.276 C 
HETATM   17  C12 LIG X 999      45.293 125.741  22.014  1.00  0.00    -0.007 C 
HETATM   18  C14 LIG X 999      47.686 124.964  22.229  1.00  0.00     0.275 C 
HETATM   19  N4  LIG X 999      48.377 124.239  23.343  1.00  0.00    -0.067 N 
HETATM   20  C15 LIG X 999      49.150 125.203  24.165  1.00  0.00     0.272 C 
HETATM   21  C16 LIG X 999      49.302 123.215  22.807  1.00  0.00     0.272 C 
BRANCH   9  22
HETATM   22  N1  LIG X 999      40.242 125.526  24.474  1.00  0.00    -0.106 NA
HETATM   23  N2  LIG X 999      39.200 126.109  24.172  1.00  0.00    -0.167 NA
HETATM   24  N3  LIG X 999      38.159 126.690  23.872  1.00  0.00     0.068 N 
ENDBRANCH   9  22
ENDBRANCH   4   7
ENDBRANCH   3   4
TORSDOF 3
ENDMDL
MODEL 4
REMARK VINA RESULT:      -1.8      5.497      9.045
REMARK  3 active torsions:
REMARK  status: ('A' for Active; 'I' for Inactive)
REMARK    1  A    between atoms: C3_3  and  S1_4 
REMARK    2  A    between atoms: S1_4  and  C4_7 
REMARK    3  A    between atoms: C6_9  and  N1_10 
ROOT
HETATM    1  C1  LIG X 999      41.564 132.844  20.683  1.00  0.00     0.013 C 
HETATM    2  C2  LIG X 999      41.730 132.940  19.493  1.00  0.00    -0.102 C 
HETATM    3  C3  LIG X 999      41.929 133.054  18.047  1.00  0.00     0.233 C 
ENDROOT
BRANCH   3   4
HETATM    4  S1  LIG X 999      43.093 131.825  17.476  1.00  0.00     0.160 S 
HETATM    5  O1  LIG X 999      42.820 130.543  18.213  1.00  0.00    -0.227 OA
HETATM    6  O2  LIG X 999      42.846 131.599  16.011  1.00  0.00    -0.227 OA
BRANCH   4   7
HETATM    7  C4  LIG X 999      44.815 132.343  17.717  1.00  0.00     0.123 C 
HETATM    8  C5  LIG X 999      45.688 131.993  16.498  1.00  0.00     0.055 C 
HETATM    9  C6  LIG X 999      45.860 130.472  16.312  1.00  0.00     0.170 C 
HETATM   10  C7  LIG X 999      46.022 129.711  17.608  1.00  0.00     0.011 C 
HETATM   11  C8  LIG X 999      45.731 130.238  18.809  1.00  0.00    -0.050 C 
HETATM   12  C9  LIG X 999      45.685 129.366  20.006  1.00  0.00     0.017 C 
HETATM   13  C13 LIG X 999      45.479 131.737  18.972  1.00  0.00     0.060 C 
HETATM   14  C10 LIG X 999      45.146 129.850  21.124  1.00  0.00    -0.024 C 
HETATM   15  C11 LIG X 999      44.640 131.184  21.231  1.00  0.00    -0.027 C 
HETATM   16  C17 LIG X 999      44.936 129.144  22.408  1.00  0.00     0.276 C 
HETATM   17  C12 LIG X 999      44.739 132.083  20.249  1.00  0.00    -0.007 C 
HETATM   18  C14 LIG X 999      44.065 131.383  22.580  1.00  0.00     0.275 C 
HETATM   19  N4  LIG X 999      44.042 130.029  23.221  1.00  0.00    -0.067 N 
HETATM   20  C15 LIG X 999      42.659 129.492  23.208  1.00  0.00     0.272 C 
HETATM   21  C16 LIG X 999      44.515 130.105  24.622  1.00  0.00     0.272 C 
BRANCH   9  22
HETATM   22  N1  LIG X 999      47.017 130.215  15.460  1.00  0.00    -0.106 NA
HETATM   23  N2  LIG X 999      47.082 130.671  14.319  1.00  0.00    -0.167 NA
HETATM   24  N3  LIG X 999      47.148 131.126  13.178  1.00  0.00     0.068 N 
ENDBRANCH   9  22
ENDBRANCH   4   7
ENDBRANCH   3   4
TORSDOF 3
ENDMDL
MODEL 5
REMARK VINA RESULT:      -1.7      2.955      5.370
REMARK  3 active torsions:
REMARK  status: ('A' for Active; 'I' for Inactive)
REMARK    1  A    between atoms: C3_3  and  S1_4 
REMARK    2  A    between atoms: S1_4  and  C4_7 
REMARK    3  A    between atoms: C6_9  and  N1_10 
ROOT
HETATM    1  C1  LIG X 999      45.729 130.342  20.802  1.00  0.00     0.013 C 
HETATM    2  C2  LIG X 999      44.956 130.032  21.674  1.00  0.00    -0.102 C 
HETATM    3  C3  LIG X 999      44.019 129.658  22.736  1.00  0.00     0.233 C 
ENDROOT
BRANCH   3   4
HETATM    4  S1  LIG X 999      44.411 128.035  23.373  1.00  0.00     0.160 S 
HETATM    5  O1  LIG X 999      45.871 128.011  23.728  1.00  0.00    -0.227 OA
HETATM    6  O2  LIG X 999      43.607 127.823  24.625  1.00  0.00    -0.227 OA
BRANCH   4   7
HETATM    7  C4  LIG X 999      44.023 126.718  22.186  1.00  0.00     0.123 C 
HETATM    8  C5  LIG X 999      42.590 126.187  22.377  1.00  0.00     0.055 C 
HETATM    9  C6  LIG X 999      42.410 125.442  23.716  1.00  0.00     0.170 C 
HETATM   10  C7  LIG X 999      43.596 124.591  24.107  1.00  0.00     0.011 C 
HETATM   11  C8  LIG X 999      44.804 124.707  23.532  1.00  0.00    -0.050 C 
HETATM   12  C9  LIG X 999      45.973 124.015  24.123  1.00  0.00     0.017 C 
HETATM   13  C13 LIG X 999      44.991 125.517  22.249  1.00  0.00     0.060 C 
HETATM   14  C10 LIG X 999      47.190 124.348  23.698  1.00  0.00    -0.024 C 
HETATM   15  C11 LIG X 999      47.419 125.320  22.674  1.00  0.00    -0.027 C 
HETATM   16  C17 LIG X 999      48.492 123.841  24.188  1.00  0.00     0.276 C 
HETATM   17  C12 LIG X 999      46.432 125.915  21.999  1.00  0.00    -0.007 C 
HETATM   18  C14 LIG X 999      48.876 125.494  22.478  1.00  0.00     0.275 C 
HETATM   19  N4  LIG X 999      49.532 124.741  23.595  1.00  0.00    -0.067 N 
HETATM   20  C15 LIG X 999      50.018 125.693  24.624  1.00  0.00     0.272 C 
HETATM   21  C16 LIG X 999      50.680 123.952  23.091  1.00  0.00     0.272 C 
BRANCH   9  22
HETATM   22  N1  LIG X 999      41.220 124.600  23.646  1.00  0.00    -0.106 NA
HETATM   23  N2  LIG X 999      40.147 124.972  24.121  1.00  0.00    -0.167 NA
HETATM   24  N3  LIG X 999      39.075 125.342  24.597  1.00  0.00     0.068 N 
ENDBRANCH   9  22
ENDBRANCH   4   7
ENDBRANCH   3   4
TORSDOF 3
ENDMDL
