REMARK VINA RESULT:      -5.6      2.126      4.776
REMARK  1 active torsions:
REMARK  status: ('A' for Active; 'I' for Inactive)
REMARK    1  A    between atoms: C1_2  and  C2_3 
ROOT
HETATM    1  C2  LIG X 999      44.414 131.282  18.885  1.00  0.00     0.013 A 
HETATM    2  C3  LIG X 999      43.504 131.709  17.898  1.00  0.00     0.015 A 
HETATM    3  C4  LIG X 999      42.267 132.250  18.242  1.00  0.00     0.002 A 
HETATM    4  C5  LIG X 999      41.905 132.379  19.578  1.00  0.00     0.012 A 
HETATM    5  C6  LIG X 999      42.779 131.967  20.590  1.00  0.00    -0.025 A 
HETATM    6  C7  LIG X 999      42.395 132.105  21.933  1.00  0.00     0.012 A 
HETATM    7  C8  LIG X 999      43.251 131.700  22.955  1.00  0.00     0.001 A 
HETATM    8  C9  LIG X 999      44.496 131.155  22.649  1.00  0.00     0.001 A 
HETATM    9  C10 LIG X 999      44.897 131.009  21.319  1.00  0.00     0.013 A 
HETATM   10  C11 LIG X 999      44.049 131.411  20.259  1.00  0.00    -0.013 A 
ENDROOT
BRANCH   1  11
HETATM   11  C1  LIG X 999      45.716 130.715  18.441  1.00  0.00     0.270 C 
HETATM   12  O1  LIG X 999      45.883 130.339  17.249  1.00  0.00    -0.301 OA
ENDBRANCH   1  11
TORSDOF 1
