REMARK VINA RESULT:      -7.5      3.543      5.946
REMARK  1 active torsions:
REMARK  status: ('A' for Active; 'I' for Inactive)
REMARK    1  A    between atoms: C14_14  and  N1_15 
ROOT
HETATM    1  N1  LIG X 999      44.890 131.552  14.529  1.00  0.00    -0.054 NA
HETATM    2  N2  LIG X 999      45.941 131.196  13.992  1.00  0.00    -0.160 NA
HETATM    3  N3  LIG X 999      46.988 130.840  13.456  1.00  0.00     0.068 N 
ENDROOT
BRANCH   1   4
HETATM    4  C14 LIG X 999      44.680 131.463  15.947  1.00  0.00     0.165 C 
HETATM    5  C13 LIG X 999      45.621 130.863  16.789  1.00  0.00     0.061 C 
HETATM    6  C11 LIG X 999      45.385 130.772  18.168  1.00  0.00    -0.045 C 
HETATM    7  C10 LIG X 999      44.239 131.422  18.727  1.00  0.00     0.008 C 
HETATM    8  C12 LIG X 999      46.297 129.847  18.938  1.00  0.00     0.049 C 
HETATM    9  C4  LIG X 999      43.989 131.597  20.130  1.00  0.00    -0.013 C 
HETATM   10  C9  LIG X 999      43.259 131.895  17.808  1.00  0.00     0.045 C 
HETATM   11  C3  LIG X 999      44.998 131.514  21.118  1.00  0.00     0.013 C 
HETATM   12  C5  LIG X 999      42.685 131.979  20.559  1.00  0.00    -0.025 C 
HETATM   13  C2  LIG X 999      44.691 131.636  22.475  1.00  0.00     0.001 C 
HETATM   14  C1  LIG X 999      43.385 131.891  22.880  1.00  0.00     0.001 C 
HETATM   15  C6  LIG X 999      42.388 132.083  21.927  1.00  0.00     0.012 C 
HETATM   16  C7  LIG X 999      41.705 132.309  19.622  1.00  0.00     0.014 C 
HETATM   17  C8  LIG X 999      42.006 132.322  18.267  1.00  0.00     0.031 C 
HETATM   18  N4  LIG X 999      43.514 131.920  16.469  1.00  0.00    -0.338 N 
HETATM   19  H11 LIG X 999      42.798 132.307  15.810  1.00  0.00     0.167 HD
ENDBRANCH   1   4
TORSDOF 1
