REMARK VINA RESULT:      -6.4      0.000      0.000
REMARK  3 active torsions:
REMARK  status: ('A' for Active; 'I' for Inactive)
REMARK    1  A    between atoms: C2_2  and  N1_3 
REMARK    2  A    between atoms: C3_6  and  O1_7 
REMARK    3  A    between atoms: O1_7  and  C4_8 
REMARK       I    between atoms: C4_8  and  N4_10 
ROOT
HETATM    1  N1  LIG X 999      43.437 132.151  15.303  1.00  0.00    -0.070 NA
HETATM    2  N2  LIG X 999      43.647 131.401  14.348  1.00  0.00    -0.162 NA
HETATM    3  N3  LIG X 999      43.855 130.652  13.394  1.00  0.00     0.068 N 
ENDROOT
BRANCH   1   4
HETATM    4  C2  LIG X 999      43.882 131.848  16.633  1.00  0.00     0.128 A 
HETATM    5  C1  LIG X 999      43.008 131.931  17.734  1.00  0.00     0.049 A 
HETATM    6  C13 LIG X 999      43.460 131.628  19.024  1.00  0.00    -0.023 A 
HETATM    7  C8  LIG X 999      44.810 131.227  19.220  1.00  0.00    -0.022 A 
HETATM    8  C12 LIG X 999      42.586 131.707  20.127  1.00  0.00     0.021 A 
HETATM    9  C7  LIG X 999      45.675 131.146  18.122  1.00  0.00     0.052 A 
HETATM   10  C9  LIG X 999      45.264 130.907  20.516  1.00  0.00     0.021 A 
HETATM   11  C3  LIG X 999      45.221 131.471  16.830  1.00  0.00     0.113 A 
HETATM   12  C10 LIG X 999      44.369 131.005  21.581  1.00  0.00    -0.024 A 
HETATM   13  C11 LIG X 999      43.078 131.392  21.394  1.00  0.00    -0.024 A 
HETATM   14  C17 LIG X 999      44.619 130.700  23.007  1.00  0.00     0.276 C 
HETATM   15  C14 LIG X 999      42.341 131.382  22.677  1.00  0.00     0.276 C 
HETATM   16  N5  LIG X 999      43.370 131.099  23.729  1.00  0.00    -0.067 N 
HETATM   17  C15 LIG X 999      43.617 132.317  24.537  1.00  0.00     0.272 C 
HETATM   18  C16 LIG X 999      42.914 130.011  24.624  1.00  0.00     0.272 C 
BRANCH  11  19
HETATM   19  O1  LIG X 999      46.065 131.390  15.711  1.00  0.00    -0.259 OA
BRANCH  19  20
HETATM   20  C4  LIG X 999      46.813 130.263  15.337  1.00  0.00     0.367 C 
HETATM   21  O2  LIG X 999      46.906 129.272  16.113  1.00  0.00    -0.238 OA
HETATM   22  N4  LIG X 999      47.522 130.264  14.086  1.00  0.00    -0.336 N 
HETATM   23  C5  LIG X 999      47.428 131.434  13.211  1.00  0.00     0.154 C 
HETATM   24  C6  LIG X 999      48.322 129.098  13.700  1.00  0.00     0.154 C 
ENDBRANCH  19  20
ENDBRANCH  11  19
ENDBRANCH   1   4
TORSDOF 3
