REMARK VINA RESULT:      -8.0      1.550      2.077
REMARK  3 active torsions:
REMARK  status: ('A' for Active; 'I' for Inactive)
REMARK    1  A    between atoms: N1_1  and  C1_2 
REMARK    2  A    between atoms: C1_2  and  C2_3 
REMARK    3  A    between atoms: C2_3  and  C3_5 
ROOT
HETATM    1  C3  LIG X 999      45.258 131.176  16.822  1.00  0.00     0.012 A 
HETATM    2  C4  LIG X 999      43.925 131.601  16.672  1.00  0.00     0.016 A 
HETATM    3  C5  LIG X 999      43.111 131.814  17.787  1.00  0.00     0.013 A 
HETATM    4  C6  LIG X 999      43.612 131.603  19.078  1.00  0.00    -0.026 A 
HETATM    5  C7  LIG X 999      42.801 131.814  20.205  1.00  0.00     0.012 A 
HETATM    6  C8  LIG X 999      43.312 131.599  21.487  1.00  0.00     0.001 A 
HETATM    7  C9  LIG X 999      44.632 131.171  21.655  1.00  0.00     0.001 A 
HETATM    8  C10 LIG X 999      45.450 130.958  20.542  1.00  0.00     0.012 A 
HETATM    9  C11 LIG X 999      44.948 131.172  19.247  1.00  0.00    -0.025 A 
HETATM   10  C12 LIG X 999      45.760 130.961  18.122  1.00  0.00     0.027 A 
ENDROOT
BRANCH   1  11
HETATM   11  C2  LIG X 999      46.105 130.956  15.619  1.00  0.00     0.187 C 
HETATM   12  O1  LIG X 999      46.461 131.947  14.924  1.00  0.00    -0.290 OA
BRANCH  11  13
HETATM   13  C1  LIG X 999      46.519 129.571  15.187  1.00  0.00     0.350 C 
BRANCH  13  14
HETATM   14  N1  LIG X 999      45.448 128.604  15.416  1.00  0.00     0.085 N 
HETATM   15  H1  LIG X 999      45.363 128.015  14.556  1.00  0.00     0.313 HD
HETATM   16  H2  LIG X 999      44.548 129.129  15.506  1.00  0.00     0.313 HD
ENDBRANCH  13  14
ENDBRANCH  11  13
ENDBRANCH   1  11
TORSDOF 3
