REMARK VINA RESULT:      -8.1      0.000      0.000
REMARK  3 active torsions:
REMARK  status: ('A' for Active; 'I' for Inactive)
REMARK       I    between atoms: N1_2  and  C3_4 
REMARK    1  A    between atoms: C3_4  and  O2_6 
REMARK    2  A    between atoms: O2_6  and  C4_7 
REMARK    3  A    between atoms: C13_16  and  N2_17 
ROOT
HETATM    1  C4  LIG X 999      44.419 131.408  18.049  1.00  0.00     0.108 A 
HETATM    2  C5  LIG X 999      45.584 130.890  18.617  1.00  0.00     0.040 A 
HETATM    3  C6  LIG X 999      45.695 130.737  19.995  1.00  0.00     0.015 A 
HETATM    4  C7  LIG X 999      44.647 131.127  20.837  1.00  0.00    -0.024 A 
HETATM    5  C8  LIG X 999      44.775 130.974  22.226  1.00  0.00     0.012 A 
HETATM    6  C9  LIG X 999      43.752 131.389  23.077  1.00  0.00     0.001 A 
HETATM    7  C10 LIG X 999      42.598 131.969  22.552  1.00  0.00     0.001 A 
HETATM    8  C11 LIG X 999      42.453 132.127  21.172  1.00  0.00     0.014 A 
HETATM    9  C12 LIG X 999      43.465 131.694  20.286  1.00  0.00     0.003 A 
HETATM   10  C13 LIG X 999      43.353 131.836  18.876  1.00  0.00     0.071 A 
ENDROOT
BRANCH   1  11
HETATM   11  O2  LIG X 999      44.350 131.491  16.654  1.00  0.00    -0.259 OA
BRANCH  11  12
HETATM   12  C3  LIG X 999      45.477 131.500  15.821  1.00  0.00     0.367 C 
HETATM   13  N1  LIG X 999      45.898 130.287  15.175  1.00  0.00    -0.336 N 
HETATM   14  C1  LIG X 999      45.148 129.051  15.412  1.00  0.00     0.154 C 
HETATM   15  C2  LIG X 999      47.071 130.298  14.296  1.00  0.00     0.154 C 
HETATM   16  O1  LIG X 999      46.111 132.575  15.623  1.00  0.00    -0.238 OA
ENDBRANCH  11  12
ENDBRANCH   1  11
BRANCH  10  17
HETATM   17  N2  LIG X 999      42.197 132.441  18.273  1.00  0.00    -0.396 N 
HETATM   18  H13 LIG X 999      41.230 132.260  18.615  1.00  0.00     0.156 HD
HETATM   19  H14 LIG X 999      42.288 133.025  17.412  1.00  0.00     0.156 HD
ENDBRANCH  10  17
TORSDOF 3
