REMARK VINA RESULT:      -5.3      5.286      7.244
REMARK  1 active torsions:
REMARK  status: ('A' for Active; 'I' for Inactive)
REMARK    1  A    between atoms: C3_3  and  N1_4 
ROOT
HETATM    1  N1  LIG X 999      45.108 131.254  21.214  1.00  0.00    -0.072 NA
HETATM    2  N2  LIG X 999      44.752 131.504  20.061  1.00  0.00    -0.162 NA
HETATM    3  N3  LIG X 999      44.400 131.751  18.908  1.00  0.00     0.068 N 
ENDROOT
BRANCH   1   4
HETATM    4  C3  LIG X 999      44.186 130.809  22.218  1.00  0.00     0.104 A 
HETATM    5  C2  LIG X 999      43.257 131.741  22.698  1.00  0.00     0.035 A 
HETATM    6  C1  LIG X 999      42.375 131.411  23.727  1.00  0.00     0.003 A 
HETATM    7  C10 LIG X 999      42.396 130.136  24.290  1.00  0.00     0.012 A 
HETATM    8  C9  LIG X 999      43.282 129.165  23.806  1.00  0.00    -0.023 A 
HETATM    9  C4  LIG X 999      44.181 129.486  22.740  1.00  0.00     0.006 A 
HETATM   10  C8  LIG X 999      43.266 127.867  24.352  1.00  0.00     0.021 A 
HETATM   11  C5  LIG X 999      45.000 128.460  22.210  1.00  0.00     0.024 A 
HETATM   12  C6  LIG X 999      44.956 127.191  22.786  1.00  0.00    -0.023 A 
HETATM   13  C7  LIG X 999      44.126 126.907  23.826  1.00  0.00    -0.024 A 
HETATM   14  C14 LIG X 999      45.702 125.982  22.375  1.00  0.00     0.276 C 
HETATM   15  C11 LIG X 999      44.242 125.484  24.211  1.00  0.00     0.276 C 
HETATM   16  N4  LIG X 999      45.374 124.938  23.397  1.00  0.00    -0.067 N 
HETATM   17  C12 LIG X 999      44.986 123.669  22.744  1.00  0.00     0.272 C 
HETATM   18  C13 LIG X 999      46.550 124.693  24.267  1.00  0.00     0.272 C 
ENDBRANCH   1   4
TORSDOF 1
