MODEL 1
REMARK VINA RESULT:      -8.5      0.000      0.000
REMARK  1 active torsions:
REMARK  status: ('A' for Active; 'I' for Inactive)
REMARK    1  A    between atoms: N1_1  and  C1_2 
ROOT
HETATM    1  C1  LIG X 999      45.502 130.696  15.368  1.00  0.00     0.103 A 
HETATM    2  C2  LIG X 999      46.113 130.380  16.586  1.00  0.00     0.049 A 
HETATM    3  C3  LIG X 999      45.483 130.724  17.786  1.00  0.00     0.001 A 
HETATM    4  C4  LIG X 999      46.067 130.423  19.023  1.00  0.00     0.015 A 
HETATM    5  C5  LIG X 999      45.420 130.776  20.208  1.00  0.00     0.013 A 
HETATM    6  C6  LIG X 999      44.182 131.434  20.173  1.00  0.00    -0.023 A 
HETATM    7  C7  LIG X 999      43.534 131.788  21.367  1.00  0.00     0.012 A 
HETATM    8  C8  LIG X 999      42.302 132.444  21.331  1.00  0.00     0.001 A 
HETATM    9  C9  LIG X 999      41.707 132.752  20.106  1.00  0.00     0.001 A 
HETATM   10  C10 LIG X 999      42.339 132.406  18.909  1.00  0.00     0.015 A 
HETATM   11  C11 LIG X 999      43.581 131.745  18.926  1.00  0.00     0.009 A 
HETATM   12  C12 LIG X 999      44.237 131.388  17.731  1.00  0.00     0.101 A 
HETATM   13  O1  LIG X 999      43.690 131.670  16.549  1.00  0.00    -0.272 OA
HETATM   14  C13 LIG X 999      44.263 131.356  15.391  1.00  0.00     0.314 A 
HETATM   15  O2  LIG X 999      43.681 131.657  14.316  1.00  0.00    -0.257 OA
ENDROOT
BRANCH   1  16
HETATM   16  N1  LIG X 999      46.139 130.347  14.134  1.00  0.00    -0.394 N 
HETATM   17  H1  LIG X 999      45.591 130.251  13.250  1.00  0.00     0.156 HD
HETATM   18  H2  LIG X 999      47.170 130.181  14.093  1.00  0.00     0.156 HD
ENDBRANCH   1  16
TORSDOF 1
ENDMDL
MODEL 2
REMARK VINA RESULT:      -8.0      2.624      5.818
REMARK  1 active torsions:
REMARK  status: ('A' for Active; 'I' for Inactive)
REMARK    1  A    between atoms: N1_1  and  C1_2 
ROOT
HETATM    1  C1  LIG X 999      44.114 131.338  19.521  1.00  0.00     0.103 A 
HETATM    2  C2  LIG X 999      43.494 131.764  18.342  1.00  0.00     0.049 A 
HETATM    3  C3  LIG X 999      44.112 131.525  17.110  1.00  0.00     0.001 A 
HETATM    4  C4  LIG X 999      43.519 131.938  15.911  1.00  0.00     0.015 A 
HETATM    5  C5  LIG X 999      44.153 131.690  14.693  1.00  0.00     0.013 A 
HETATM    6  C6  LIG X 999      45.388 131.026  14.658  1.00  0.00    -0.023 A 
HETATM    7  C7  LIG X 999      46.024 130.778  13.431  1.00  0.00     0.012 A 
HETATM    8  C8  LIG X 999      47.255 130.118  13.397  1.00  0.00     0.001 A 
HETATM    9  C9  LIG X 999      47.859 129.700  14.585  1.00  0.00     0.001 A 
HETATM   10  C10 LIG X 999      47.239 129.939  15.813  1.00  0.00     0.015 A 
HETATM   11  C11 LIG X 999      46.000 130.603  15.866  1.00  0.00     0.009 A 
HETATM   12  C12 LIG X 999      45.356 130.856  17.095  1.00  0.00     0.101 A 
HETATM   13  O1  LIG X 999      45.912 130.468  18.242  1.00  0.00    -0.272 OA
HETATM   14  C13 LIG X 999      45.351 130.679  19.428  1.00  0.00     0.314 A 
HETATM   15  O2  LIG X 999      45.941 130.281  20.467  1.00  0.00    -0.257 OA
ENDROOT
BRANCH   1  16
HETATM   16  N1  LIG X 999      43.489 131.577  20.787  1.00  0.00    -0.394 N 
HETATM   17  H1  LIG X 999      43.695 132.441  21.338  1.00  0.00     0.156 HD
HETATM   18  H2  LIG X 999      42.813 130.889  21.187  1.00  0.00     0.156 HD
ENDBRANCH   1  16
TORSDOF 1
ENDMDL
MODEL 3
REMARK VINA RESULT:      -7.7      2.629      4.935
REMARK  1 active torsions:
REMARK  status: ('A' for Active; 'I' for Inactive)
REMARK    1  A    between atoms: N1_1  and  C1_2 
ROOT
HETATM    1  C1  LIG X 999      43.020 131.913  20.781  1.00  0.00     0.103 A 
HETATM    2  C2  LIG X 999      44.237 131.249  20.605  1.00  0.00     0.049 A 
HETATM    3  C3  LIG X 999      44.731 131.038  19.314  1.00  0.00     0.001 A 
HETATM    4  C4  LIG X 999      45.946 130.375  19.102  1.00  0.00     0.015 A 
HETATM    5  C5  LIG X 999      46.420 130.175  17.805  1.00  0.00     0.013 A 
HETATM    6  C6  LIG X 999      45.684 130.634  16.702  1.00  0.00    -0.023 A 
HETATM    7  C7  LIG X 999      46.163 130.431  15.398  1.00  0.00     0.012 A 
HETATM    8  C8  LIG X 999      45.429 130.888  14.300  1.00  0.00     0.001 A 
HETATM    9  C9  LIG X 999      44.215 131.550  14.494  1.00  0.00     0.001 A 
HETATM   10  C10 LIG X 999      43.725 131.759  15.786  1.00  0.00     0.015 A 
HETATM   11  C11 LIG X 999      44.451 131.306  16.903  1.00  0.00     0.009 A 
HETATM   12  C12 LIG X 999      43.976 131.506  18.215  1.00  0.00     0.101 A 
HETATM   13  O1  LIG X 999      42.820 132.135  18.427  1.00  0.00    -0.272 OA
HETATM   14  C13 LIG X 999      42.325 132.351  19.642  1.00  0.00     0.314 A 
HETATM   15  O2  LIG X 999      41.225 132.953  19.758  1.00  0.00    -0.257 OA
ENDROOT
BRANCH   1  16
HETATM   16  N1  LIG X 999      42.506 132.135  22.099  1.00  0.00    -0.394 N 
HETATM   17  H1  LIG X 999      41.755 131.528  22.497  1.00  0.00     0.156 HD
HETATM   18  H2  LIG X 999      42.875 132.912  22.692  1.00  0.00     0.156 HD
ENDBRANCH   1  16
TORSDOF 1
ENDMDL
MODEL 4
REMARK VINA RESULT:      -7.7      1.466      2.685
REMARK  1 active torsions:
REMARK  status: ('A' for Active; 'I' for Inactive)
REMARK    1  A    between atoms: N1_1  and  C1_2 
ROOT
HETATM    1  C1  LIG X 999      44.837 131.118  15.604  1.00  0.00     0.103 A 
HETATM    2  C2  LIG X 999      43.640 131.644  16.100  1.00  0.00     0.049 A 
HETATM    3  C3  LIG X 999      43.432 131.710  17.481  1.00  0.00     0.001 A 
HETATM    4  C4  LIG X 999      42.244 132.231  18.010  1.00  0.00     0.015 A 
HETATM    5  C5  LIG X 999      42.058 132.287  19.392  1.00  0.00     0.013 A 
HETATM    6  C6  LIG X 999      43.055 131.824  20.263  1.00  0.00    -0.023 A 
HETATM    7  C7  LIG X 999      42.865 131.881  21.653  1.00  0.00     0.012 A 
HETATM    8  C8  LIG X 999      43.858 131.419  22.518  1.00  0.00     0.001 A 
HETATM    9  C9  LIG X 999      45.048 130.896  22.006  1.00  0.00     0.001 A 
HETATM   10  C10 LIG X 999      45.252 130.832  20.626  1.00  0.00     0.015 A 
HETATM   11  C11 LIG X 999      44.262 131.294  19.739  1.00  0.00     0.009 A 
HETATM   12  C12 LIG X 999      44.447 131.238  18.342  1.00  0.00     0.101 A 
HETATM   13  O1  LIG X 999      45.573 130.744  17.828  1.00  0.00    -0.272 OA
HETATM   14  C13 LIG X 999      45.801 130.668  16.521  1.00  0.00     0.314 A 
HETATM   15  O2  LIG X 999      46.892 130.188  16.114  1.00  0.00    -0.257 OA
ENDROOT
BRANCH   1  16
HETATM   16  N1  LIG X 999      45.060 131.046  14.191  1.00  0.00    -0.394 N 
HETATM   17  H1  LIG X 999      46.025 130.977  13.798  1.00  0.00     0.156 HD
HETATM   18  H2  LIG X 999      44.257 131.063  13.523  1.00  0.00     0.156 HD
ENDBRANCH   1  16
TORSDOF 1
ENDMDL
MODEL 5
REMARK VINA RESULT:      -6.4      3.521      5.897
REMARK  1 active torsions:
REMARK  status: ('A' for Active; 'I' for Inactive)
REMARK    1  A    between atoms: N1_1  and  C1_2 
ROOT
HETATM    1  C1  LIG X 999      42.895 131.732  22.731  1.00  0.00     0.103 A 
HETATM    2  C2  LIG X 999      42.131 132.204  21.659  1.00  0.00     0.049 A 
HETATM    3  C3  LIG X 999      42.598 132.042  20.351  1.00  0.00     0.001 A 
HETATM    4  C4  LIG X 999      41.858 132.503  19.256  1.00  0.00     0.015 A 
HETATM    5  C5  LIG X 999      42.343 132.331  17.958  1.00  0.00     0.013 A 
HETATM    6  C6  LIG X 999      43.574 131.695  17.739  1.00  0.00    -0.023 A 
HETATM    7  C7  LIG X 999      44.060 131.523  16.433  1.00  0.00     0.012 A 
HETATM    8  C8  LIG X 999      45.287 130.891  16.217  1.00  0.00     0.001 A 
HETATM    9  C9  LIG X 999      46.037 130.426  17.299  1.00  0.00     0.001 A 
HETATM   10  C10 LIG X 999      45.567 130.589  18.604  1.00  0.00     0.015 A 
HETATM   11  C11 LIG X 999      44.334 131.224  18.841  1.00  0.00     0.009 A 
HETATM   12  C12 LIG X 999      43.841 131.400  20.150  1.00  0.00     0.101 A 
HETATM   13  O1  LIG X 999      44.537 130.965  21.200  1.00  0.00    -0.272 OA
HETATM   14  C13 LIG X 999      44.121 131.104  22.454  1.00  0.00     0.314 A 
HETATM   15  O2  LIG X 999      44.838 130.665  23.392  1.00  0.00    -0.257 OA
ENDROOT
BRANCH   1  16
HETATM   16  N1  LIG X 999      42.426 131.893  24.074  1.00  0.00    -0.394 N 
HETATM   17  H1  LIG X 999      41.612 132.510  24.293  1.00  0.00     0.156 HD
HETATM   18  H2  LIG X 999      42.891 131.394  24.865  1.00  0.00     0.156 HD
ENDBRANCH   1  16
TORSDOF 1
ENDMDL
MODEL 6
REMARK VINA RESULT:      -5.7      1.905      3.301
REMARK  1 active torsions:
REMARK  status: ('A' for Active; 'I' for Inactive)
REMARK    1  A    between atoms: N1_1  and  C1_2 
ROOT
HETATM    1  C1  LIG X 999      46.576 130.585  13.758  1.00  0.00     0.103 A 
HETATM    2  C2  LIG X 999      45.347 131.186  14.048  1.00  0.00     0.049 A 
HETATM    3  C3  LIG X 999      44.916 131.275  15.375  1.00  0.00     0.001 A 
HETATM    4  C4  LIG X 999      43.691 131.870  15.700  1.00  0.00     0.015 A 
HETATM    5  C5  LIG X 999      43.279 131.948  17.031  1.00  0.00     0.013 A 
HETATM    6  C6  LIG X 999      44.087 131.431  18.055  1.00  0.00    -0.023 A 
HETATM    7  C7  LIG X 999      43.671 131.511  19.394  1.00  0.00     0.012 A 
HETATM    8  C8  LIG X 999      44.476 130.995  20.412  1.00  0.00     0.001 A 
HETATM    9  C9  LIG X 999      45.700 130.398  20.104  1.00  0.00     0.001 A 
HETATM   10  C10 LIG X 999      46.128 130.312  18.777  1.00  0.00     0.015 A 
HETATM   11  C11 LIG X 999      45.330 130.825  17.739  1.00  0.00     0.009 A 
HETATM   12  C12 LIG X 999      45.742 130.748  16.393  1.00  0.00     0.101 A 
HETATM   13  O1  LIG X 999      46.906 130.183  16.073  1.00  0.00    -0.272 OA
HETATM   14  C13 LIG X 999      47.344 130.084  14.822  1.00  0.00     0.314 A 
HETATM   15  O2  LIG X 999      48.456 129.535  14.602  1.00  0.00    -0.257 OA
ENDROOT
BRANCH   1  16
HETATM   16  N1  LIG X 999      47.027 130.489  12.402  1.00  0.00    -0.394 N 
HETATM   17  H1  LIG X 999      46.855 131.260  11.718  1.00  0.00     0.156 HD
HETATM   18  H2  LIG X 999      47.539 129.642  12.068  1.00  0.00     0.156 HD
ENDBRANCH   1  16
TORSDOF 1
ENDMDL
