MODEL 1
REMARK VINA RESULT:      -7.7      0.000      0.000
REMARK  1 active torsions:
REMARK  status: ('A' for Active; 'I' for Inactive)
REMARK    1  A    between atoms: C5_5  and  N1_6 
ROOT
HETATM    1  N1  LIG X 999      45.576 130.246  18.170  1.00  0.00    -0.070 NA
HETATM    2  N2  LIG X 999      45.644 131.004  19.139  1.00  0.00    -0.162 NA
HETATM    3  N3  LIG X 999      45.710 131.758  20.109  1.00  0.00     0.068 N 
ENDROOT
BRANCH   1   4
HETATM    4  C5  LIG X 999      45.173 130.707  16.869  1.00  0.00     0.124 A 
HETATM    5  C4  LIG X 999      45.976 130.514  15.711  1.00  0.00     0.007 A 
HETATM    6  C3  LIG X 999      47.158 129.744  15.731  1.00  0.00     0.015 A 
HETATM    7  C10 LIG X 999      45.555 131.075  14.473  1.00  0.00    -0.024 A 
HETATM    8  C2  LIG X 999      47.928 129.588  14.576  1.00  0.00     0.001 A 
HETATM    9  C1  LIG X 999      47.528 130.180  13.378  1.00  0.00     0.001 A 
HETATM   10  C11 LIG X 999      46.343 130.914  13.323  1.00  0.00     0.012 A 
HETATM   11  C9  LIG X 999      44.344 131.773  14.396  1.00  0.00     0.014 A 
HETATM   12  C8  LIG X 999      43.535 131.906  15.523  1.00  0.00     0.026 A 
HETATM   13  C6  LIG X 999      43.937 131.374  16.750  1.00  0.00     0.077 A 
HETATM   14  C7  LIG X 999      43.083 131.553  17.900  1.00  0.00     0.102 C 
HETATM   15  N4  LIG X 999      42.398 131.698  18.822  1.00  0.00    -0.191 NA
ENDBRANCH   1   4
TORSDOF 1
ENDMDL
MODEL 2
REMARK VINA RESULT:      -7.3      2.291      3.580
REMARK  1 active torsions:
REMARK  status: ('A' for Active; 'I' for Inactive)
REMARK    1  A    between atoms: C5_5  and  N1_6 
ROOT
HETATM    1  N1  LIG X 999      45.263 130.871  20.981  1.00  0.00    -0.070 NA
HETATM    2  N2  LIG X 999      45.077 129.883  21.695  1.00  0.00    -0.162 NA
HETATM    3  N3  LIG X 999      44.895 128.897  22.406  1.00  0.00     0.068 N 
ENDROOT
BRANCH   1   4
HETATM    4  C5  LIG X 999      44.318 131.272  19.975  1.00  0.00     0.124 A 
HETATM    5  C4  LIG X 999      44.592 131.155  18.584  1.00  0.00     0.007 A 
HETATM    6  C3  LIG X 999      45.751 130.518  18.093  1.00  0.00     0.015 A 
HETATM    7  C10 LIG X 999      43.647 131.657  17.647  1.00  0.00    -0.024 A 
HETATM    8  C2  LIG X 999      45.992 130.435  16.720  1.00  0.00     0.001 A 
HETATM    9  C1  LIG X 999      45.079 130.969  15.811  1.00  0.00     0.001 A 
HETATM   10  C11 LIG X 999      43.907 131.570  16.270  1.00  0.00     0.012 A 
HETATM   11  C9  LIG X 999      42.445 132.219  18.094  1.00  0.00     0.014 A 
HETATM   12  C8  LIG X 999      42.159 132.275  19.456  1.00  0.00     0.026 A 
HETATM   13  C6  LIG X 999      43.081 131.801  20.394  1.00  0.00     0.077 A 
HETATM   14  C7  LIG X 999      42.758 131.898  21.797  1.00  0.00     0.102 C 
HETATM   15  N4  LIG X 999      42.499 131.976  22.923  1.00  0.00    -0.191 NA
ENDBRANCH   1   4
TORSDOF 1
ENDMDL
MODEL 3
REMARK VINA RESULT:      -7.1      2.763      5.231
REMARK  1 active torsions:
REMARK  status: ('A' for Active; 'I' for Inactive)
REMARK    1  A    between atoms: C5_5  and  N1_6 
ROOT
HETATM    1  N1  LIG X 999      45.887 130.913  17.553  1.00  0.00    -0.070 NA
HETATM    2  N2  LIG X 999      45.965 130.002  16.727  1.00  0.00    -0.162 NA
HETATM    3  N3  LIG X 999      46.045 129.095  15.900  1.00  0.00     0.068 N 
ENDROOT
BRANCH   1   4
HETATM    4  C5  LIG X 999      44.629 131.334  18.106  1.00  0.00     0.124 A 
HETATM    5  C4  LIG X 999      44.395 131.391  19.508  1.00  0.00     0.007 A 
HETATM    6  C3  LIG X 999      45.417 131.166  20.454  1.00  0.00     0.015 A 
HETATM    7  C10 LIG X 999      43.097 131.731  19.982  1.00  0.00    -0.024 A 
HETATM    8  C2  LIG X 999      45.145 131.216  21.824  1.00  0.00     0.001 A 
HETATM    9  C1  LIG X 999      43.859 131.508  22.276  1.00  0.00     0.001 A 
HETATM   10  C11 LIG X 999      42.840 131.773  21.361  1.00  0.00     0.012 A 
HETATM   11  C9  LIG X 999      42.080 132.046  19.073  1.00  0.00     0.014 A 
HETATM   12  C8  LIG X 999      42.334 132.046  17.704  1.00  0.00     0.026 A 
HETATM   13  C6  LIG X 999      43.598 131.701  17.218  1.00  0.00     0.077 A 
HETATM   14  C7  LIG X 999      43.816 131.689  15.792  1.00  0.00     0.102 C 
HETATM   15  N4  LIG X 999      43.990 131.679  14.647  1.00  0.00    -0.191 NA
ENDBRANCH   1   4
TORSDOF 1
ENDMDL
MODEL 4
REMARK VINA RESULT:      -6.3      2.068      3.784
REMARK  1 active torsions:
REMARK  status: ('A' for Active; 'I' for Inactive)
REMARK    1  A    between atoms: C5_5  and  N1_6 
ROOT
HETATM    1  N1  LIG X 999      42.180 131.822  19.003  1.00  0.00    -0.070 NA
HETATM    2  N2  LIG X 999      41.834 132.768  19.712  1.00  0.00    -0.162 NA
HETATM    3  N3  LIG X 999      41.486 133.714  20.417  1.00  0.00     0.068 N 
ENDROOT
BRANCH   1   4
HETATM    4  C5  LIG X 999      43.560 131.452  18.845  1.00  0.00     0.124 A 
HETATM    5  C4  LIG X 999      44.178 131.344  17.568  1.00  0.00     0.007 A 
HETATM    6  C3  LIG X 999      43.520 131.717  16.377  1.00  0.00     0.015 A 
HETATM    7  C10 LIG X 999      45.522 130.886  17.484  1.00  0.00    -0.024 A 
HETATM    8  C2  LIG X 999      44.155 131.583  15.139  1.00  0.00     0.001 A 
HETATM    9  C1  LIG X 999      45.458 131.092  15.066  1.00  0.00     0.001 A 
HETATM   10  C11 LIG X 999      46.144 130.752  16.232  1.00  0.00     0.012 A 
HETATM   11  C9  LIG X 999      46.235 130.588  18.651  1.00  0.00     0.014 A 
HETATM   12  C8  LIG X 999      45.642 130.754  19.900  1.00  0.00     0.026 A 
HETATM   13  C6  LIG X 999      44.318 131.189  20.004  1.00  0.00     0.077 A 
HETATM   14  C7  LIG X 999      43.731 131.326  21.314  1.00  0.00     0.102 C 
HETATM   15  N4  LIG X 999      43.260 131.436  22.366  1.00  0.00    -0.191 NA
ENDBRANCH   1   4
TORSDOF 1
ENDMDL
MODEL 5
REMARK VINA RESULT:      -6.2      2.296      3.337
REMARK  1 active torsions:
REMARK  status: ('A' for Active; 'I' for Inactive)
REMARK    1  A    between atoms: C5_5  and  N1_6 
ROOT
HETATM    1  N1  LIG X 999      44.009 132.213  14.884  1.00  0.00    -0.070 NA
HETATM    2  N2  LIG X 999      43.197 131.800  14.054  1.00  0.00    -0.162 NA
HETATM    3  N3  LIG X 999      42.383 131.389  13.229  1.00  0.00     0.068 N 
ENDROOT
BRANCH   1   4
HETATM    4  C5  LIG X 999      45.001 131.355  15.472  1.00  0.00     0.124 A 
HETATM    5  C4  LIG X 999      46.111 130.857  14.735  1.00  0.00     0.007 A 
HETATM    6  C3  LIG X 999      46.389 131.272  13.415  1.00  0.00     0.015 A 
HETATM    7  C10 LIG X 999      47.003 129.940  15.358  1.00  0.00    -0.024 A 
HETATM    8  C2  LIG X 999      47.480 130.749  12.718  1.00  0.00     0.001 A 
HETATM    9  C1  LIG X 999      48.323 129.818  13.324  1.00  0.00     0.001 A 
HETATM   10  C11 LIG X 999      48.092 129.420  14.641  1.00  0.00     0.012 A 
HETATM   11  C9  LIG X 999      46.808 129.571  16.694  1.00  0.00     0.014 A 
HETATM   12  C8  LIG X 999      45.753 130.110  17.426  1.00  0.00     0.026 A 
HETATM   13  C6  LIG X 999      44.857 131.001  16.829  1.00  0.00     0.077 A 
HETATM   14  C7  LIG X 999      43.764 131.520  17.614  1.00  0.00     0.102 C 
HETATM   15  N4  LIG X 999      42.886 131.935  18.244  1.00  0.00    -0.191 NA
ENDBRANCH   1   4
TORSDOF 1
ENDMDL
MODEL 6
REMARK VINA RESULT:      -5.9      2.676      5.804
REMARK  1 active torsions:
REMARK  status: ('A' for Active; 'I' for Inactive)
REMARK    1  A    between atoms: C5_5  and  N1_6 
ROOT
HETATM    1  N1  LIG X 999      44.090 132.026  16.416  1.00  0.00    -0.070 NA
HETATM    2  N2  LIG X 999      43.906 131.308  15.432  1.00  0.00    -0.162 NA
HETATM    3  N3  LIG X 999      43.719 130.591  14.450  1.00  0.00     0.068 N 
ENDROOT
BRANCH   1   4
HETATM    4  C5  LIG X 999      44.481 131.489  17.691  1.00  0.00     0.124 A 
HETATM    5  C4  LIG X 999      43.760 131.764  18.886  1.00  0.00     0.007 A 
HETATM    6  C3  LIG X 999      42.540 132.473  18.886  1.00  0.00     0.015 A 
HETATM    7  C10 LIG X 999      44.257 131.271  20.124  1.00  0.00    -0.024 A 
HETATM    8  C2  LIG X 999      41.868 132.736  20.082  1.00  0.00     0.001 A 
HETATM    9  C1  LIG X 999      42.387 132.285  21.296  1.00  0.00     0.001 A 
HETATM   10  C11 LIG X 999      43.572 131.549  21.318  1.00  0.00     0.012 A 
HETATM   11  C9  LIG X 999      45.419 130.491  20.153  1.00  0.00     0.014 A 
HETATM   12  C8  LIG X 999      46.085 130.177  18.971  1.00  0.00     0.026 A 
HETATM   13  C6  LIG X 999      45.621 130.663  17.746  1.00  0.00     0.077 A 
HETATM   14  C7  LIG X 999      46.352 130.335  16.546  1.00  0.00     0.102 C 
HETATM   15  N4  LIG X 999      46.939 130.072  15.583  1.00  0.00    -0.191 NA
ENDBRANCH   1   4
TORSDOF 1
ENDMDL
MODEL 7
REMARK VINA RESULT:      -5.5      9.918     10.688
REMARK  1 active torsions:
REMARK  status: ('A' for Active; 'I' for Inactive)
REMARK    1  A    between atoms: C5_5  and  N1_6 
ROOT
HETATM    1  N1  LIG X 999      49.479 136.050  20.857  1.00  0.00    -0.070 NA
HETATM    2  N2  LIG X 999      48.746 135.362  21.569  1.00  0.00    -0.162 NA
HETATM    3  N3  LIG X 999      48.012 134.675  22.277  1.00  0.00     0.068 N 
ENDROOT
BRANCH   1   4
HETATM    4  C5  LIG X 999      50.175 137.200  21.365  1.00  0.00     0.124 A 
HETATM    5  C4  LIG X 999      51.198 137.098  22.348  1.00  0.00     0.007 A 
HETATM    6  C3  LIG X 999      51.694 135.856  22.796  1.00  0.00     0.015 A 
HETATM    7  C10 LIG X 999      51.780 138.287  22.870  1.00  0.00    -0.024 A 
HETATM    8  C2  LIG X 999      52.690 135.795  23.774  1.00  0.00     0.001 A 
HETATM    9  C1  LIG X 999      53.222 136.968  24.310  1.00  0.00     0.001 A 
HETATM   10  C11 LIG X 999      52.777 138.209  23.856  1.00  0.00     0.012 A 
HETATM   11  C9  LIG X 999      51.374 139.537  22.387  1.00  0.00     0.014 A 
HETATM   12  C8  LIG X 999      50.414 139.625  21.381  1.00  0.00     0.026 A 
HETATM   13  C6  LIG X 999      49.821 138.469  20.865  1.00  0.00     0.077 A 
HETATM   14  C7  LIG X 999      48.813 138.603  19.841  1.00  0.00     0.102 C 
HETATM   15  N4  LIG X 999      48.004 138.710  19.020  1.00  0.00    -0.191 NA
ENDBRANCH   1   4
TORSDOF 1
ENDMDL
MODEL 8
REMARK VINA RESULT:      -5.2      2.200      5.229
REMARK  1 active torsions:
REMARK  status: ('A' for Active; 'I' for Inactive)
REMARK    1  A    between atoms: C5_5  and  N1_6 
ROOT
HETATM    1  N1  LIG X 999      46.009 130.397  19.559  1.00  0.00    -0.070 NA
HETATM    2  N2  LIG X 999      45.834 129.603  20.485  1.00  0.00    -0.162 NA
HETATM    3  N3  LIG X 999      45.662 128.807  21.407  1.00  0.00     0.068 N 
ENDROOT
BRANCH   1   4
HETATM    4  C5  LIG X 999      44.911 130.992  18.847  1.00  0.00     0.124 A 
HETATM    5  C4  LIG X 999      43.816 131.608  19.514  1.00  0.00     0.007 A 
HETATM    6  C3  LIG X 999      43.792 131.796  20.912  1.00  0.00     0.015 A 
HETATM    7  C10 LIG X 999      42.722 132.095  18.746  1.00  0.00    -0.024 A 
HETATM    8  C2  LIG X 999      42.691 132.392  21.532  1.00  0.00     0.001 A 
HETATM    9  C1  LIG X 999      41.605 132.827  20.773  1.00  0.00     0.001 A 
HETATM   10  C11 LIG X 999      41.622 132.688  19.385  1.00  0.00     0.012 A 
HETATM   11  C9  LIG X 999      42.750 132.004  17.349  1.00  0.00     0.014 A 
HETATM   12  C8  LIG X 999      43.853 131.453  16.702  1.00  0.00     0.026 A 
HETATM   13  C6  LIG X 999      44.932 130.956  17.439  1.00  0.00     0.077 A 
HETATM   14  C7  LIG X 999      46.046 130.372  16.733  1.00  0.00     0.102 C 
HETATM   15  N4  LIG X 999      46.940 129.902  16.166  1.00  0.00    -0.191 NA
ENDBRANCH   1   4
TORSDOF 1
ENDMDL
MODEL 9
REMARK VINA RESULT:      -5.1      8.926     10.864
REMARK  1 active torsions:
REMARK  status: ('A' for Active; 'I' for Inactive)
REMARK    1  A    between atoms: C5_5  and  N1_6 
ROOT
HETATM    1  N1  LIG X 999      42.345 126.396  24.365  1.00  0.00    -0.070 NA
HETATM    2  N2  LIG X 999      42.019 127.524  23.993  1.00  0.00    -0.162 NA
HETATM    3  N3  LIG X 999      41.691 128.651  23.625  1.00  0.00     0.068 N 
ENDROOT
BRANCH   1   4
HETATM    4  C5  LIG X 999      42.128 125.232  23.550  1.00  0.00     0.124 A 
HETATM    5  C4  LIG X 999      40.968 124.419  23.677  1.00  0.00     0.007 A 
HETATM    6  C3  LIG X 999      39.889 124.769  24.516  1.00  0.00     0.015 A 
HETATM    7  C10 LIG X 999      40.864 123.232  22.899  1.00  0.00    -0.024 A 
HETATM    8  C2  LIG X 999      38.771 123.937  24.625  1.00  0.00     0.001 A 
HETATM    9  C1  LIG X 999      38.700 122.754  23.890  1.00  0.00     0.001 A 
HETATM   10  C11 LIG X 999      39.736 122.405  23.024  1.00  0.00     0.012 A 
HETATM   11  C9  LIG X 999      41.876 122.898  21.992  1.00  0.00     0.014 A 
HETATM   12  C8  LIG X 999      42.981 123.731  21.831  1.00  0.00     0.026 A 
HETATM   13  C6  LIG X 999      43.108 124.894  22.596  1.00  0.00     0.077 A 
HETATM   14  C7  LIG X 999      44.279 125.719  22.417  1.00  0.00     0.102 C 
HETATM   15  N4  LIG X 999      45.218 126.380  22.275  1.00  0.00    -0.191 NA
ENDBRANCH   1   4
TORSDOF 1
ENDMDL
