REMARK VINA RESULT:      -8.5      1.062      1.945
REMARK  5 active torsions:
REMARK  status: ('A' for Active; 'I' for Inactive)
REMARK    1  A    between atoms: C3_3  and  O1_4 
REMARK    2  A    between atoms: O1_4  and  C4_5 
REMARK    3  A    between atoms: C4_5  and  C5_7 
REMARK    4  A    between atoms: C5_7  and  C6_8 
REMARK    5  A    between atoms: C11_13  and  O3_14 
ROOT
HETATM    1  C1  LIG X 999      48.619 129.293  13.379  1.00  0.00     0.014 C 
HETATM    2  C2  LIG X 999      47.906 130.242  13.592  1.00  0.00    -0.091 C 
HETATM    3  C3  LIG X 999      47.038 131.396  13.850  1.00  0.00     0.271 C 
ENDROOT
BRANCH   3   4
HETATM    4  O1  LIG X 999      45.667 131.016  13.755  1.00  0.00    -0.309 OA
BRANCH   4   5
HETATM    5  C4  LIG X 999      44.916 130.570  14.848  1.00  0.00     0.263 C 
HETATM    6  O2  LIG X 999      44.925 129.354  15.184  1.00  0.00    -0.265 OA
BRANCH   5   7
HETATM    7  C5  LIG X 999      44.053 131.539  15.590  1.00  0.00     0.149 C 
BRANCH   7   8
HETATM    8  C6  LIG X 999      44.307 131.425  17.068  1.00  0.00    -0.048 A 
HETATM    9  C7  LIG X 999      45.506 130.864  17.537  1.00  0.00     0.008 A 
HETATM   10  C8  LIG X 999      45.734 130.725  18.908  1.00  0.00     0.013 A 
HETATM   11  C9  LIG X 999      44.761 131.135  19.832  1.00  0.00    -0.023 A 
HETATM   12  C10 LIG X 999      44.981 130.997  21.211  1.00  0.00     0.049 A 
HETATM   13  C15 LIG X 999      43.545 131.689  19.366  1.00  0.00    -0.025 A 
HETATM   14  C11 LIG X 999      43.998 131.407  22.133  1.00  0.00     0.069 A 
HETATM   15  C13 LIG X 999      42.799 131.952  21.660  1.00  0.00     0.037 A 
HETATM   16  C14 LIG X 999      42.570 132.093  20.289  1.00  0.00     0.015 A 
HETATM   17  C16 LIG X 999      43.324 131.826  17.987  1.00  0.00     0.020 A 
BRANCH  14  18
HETATM   18  O3  LIG X 999      44.172 131.289  23.520  1.00  0.00    -0.356 OA
HETATM   19  C12 LIG X 999      43.616 132.184  24.479  1.00  0.00     0.210 C 
ENDBRANCH  14  18
ENDBRANCH   7   8
ENDBRANCH   5   7
ENDBRANCH   4   5
ENDBRANCH   3   4
TORSDOF 5
