REMARK VINA RESULT:      -7.1      1.689      6.226
REMARK  1 active torsions:
REMARK  status: ('A' for Active; 'I' for Inactive)
REMARK    1  A    between atoms: C11_13  and  N2_14 
ROOT
HETATM    1  N2  LIG X 999      41.895 132.878  20.489  1.00  0.00    -0.053 NA
HETATM    2  N3  LIG X 999      42.006 132.516  21.661  1.00  0.00    -0.160 NA
HETATM    3  N4  LIG X 999      42.118 132.156  22.832  1.00  0.00     0.068 N 
ENDROOT
BRANCH   1   4
HETATM    4  C11 LIG X 999      42.727 132.332  19.465  1.00  0.00     0.175 A 
HETATM    5  C10 LIG X 999      43.943 131.700  19.678  1.00  0.00     0.026 A 
HETATM    6  C5  LIG X 999      44.378 131.346  18.444  1.00  0.00     0.017 A 
HETATM    7  C9  LIG X 999      44.701 131.402  20.810  1.00  0.00     0.016 A 
HETATM    8  C4  LIG X 999      43.470 131.745  17.520  1.00  0.00     0.046 A 
HETATM    9  C6  LIG X 999      45.560 130.687  18.186  1.00  0.00     0.005 A 
HETATM   10  C3  LIG X 999      43.694 131.487  16.089  1.00  0.00     0.033 A 
HETATM   11  N5  LIG X 999      42.433 132.361  18.132  1.00  0.00    -0.337 N 
HETATM   12  C2  LIG X 999      44.827 130.844  15.723  1.00  0.00     0.034 A 
HETATM   13  C1  LIG X 999      45.836 130.400  16.744  1.00  0.00     0.059 A 
HETATM   14  N1  LIG X 999      46.908 129.786  16.352  1.00  0.00    -0.300 NA
HETATM   15  H1  LIG X 999      47.648 129.452  17.006  1.00  0.00     0.187 HD
HETATM   16  H7  LIG X 999      41.589 132.770  17.675  1.00  0.00     0.167 HD
HETATM   17  C7  LIG X 999      46.362 130.364  19.305  1.00  0.00     0.015 A 
HETATM   18  C8  LIG X 999      45.928 130.724  20.611  1.00  0.00     0.002 A 
ENDBRANCH   1   4
TORSDOF 1
