MODEL 1
REMARK VINA RESULT:      -7.4      0.000      0.000
REMARK  3 active torsions:
REMARK  status: ('A' for Active; 'I' for Inactive)
REMARK    1  A    between atoms: C3_3  and  S1_4 
REMARK    2  A    between atoms: S1_4  and  C4_5 
REMARK    3  A    between atoms: C8_9  and  N1_10 
ROOT
HETATM    1  C1  LIG X 999      45.004 127.737  23.186  1.00  0.00     0.013 C 
HETATM    2  C2  LIG X 999      44.286 128.704  23.210  1.00  0.00    -0.107 C 
HETATM    3  C3  LIG X 999      43.409 129.879  23.234  1.00  0.00     0.172 C 
ENDROOT
BRANCH   3   4
HETATM    4  S1  LIG X 999      44.380 131.414  23.055  1.00  0.00    -0.117 SA
BRANCH   4   5
HETATM    5  C4  LIG X 999      44.681 131.209  21.292  1.00  0.00     0.015 A 
HETATM    6  C5  LIG X 999      45.899 130.594  20.882  1.00  0.00     0.020 A 
HETATM    7  C6  LIG X 999      46.211 130.427  19.513  1.00  0.00     0.018 A 
HETATM    8  C7  LIG X 999      45.282 130.883  18.583  1.00  0.00     0.026 A 
HETATM    9  C8  LIG X 999      45.229 130.894  17.198  1.00  0.00     0.175 A 
HETATM   10  C10 LIG X 999      44.122 131.454  18.989  1.00  0.00     0.019 A 
HETATM   11  N4  LIG X 999      44.065 131.459  16.771  1.00  0.00    -0.337 N 
HETATM   12  H6  LIG X 999      43.748 131.601  15.786  1.00  0.00     0.167 HD
HETATM   13  C9  LIG X 999      43.395 131.798  17.895  1.00  0.00     0.046 A 
HETATM   14  C14 LIG X 999      42.077 132.433  18.038  1.00  0.00     0.033 A 
HETATM   15  C13 LIG X 999      41.606 132.656  19.285  1.00  0.00     0.034 A 
HETATM   16  C12 LIG X 999      42.402 132.264  20.500  1.00  0.00     0.060 A 
HETATM   17  C11 LIG X 999      43.750 131.641  20.305  1.00  0.00     0.022 A 
HETATM   18  N5  LIG X 999      41.910 132.443  21.684  1.00  0.00    -0.299 NA
HETATM   19  H7  LIG X 999      40.967 132.868  21.833  1.00  0.00     0.187 HD
BRANCH   9  20
HETATM   20  N1  LIG X 999      46.247 130.383  16.333  1.00  0.00    -0.053 NA
HETATM   21  N2  LIG X 999      46.536 130.953  15.281  1.00  0.00    -0.160 NA
HETATM   22  N3  LIG X 999      46.823 131.522  14.230  1.00  0.00     0.068 N 
ENDBRANCH   9  20
ENDBRANCH   4   5
ENDBRANCH   3   4
TORSDOF 3
ENDMDL
MODEL 2
REMARK VINA RESULT:      -6.0      2.912      5.728
REMARK  3 active torsions:
REMARK  status: ('A' for Active; 'I' for Inactive)
REMARK    1  A    between atoms: C3_3  and  S1_4 
REMARK    2  A    between atoms: S1_4  and  C4_5 
REMARK    3  A    between atoms: C8_9  and  N1_10 
ROOT
HETATM    1  C1  LIG X 999      46.690 129.839  14.570  1.00  0.00     0.013 C 
HETATM    2  C2  LIG X 999      46.367 130.007  15.718  1.00  0.00    -0.107 C 
HETATM    3  C3  LIG X 999      45.974 130.206  17.117  1.00  0.00     0.172 C 
ENDROOT
BRANCH   3   4
HETATM    4  S1  LIG X 999      44.557 131.352  17.233  1.00  0.00    -0.117 SA
BRANCH   4   5
HETATM    5  C4  LIG X 999      44.424 131.260  19.026  1.00  0.00     0.015 A 
HETATM    6  C5  LIG X 999      45.460 130.598  19.747  1.00  0.00     0.020 A 
HETATM    7  C6  LIG X 999      45.404 130.466  21.154  1.00  0.00     0.018 A 
HETATM    8  C7  LIG X 999      44.301 131.010  21.806  1.00  0.00     0.026 A 
HETATM    9  C8  LIG X 999      43.904 131.082  23.132  1.00  0.00     0.175 A 
HETATM   10  C10 LIG X 999      43.331 131.648  21.107  1.00  0.00     0.019 A 
HETATM   11  N4  LIG X 999      42.720 131.749  23.237  1.00  0.00    -0.337 N 
HETATM   12  H6  LIG X 999      42.181 131.958  24.108  1.00  0.00     0.167 HD
HETATM   13  C9  LIG X 999      42.384 132.089  21.973  1.00  0.00     0.046 A 
HETATM   14  C14 LIG X 999      41.209 132.830  21.489  1.00  0.00     0.033 A 
HETATM   15  C13 LIG X 999      41.104 133.067  20.163  1.00  0.00     0.034 A 
HETATM   16  C12 LIG X 999      42.159 132.591  19.201  1.00  0.00     0.060 A 
HETATM   17  C11 LIG X 999      43.326 131.820  19.738  1.00  0.00     0.022 A 
HETATM   18  N5  LIG X 999      42.062 132.871  17.941  1.00  0.00    -0.299 NA
HETATM   19  H7  LIG X 999      41.257 133.416  17.555  1.00  0.00     0.187 HD
BRANCH   9  20
HETATM   20  N1  LIG X 999      44.631 130.541  24.238  1.00  0.00    -0.053 NA
HETATM   21  N2  LIG X 999      44.687 129.327  24.431  1.00  0.00    -0.160 NA
HETATM   22  N3  LIG X 999      44.743 128.114  24.623  1.00  0.00     0.068 N 
ENDBRANCH   9  20
ENDBRANCH   4   5
ENDBRANCH   3   4
TORSDOF 3
ENDMDL
MODEL 3
REMARK VINA RESULT:      -5.6      2.656      6.008
REMARK  3 active torsions:
REMARK  status: ('A' for Active; 'I' for Inactive)
REMARK    1  A    between atoms: C3_3  and  S1_4 
REMARK    2  A    between atoms: S1_4  and  C4_5 
REMARK    3  A    between atoms: C8_9  and  N1_10 
ROOT
HETATM    1  C1  LIG X 999      47.777 131.263  13.036  1.00  0.00     0.013 C 
HETATM    2  C2  LIG X 999      47.194 131.354  14.086  1.00  0.00    -0.107 C 
HETATM    3  C3  LIG X 999      46.489 131.467  15.367  1.00  0.00     0.172 C 
ENDROOT
BRANCH   3   4
HETATM    4  S1  LIG X 999      45.763 129.862  15.848  1.00  0.00    -0.117 SA
BRANCH   4   5
HETATM    5  C4  LIG X 999      45.350 130.370  17.525  1.00  0.00     0.015 A 
HETATM    6  C5  LIG X 999      46.234 129.996  18.580  1.00  0.00     0.020 A 
HETATM    7  C6  LIG X 999      45.955 130.338  19.924  1.00  0.00     0.018 A 
HETATM    8  C7  LIG X 999      44.789 131.055  20.175  1.00  0.00     0.026 A 
HETATM    9  C8  LIG X 999      44.196 131.559  21.322  1.00  0.00     0.175 A 
HETATM   10  C10 LIG X 999      43.966 131.413  19.160  1.00  0.00     0.019 A 
HETATM   11  N4  LIG X 999      43.039 132.209  21.011  1.00  0.00    -0.337 N 
HETATM   12  H6  LIG X 999      42.381 132.689  21.666  1.00  0.00     0.167 HD
HETATM   13  C9  LIG X 999      42.917 132.107  19.669  1.00  0.00     0.046 A 
HETATM   14  C14 LIG X 999      41.863 132.631  18.787  1.00  0.00     0.033 A 
HETATM   15  C13 LIG X 999      41.974 132.413  17.458  1.00  0.00     0.034 A 
HETATM   16  C12 LIG X 999      43.144 131.657  16.888  1.00  0.00     0.060 A 
HETATM   17  C11 LIG X 999      44.180 131.121  17.828  1.00  0.00     0.022 A 
HETATM   18  N5  LIG X 999      43.254 131.502  15.607  1.00  0.00    -0.299 NA
HETATM   19  H7  LIG X 999      42.543 131.878  14.941  1.00  0.00     0.187 HD
BRANCH   9  20
HETATM   20  N1  LIG X 999      44.720 131.424  22.645  1.00  0.00    -0.053 NA
HETATM   21  N2  LIG X 999      44.056 131.746  23.630  1.00  0.00    -0.160 NA
HETATM   22  N3  LIG X 999      43.392 132.068  24.614  1.00  0.00     0.068 N 
ENDBRANCH   9  20
ENDBRANCH   4   5
ENDBRANCH   3   4
TORSDOF 3
ENDMDL
MODEL 4
REMARK VINA RESULT:      -5.5      4.560      6.616
REMARK  3 active torsions:
REMARK  status: ('A' for Active; 'I' for Inactive)
REMARK    1  A    between atoms: C3_3  and  S1_4 
REMARK    2  A    between atoms: S1_4  and  C4_5 
REMARK    3  A    between atoms: C8_9  and  N1_10 
ROOT
HETATM    1  C1  LIG X 999      42.036 123.877  21.115  1.00  0.00     0.013 C 
HETATM    2  C2  LIG X 999      43.092 123.716  21.671  1.00  0.00    -0.107 C 
HETATM    3  C3  LIG X 999      44.378 123.516  22.347  1.00  0.00     0.172 C 
ENDROOT
BRANCH   3   4
HETATM    4  S1  LIG X 999      44.271 124.011  24.101  1.00  0.00    -0.117 SA
BRANCH   4   5
HETATM    5  C4  LIG X 999      44.009 125.759  23.759  1.00  0.00     0.015 A 
HETATM    6  C5  LIG X 999      45.114 126.526  23.286  1.00  0.00     0.020 A 
HETATM    7  C6  LIG X 999      44.985 127.910  23.024  1.00  0.00     0.018 A 
HETATM    8  C7  LIG X 999      43.739 128.491  23.243  1.00  0.00     0.026 A 
HETATM    9  C8  LIG X 999      43.237 129.775  23.102  1.00  0.00     0.175 A 
HETATM   10  C10 LIG X 999      42.697 127.745  23.681  1.00  0.00     0.019 A 
HETATM   11  N4  LIG X 999      41.918 129.809  23.446  1.00  0.00    -0.337 N 
HETATM   12  H6  LIG X 999      41.278 130.635  23.439  1.00  0.00     0.167 HD
HETATM   13  C9  LIG X 999      41.606 128.543  23.800  1.00  0.00     0.046 A 
HETATM   14  C14 LIG X 999      40.318 127.994  24.252  1.00  0.00     0.033 A 
HETATM   15  C13 LIG X 999      40.249 126.674  24.533  1.00  0.00     0.034 A 
HETATM   16  C12 LIG X 999      41.453 125.782  24.387  1.00  0.00     0.060 A 
HETATM   17  C11 LIG X 999      42.749 126.392  23.948  1.00  0.00     0.022 A 
HETATM   18  N5  LIG X 999      41.352 124.512  24.616  1.00  0.00    -0.299 NA
HETATM   19  H7  LIG X 999      40.452 124.074  24.915  1.00  0.00     0.187 HD
BRANCH   9  20
HETATM   20  N1  LIG X 999      43.988 130.907  22.655  1.00  0.00    -0.053 NA
HETATM   21  N2  LIG X 999      43.996 131.240  21.470  1.00  0.00    -0.160 NA
HETATM   22  N3  LIG X 999      44.004 131.572  20.287  1.00  0.00     0.068 N 
ENDBRANCH   9  20
ENDBRANCH   4   5
ENDBRANCH   3   4
TORSDOF 3
ENDMDL
MODEL 5
REMARK VINA RESULT:      -5.2      5.018      7.234
REMARK  3 active torsions:
REMARK  status: ('A' for Active; 'I' for Inactive)
REMARK    1  A    between atoms: C3_3  and  S1_4 
REMARK    2  A    between atoms: S1_4  and  C4_5 
REMARK    3  A    between atoms: C8_9  and  N1_10 
ROOT
HETATM    1  C1  LIG X 999      42.754 131.846  20.593  1.00  0.00     0.013 C 
HETATM    2  C2  LIG X 999      43.437 131.360  21.459  1.00  0.00    -0.107 C 
HETATM    3  C3  LIG X 999      44.271 130.766  22.509  1.00  0.00     0.172 C 
ENDROOT
BRANCH   3   4
HETATM    4  S1  LIG X 999      43.236 130.121  23.868  1.00  0.00    -0.117 SA
BRANCH   4   5
HETATM    5  C4  LIG X 999      43.559 128.387  23.506  1.00  0.00     0.015 A 
HETATM    6  C5  LIG X 999      44.882 128.012  23.129  1.00  0.00     0.020 A 
HETATM    7  C6  LIG X 999      45.198 126.672  22.804  1.00  0.00     0.018 A 
HETATM    8  C7  LIG X 999      44.170 125.736  22.871  1.00  0.00     0.026 A 
HETATM    9  C8  LIG X 999      44.092 124.372  22.638  1.00  0.00     0.175 A 
HETATM   10  C10 LIG X 999      42.921 126.107  23.243  1.00  0.00     0.019 A 
HETATM   11  N4  LIG X 999      42.824 123.923  22.863  1.00  0.00    -0.337 N 
HETATM   12  H6  LIG X 999      42.468 122.946  22.771  1.00  0.00     0.167 HD
HETATM   13  C9  LIG X 999      42.118 125.013  23.237  1.00  0.00     0.046 A 
HETATM   14  C14 LIG X 999      40.699 125.120  23.612  1.00  0.00     0.033 A 
HETATM   15  C13 LIG X 999      40.222 126.332  23.971  1.00  0.00     0.034 A 
HETATM   16  C12 LIG X 999      41.113 127.544  23.994  1.00  0.00     0.060 A 
HETATM   17  C11 LIG X 999      42.545 127.391  23.581  1.00  0.00     0.022 A 
HETATM   18  N5  LIG X 999      40.646 128.686  24.388  1.00  0.00    -0.299 NA
HETATM   19  H7  LIG X 999      39.652 128.804  24.686  1.00  0.00     0.187 HD
BRANCH   9  20
HETATM   20  N1  LIG X 999      45.183 123.545  22.223  1.00  0.00    -0.053 NA
HETATM   21  N2  LIG X 999      46.059 123.201  23.016  1.00  0.00    -0.160 NA
HETATM   22  N3  LIG X 999      46.934 122.857  23.808  1.00  0.00     0.068 N 
ENDBRANCH   9  20
ENDBRANCH   4   5
ENDBRANCH   3   4
TORSDOF 3
ENDMDL
MODEL 6
REMARK VINA RESULT:      -5.0      6.233      8.082
REMARK  3 active torsions:
REMARK  status: ('A' for Active; 'I' for Inactive)
REMARK    1  A    between atoms: C3_3  and  S1_4 
REMARK    2  A    between atoms: S1_4  and  C4_5 
REMARK    3  A    between atoms: C8_9  and  N1_10 
ROOT
HETATM    1  C1  LIG X 999      42.821 131.742  23.587  1.00  0.00     0.013 C 
HETATM    2  C2  LIG X 999      42.959 130.601  23.949  1.00  0.00    -0.107 C 
HETATM    3  C3  LIG X 999      43.131 129.212  24.386  1.00  0.00     0.172 C 
ENDROOT
BRANCH   3   4
HETATM    4  S1  LIG X 999      41.513 128.380  24.546  1.00  0.00    -0.117 SA
BRANCH   4   5
HETATM    5  C4  LIG X 999      42.047 126.843  23.776  1.00  0.00     0.015 A 
HETATM    6  C5  LIG X 999      43.406 126.733  23.361  1.00  0.00     0.020 A 
HETATM    7  C6  LIG X 999      43.884 125.564  22.724  1.00  0.00     0.018 A 
HETATM    8  C7  LIG X 999      42.979 124.526  22.524  1.00  0.00     0.026 A 
HETATM    9  C8  LIG X 999      43.069 123.264  21.957  1.00  0.00     0.175 A 
HETATM   10  C10 LIG X 999      41.694 124.642  22.937  1.00  0.00     0.019 A 
HETATM   11  N4  LIG X 999      41.866 122.627  22.025  1.00  0.00    -0.337 N 
HETATM   12  H6  LIG X 999      41.632 121.668  21.682  1.00  0.00     0.167 HD
HETATM   13  C9  LIG X 999      41.031 123.497  22.634  1.00  0.00     0.046 A 
HETATM   14  C14 LIG X 999      39.610 123.338  22.978  1.00  0.00     0.033 A 
HETATM   15  C13 LIG X 999      38.987 124.356  23.612  1.00  0.00     0.034 A 
HETATM   16  C12 LIG X 999      39.722 125.621  23.962  1.00  0.00     0.060 A 
HETATM   17  C11 LIG X 999      41.162 125.747  23.570  1.00  0.00     0.022 A 
HETATM   18  N5  LIG X 999      39.118 126.564  24.612  1.00  0.00    -0.299 NA
HETATM   19  H7  LIG X 999      38.117 126.486  24.898  1.00  0.00     0.187 HD
BRANCH   9  20
HETATM   20  N1  LIG X 999      44.254 122.703  21.386  1.00  0.00    -0.053 NA
HETATM   21  N2  LIG X 999      45.271 122.539  22.060  1.00  0.00    -0.160 NA
HETATM   22  N3  LIG X 999      46.286 122.375  22.733  1.00  0.00     0.068 N 
ENDBRANCH   9  20
ENDBRANCH   4   5
ENDBRANCH   3   4
TORSDOF 3
ENDMDL
