REMARK VINA RESULT:      -8.0      2.624      6.426
REMARK  5 active torsions:
REMARK  status: ('A' for Active; 'I' for Inactive)
REMARK    1  A    between atoms: N1_1  and  C1_2 
REMARK    2  A    between atoms: C1_2  and  C2_3 
REMARK    3  A    between atoms: C2_3  and  C3_4 
REMARK    4  A    between atoms: C3_4  and  O1_5 
REMARK    5  A    between atoms: O1_5  and  C4_6 
ROOT
HETATM    1  C4  LIG X 999      45.294 131.021  16.963  1.00  0.00     0.069 A 
HETATM    2  C5  LIG X 999      44.008 131.524  16.735  1.00  0.00     0.037 A 
HETATM    3  C6  LIG X 999      43.162 131.835  17.802  1.00  0.00     0.015 A 
HETATM    4  C7  LIG X 999      43.595 131.646  19.122  1.00  0.00    -0.026 A 
HETATM    5  C8  LIG X 999      42.754 131.955  20.203  1.00  0.00     0.012 A 
HETATM    6  C9  LIG X 999      43.197 131.762  21.514  1.00  0.00     0.001 A 
HETATM    7  C10 LIG X 999      44.479 131.259  21.756  1.00  0.00     0.001 A 
HETATM    8  C11 LIG X 999      45.325 130.947  20.689  1.00  0.00     0.012 A 
HETATM    9  C12 LIG X 999      44.893 131.137  19.367  1.00  0.00    -0.023 A 
HETATM   10  C13 LIG X 999      45.735 130.827  18.287  1.00  0.00     0.049 A 
ENDROOT
BRANCH   1  11
HETATM   11  O1  LIG X 999      46.098 130.727  15.852  1.00  0.00    -0.351 OA
BRANCH  11  12
HETATM   12  C3  LIG X 999      46.500 131.681  14.871  1.00  0.00     0.177 C 
BRANCH  12  13
HETATM   13  C2  LIG X 999      46.657 131.001  13.508  1.00  0.00     0.054 C 
BRANCH  13  14
HETATM   14  C1  LIG X 999      47.970 130.213  13.365  1.00  0.00     0.231 C 
BRANCH  14  15
HETATM   15  N1  LIG X 999      47.957 128.970  14.139  1.00  0.00    -0.079 N 
HETATM   16  H1  LIG X 999      47.373 128.246  13.659  1.00  0.00     0.274 HD
HETATM   17  H2  LIG X 999      48.935 128.611  14.222  1.00  0.00     0.274 HD
HETATM   18  H3  LIG X 999      47.589 129.144  15.101  1.00  0.00     0.274 HD
ENDBRANCH  14  15
ENDBRANCH  13  14
ENDBRANCH  12  13
ENDBRANCH  11  12
ENDBRANCH   1  11
TORSDOF 5
