REMARK VINA RESULT:      -8.3      0.000      0.000
REMARK  3 active torsions:
REMARK  status: ('A' for Active; 'I' for Inactive)
REMARK    1  A    between atoms: C2_2  and  C3_3 
REMARK       I    between atoms: C3_3  and  N1_5 
REMARK    2  A    between atoms: N1_5  and  C4_6 
REMARK    3  A    between atoms: C4_6  and  C6_8 
ROOT
HETATM    1  C6  LIG X 999      43.991 131.640  19.153  1.00  0.00    -0.035 A 
HETATM    2  C7  LIG X 999      45.197 130.966  19.417  1.00  0.00     0.010 A 
HETATM    3  C8  LIG X 999      45.990 130.492  18.370  1.00  0.00     0.013 A 
HETATM    4  C9  LIG X 999      45.588 130.678  17.040  1.00  0.00    -0.026 A 
HETATM    5  C10 LIG X 999      46.379 130.206  15.981  1.00  0.00     0.012 A 
HETATM    6  C11 LIG X 999      45.965 130.395  14.659  1.00  0.00     0.001 A 
HETATM    7  C12 LIG X 999      44.765 131.054  14.385  1.00  0.00     0.001 A 
HETATM    8  C13 LIG X 999      43.969 131.529  15.431  1.00  0.00     0.012 A 
HETATM    9  C14 LIG X 999      44.371 131.346  16.763  1.00  0.00    -0.025 A 
HETATM   10  C15 LIG X 999      43.580 131.819  17.821  1.00  0.00     0.021 A 
ENDROOT
BRANCH   1  11
HETATM   11  C4  LIG X 999      43.123 132.140  20.289  1.00  0.00     0.113 C 
HETATM   12  C5  LIG X 999      41.879 132.841  19.735  1.00  0.00     0.037 C 
BRANCH  11  13
HETATM   13  N1  LIG X 999      42.742 131.030  21.170  1.00  0.00    -0.353 N 
HETATM   14  C3  LIG X 999      43.331 130.851  22.466  1.00  0.00     0.217 C 
HETATM   15  O1  LIG X 999      44.174 131.681  22.903  1.00  0.00    -0.274 OA
HETATM   16  H6  LIG X 999      42.019 130.345  20.853  1.00  0.00     0.163 HD
BRANCH  14  17
HETATM   17  C2  LIG X 999      42.914 129.698  23.327  1.00  0.00     0.098 C 
HETATM   18  C1  LIG X 999      44.048 128.688  23.458  1.00  0.00     0.014 C 
ENDBRANCH  14  17
ENDBRANCH  11  13
ENDBRANCH   1  11
TORSDOF 3
