REMARK VINA RESULT:      -8.0      2.624      5.818
REMARK  1 active torsions:
REMARK  status: ('A' for Active; 'I' for Inactive)
REMARK    1  A    between atoms: N1_1  and  C1_2 
ROOT
HETATM    1  C1  LIG X 999      44.114 131.338  19.521  1.00  0.00     0.103 A 
HETATM    2  C2  LIG X 999      43.494 131.764  18.342  1.00  0.00     0.049 A 
HETATM    3  C3  LIG X 999      44.112 131.525  17.110  1.00  0.00     0.001 A 
HETATM    4  C4  LIG X 999      43.519 131.938  15.911  1.00  0.00     0.015 A 
HETATM    5  C5  LIG X 999      44.153 131.690  14.693  1.00  0.00     0.013 A 
HETATM    6  C6  LIG X 999      45.388 131.026  14.658  1.00  0.00    -0.023 A 
HETATM    7  C7  LIG X 999      46.024 130.778  13.431  1.00  0.00     0.012 A 
HETATM    8  C8  LIG X 999      47.255 130.118  13.397  1.00  0.00     0.001 A 
HETATM    9  C9  LIG X 999      47.859 129.700  14.585  1.00  0.00     0.001 A 
HETATM   10  C10 LIG X 999      47.239 129.939  15.813  1.00  0.00     0.015 A 
HETATM   11  C11 LIG X 999      46.000 130.603  15.866  1.00  0.00     0.009 A 
HETATM   12  C12 LIG X 999      45.356 130.856  17.095  1.00  0.00     0.101 A 
HETATM   13  O1  LIG X 999      45.912 130.468  18.242  1.00  0.00    -0.272 OA
HETATM   14  C13 LIG X 999      45.351 130.679  19.428  1.00  0.00     0.314 A 
HETATM   15  O2  LIG X 999      45.941 130.281  20.467  1.00  0.00    -0.257 OA
ENDROOT
BRANCH   1  16
HETATM   16  N1  LIG X 999      43.489 131.577  20.787  1.00  0.00    -0.394 N 
HETATM   17  H1  LIG X 999      43.695 132.441  21.338  1.00  0.00     0.156 HD
HETATM   18  H2  LIG X 999      42.813 130.889  21.187  1.00  0.00     0.156 HD
ENDBRANCH   1  16
TORSDOF 1
