REMARK VINA RESULT:      -4.1      3.623      5.022
REMARK  3 active torsions:
REMARK  status: ('A' for Active; 'I' for Inactive)
REMARK    1  A    between atoms: C3_3  and  O1_4 
REMARK    2  A    between atoms: O1_4  and  C4_5 
REMARK    3  A    between atoms: C13_14  and  C14_15 
ROOT
HETATM    1  C1  LIG X 999      43.297 132.046  19.807  1.00  0.00     0.014 C 
HETATM    2  C2  LIG X 999      44.190 131.437  20.338  1.00  0.00    -0.091 C 
HETATM    3  C3  LIG X 999      45.275 130.696  20.983  1.00  0.00     0.268 C 
ENDROOT
BRANCH   3   4
HETATM    4  O1  LIG X 999      44.831 130.230  22.253  1.00  0.00    -0.339 OA
BRANCH   4   5
HETATM    5  C4  LIG X 999      44.532 128.890  22.561  1.00  0.00     0.084 A 
HETATM    6  C5  LIG X 999      45.373 127.846  22.138  1.00  0.00     0.039 A 
HETATM    7  C6  LIG X 999      45.057 126.521  22.415  1.00  0.00     0.015 A 
HETATM    8  C7  LIG X 999      43.902 126.204  23.135  1.00  0.00    -0.025 A 
HETATM    9  C8  LIG X 999      43.605 124.860  23.414  1.00  0.00     0.012 A 
HETATM   10  C12 LIG X 999      43.039 127.236  23.589  1.00  0.00    -0.010 A 
HETATM   11  C9  LIG X 999      42.470 124.527  24.151  1.00  0.00     0.001 A 
HETATM   12  C10 LIG X 999      41.627 125.531  24.625  1.00  0.00     0.001 A 
HETATM   13  C11 LIG X 999      41.906 126.872  24.355  1.00  0.00     0.013 A 
HETATM   14  C13 LIG X 999      43.354 128.593  23.289  1.00  0.00     0.046 A 
BRANCH  14  15
HETATM   15  C14 LIG X 999      42.451 129.702  23.695  1.00  0.00     0.273 C 
HETATM   16  O2  LIG X 999      42.818 130.568  24.533  1.00  0.00    -0.301 OA
ENDBRANCH  14  15
ENDBRANCH   4   5
ENDBRANCH   3   4
TORSDOF 3
