REMARK VINA RESULT:      -5.2      3.426      6.205
REMARK  1 active torsions:
REMARK  status: ('A' for Active; 'I' for Inactive)
REMARK    1  A    between atoms: N1_2  and  C1_3 
ROOT
HETATM    1  C1  LIG X 999      46.686 130.729  14.229  1.00  0.00     0.143 C 
HETATM    2  N2  LIG X 999      46.984 130.497  15.529  1.00  0.00    -0.229 NA
HETATM    3  C2  LIG X 999      46.081 130.683  16.525  1.00  0.00     0.070 C 
HETATM    4  C3  LIG X 999      46.453 130.352  17.828  1.00  0.00     0.033 C 
HETATM    5  C4  LIG X 999      45.563 130.515  18.880  1.00  0.00     0.014 C 
HETATM    6  C5  LIG X 999      44.320 131.118  18.665  1.00  0.00    -0.025 C 
HETATM    7  C6  LIG X 999      43.482 131.370  19.763  1.00  0.00     0.012 C 
HETATM    8  C7  LIG X 999      42.300 132.086  19.596  1.00  0.00     0.001 C 
HETATM    9  C8  LIG X 999      41.966 132.592  18.343  1.00  0.00     0.001 C 
HETATM   10  C9  LIG X 999      42.783 132.337  17.239  1.00  0.00     0.013 C 
HETATM   11  C10 LIG X 999      43.934 131.523  17.353  1.00  0.00    -0.013 C 
HETATM   12  C11 LIG X 999      44.777 131.181  16.241  1.00  0.00     0.010 C 
HETATM   13  C12 LIG X 999      44.407 131.263  14.860  1.00  0.00    -0.045 C 
HETATM   14  C13 LIG X 999      42.984 131.364  14.363  1.00  0.00     0.049 C 
HETATM   15  C14 LIG X 999      45.393 131.102  13.873  1.00  0.00     0.059 C 
ENDROOT
BRANCH   1  16
HETATM   16  N1  LIG X 999      47.587 130.564  13.315  1.00  0.00    -0.282 NA
HETATM   17  H1  LIG X 999      47.481 129.841  12.567  1.00  0.00     0.188 HD
ENDBRANCH   1  16
TORSDOF 1
