REMARK VINA RESULT:      -1.1      3.277      4.201
REMARK  2 active torsions:
REMARK  status: ('A' for Active; 'I' for Inactive)
REMARK    1  A    between atoms: C4_4  and  O1_5 
REMARK    2  A    between atoms: C10_11  and  N1_12 
ROOT
HETATM    1  N1  LIG X 999      45.686 128.309  20.667  1.00  0.00    -0.072 NA
HETATM    2  N2  LIG X 999      45.788 129.413  20.131  1.00  0.00    -0.162 NA
HETATM    3  N3  LIG X 999      45.888 130.516  19.595  1.00  0.00     0.068 N 
ENDROOT
BRANCH   1   4
HETATM    4  C10 LIG X 999      45.204 128.150  22.010  1.00  0.00     0.101 C 
HETATM    5  C9  LIG X 999      45.597 126.994  22.720  1.00  0.00     0.007 C 
HETATM    6  C8  LIG X 999      44.923 126.372  23.762  1.00  0.00    -0.022 C 
HETATM    7  C12 LIG X 999      46.891 126.298  22.510  1.00  0.00     0.278 C 
HETATM    8  C7  LIG X 999      43.586 126.566  24.133  1.00  0.00     0.012 C 
HETATM    9  C15 LIG X 999      45.838 125.440  24.467  1.00  0.00     0.276 C 
HETATM   10  C6  LIG X 999      42.597 126.908  23.204  1.00  0.00     0.037 C 
HETATM   11  C4  LIG X 999      41.595 127.865  23.459  1.00  0.00     0.068 C 
HETATM   12  C3  LIG X 999      41.801 128.985  24.290  1.00  0.00     0.037 C 
HETATM   13  C2  LIG X 999      43.045 129.557  24.625  1.00  0.00     0.003 C 
HETATM   14  C1  LIG X 999      44.243 129.355  23.928  1.00  0.00     0.002 C 
HETATM   15  C11 LIG X 999      44.302 129.085  22.555  1.00  0.00     0.035 C 
HETATM   16  N4  LIG X 999      47.151 125.533  23.763  1.00  0.00    -0.067 N 
HETATM   17  C13 LIG X 999      47.685 124.187  23.454  1.00  0.00     0.272 C 
HETATM   18  C14 LIG X 999      48.130 126.260  24.607  1.00  0.00     0.272 C 
BRANCH  11  19
HETATM   19  O1  LIG X 999      40.335 127.759  22.850  1.00  0.00    -0.356 OA
HETATM   20  C5  LIG X 999      39.151 127.331  23.516  1.00  0.00     0.210 C 
ENDBRANCH  11  19
ENDBRANCH   1   4
TORSDOF 2
