REMARK VINA RESULT:      -2.8      5.415      7.897
REMARK  5 active torsions:
REMARK  status: ('A' for Active; 'I' for Inactive)
REMARK    1  A    between atoms: C3_3  and  N1_4 
REMARK    2  A    between atoms: N1_4  and  C6_7 
REMARK    3  A    between atoms: C6_7  and  C7_8 
REMARK    4  A    between atoms: C9_10  and  C10_11 
REMARK    5  A    between atoms: C11_14  and  N4_15 
ROOT
HETATM    1  C1  LIG X 999      47.115 131.318  13.880  1.00  0.00     0.013 C 
HETATM    2  C2  LIG X 999      46.518 131.673  14.865  1.00  0.00    -0.089 C 
HETATM    3  C3  LIG X 999      45.786 132.108  16.073  1.00  0.00     0.329 C 
ENDROOT
BRANCH   3   4
HETATM    4  N1  LIG X 999      44.533 131.331  16.327  1.00  0.00    -0.061 N 
HETATM    5  C4  LIG X 999      43.626 131.443  15.155  1.00  0.00     0.273 C 
HETATM    6  C5  LIG X 999      44.922 129.907  16.491  1.00  0.00     0.273 C 
BRANCH   4   7
HETATM    7  C6  LIG X 999      43.873 131.836  17.574  1.00  0.00     0.275 C 
BRANCH   7   8
HETATM    8  C7  LIG X 999      44.613 131.504  18.856  1.00  0.00    -0.035 C 
HETATM    9  C8  LIG X 999      44.198 132.002  20.037  1.00  0.00     0.001 C 
HETATM   10  C9  LIG X 999      45.002 131.771  21.308  1.00  0.00     0.054 C 
HETATM   11  C12 LIG X 999      44.106 131.923  22.564  1.00  0.00     0.023 C 
HETATM   12  C16 LIG X 999      45.648 130.344  21.260  1.00  0.00     0.028 C 
HETATM   13  C13 LIG X 999      43.084 130.791  22.701  1.00  0.00     0.002 C 
HETATM   14  C14 LIG X 999      43.785 129.433  22.732  1.00  0.00     0.001 C 
HETATM   15  C15 LIG X 999      44.605 129.221  21.458  1.00  0.00     0.010 C 
HETATM   16  C17 LIG X 999      46.338 130.131  19.932  1.00  0.00    -0.020 C 
HETATM   17  C18 LIG X 999      45.819 130.642  18.809  1.00  0.00     0.005 C 
BRANCH  10  18
HETATM   18  C10 LIG X 999      46.075 132.838  21.377  1.00  0.00     0.184 A 
HETATM   19  N2  LIG X 999      46.119 133.922  20.571  1.00  0.00    -0.124 NA
HETATM   20  N3  LIG X 999      47.174 134.629  20.946  1.00  0.00    -0.099 NA
HETATM   21  C11 LIG X 999      47.726 133.951  21.967  1.00  0.00     0.326 A 
HETATM   22  O1  LIG X 999      47.061 132.856  22.243  1.00  0.00    -0.255 OA
BRANCH  21  23
HETATM   23  N4  LIG X 999      48.895 134.383  22.660  1.00  0.00    -0.023 NA
HETATM   24  N5  LIG X 999      49.544 135.348  22.258  1.00  0.00    -0.158 NA
HETATM   25  N6  LIG X 999      50.195 136.312  21.856  1.00  0.00     0.068 N 
ENDBRANCH  21  23
ENDBRANCH  10  18
ENDBRANCH   7   8
ENDBRANCH   4   7
ENDBRANCH   3   4
TORSDOF 5
