REMARK VINA RESULT:      -5.3      8.339      9.132
REMARK  1 active torsions:
REMARK  status: ('A' for Active; 'I' for Inactive)
REMARK    1  A    between atoms: C4_4  and  N1_5 
ROOT
HETATM    1  C1  LIG X 999      48.003 134.579  22.378  1.00  0.00     0.049 C 
HETATM    2  C2  LIG X 999      49.478 134.705  22.668  1.00  0.00    -0.045 C 
HETATM    3  C3  LIG X 999      50.066 133.629  23.353  1.00  0.00     0.057 C 
HETATM    4  C4  LIG X 999      51.338 133.757  23.904  1.00  0.00     0.122 C 
HETATM    5  N2  LIG X 999      51.996 134.936  23.803  1.00  0.00    -0.231 NA
HETATM    6  C5  LIG X 999      51.494 135.991  23.112  1.00  0.00     0.070 C 
HETATM    7  C6  LIG X 999      52.209 137.188  23.120  1.00  0.00     0.033 C 
HETATM    8  C7  LIG X 999      51.735 138.298  22.435  1.00  0.00     0.014 C 
HETATM    9  C8  LIG X 999      50.589 138.200  21.641  1.00  0.00    -0.025 C 
HETATM   10  C9  LIG X 999      50.189 139.309  20.875  1.00  0.00     0.012 C 
HETATM   11  C10 LIG X 999      49.132 139.198  19.976  1.00  0.00     0.001 C 
HETATM   12  C11 LIG X 999      48.494 137.973  19.803  1.00  0.00     0.001 C 
HETATM   13  C12 LIG X 999      48.870 136.867  20.568  1.00  0.00     0.013 C 
HETATM   14  C13 LIG X 999      49.868 136.972  21.566  1.00  0.00    -0.013 C 
HETATM   15  C14 LIG X 999      50.254 135.884  22.420  1.00  0.00     0.010 C 
ENDROOT
BRANCH   4  16
HETATM   16  N1  LIG X 999      51.929 132.675  24.625  1.00  0.00    -0.384 N 
HETATM   17  H5  LIG X 999      51.663 132.480  25.616  1.00  0.00     0.157 HD
HETATM   18  H6  LIG X 999      52.637 132.060  24.165  1.00  0.00     0.157 HD
ENDBRANCH   4  16
TORSDOF 1
