MODEL 1
REMARK VINA RESULT:      -8.9      0.000      0.000
REMARK  4 active torsions:
REMARK  status: ('A' for Active; 'I' for Inactive)
REMARK    1  A    between atoms: O1_2  and  C1_3 
REMARK    2  A    between atoms: C1_3  and  N1_6 
REMARK    3  A    between atoms: N1_6  and  C4_8 
REMARK    4  A    between atoms: C4_8  and  C5_9 
ROOT
HETATM    1  C5  LIG X 999      44.695 131.095  16.452  1.00  0.00    -0.035 A 
HETATM    2  C6  LIG X 999      45.737 130.650  17.284  1.00  0.00     0.010 A 
HETATM    3  C7  LIG X 999      45.629 130.747  18.673  1.00  0.00     0.013 A 
HETATM    4  C8  LIG X 999      44.480 131.300  19.254  1.00  0.00    -0.026 A 
HETATM    5  C9  LIG X 999      44.361 131.400  20.649  1.00  0.00     0.012 A 
HETATM    6  C10 LIG X 999      43.211 131.957  21.216  1.00  0.00     0.001 A 
HETATM    7  C11 LIG X 999      42.175 132.417  20.399  1.00  0.00     0.001 A 
HETATM    8  C12 LIG X 999      42.282 132.322  19.008  1.00  0.00     0.012 A 
HETATM    9  C13 LIG X 999      43.430 131.764  18.425  1.00  0.00    -0.025 A 
HETATM   10  C14 LIG X 999      43.548 131.664  17.031  1.00  0.00     0.021 A 
ENDROOT
BRANCH   1  11
HETATM   11  C4  LIG X 999      44.820 131.011  14.944  1.00  0.00     0.113 C 
HETATM   12  C15 LIG X 999      43.560 131.581  14.285  1.00  0.00     0.037 C 
BRANCH  11  13
HETATM   13  N1  LIG X 999      46.014 131.730  14.482  1.00  0.00    -0.363 N 
HETATM   14  H6  LIG X 999      46.074 132.760  14.656  1.00  0.00     0.162 HD
BRANCH  13  15
HETATM   15  C1  LIG X 999      47.122 131.082  13.826  1.00  0.00     0.131 C 
HETATM   16  C2  LIG X 999      47.454 129.832  14.169  1.00  0.00     0.024 C 
HETATM   17  C3  LIG X 999      48.592 129.108  13.522  1.00  0.00     0.040 C 
BRANCH  15  18
HETATM   18  O1  LIG X 999      47.858 131.736  12.833  1.00  0.00    -0.347 OA
HETATM   19  H1  LIG X 999      47.755 131.535  11.848  1.00  0.00     0.219 HD
ENDBRANCH  15  18
ENDBRANCH  13  15
ENDBRANCH  11  13
ENDBRANCH   1  11
TORSDOF 4
ENDMDL
MODEL 2
REMARK VINA RESULT:      -8.8      1.494      2.409
REMARK  4 active torsions:
REMARK  status: ('A' for Active; 'I' for Inactive)
REMARK    1  A    between atoms: O1_2  and  C1_3 
REMARK    2  A    between atoms: C1_3  and  N1_6 
REMARK    3  A    between atoms: N1_6  and  C4_8 
REMARK    4  A    between atoms: C4_8  and  C5_9 
ROOT
HETATM    1  C5  LIG X 999      44.142 131.614  17.269  1.00  0.00    -0.035 A 
HETATM    2  C6  LIG X 999      42.786 131.898  17.508  1.00  0.00     0.010 A 
HETATM    3  C7  LIG X 999      42.292 131.959  18.814  1.00  0.00     0.013 A 
HETATM    4  C8  LIG X 999      43.144 131.728  19.902  1.00  0.00    -0.026 A 
HETATM    5  C9  LIG X 999      42.657 131.788  21.217  1.00  0.00     0.012 A 
HETATM    6  C10 LIG X 999      43.516 131.551  22.294  1.00  0.00     0.001 A 
HETATM    7  C11 LIG X 999      44.862 131.253  22.068  1.00  0.00     0.001 A 
HETATM    8  C12 LIG X 999      45.359 131.190  20.762  1.00  0.00     0.012 A 
HETATM    9  C13 LIG X 999      44.508 131.426  19.672  1.00  0.00    -0.025 A 
HETATM   10  C14 LIG X 999      44.995 131.366  18.358  1.00  0.00     0.021 A 
ENDROOT
BRANCH   1  11
HETATM   11  C4  LIG X 999      44.675 131.526  15.854  1.00  0.00     0.113 C 
HETATM   12  C15 LIG X 999      45.828 132.518  15.670  1.00  0.00     0.037 C 
BRANCH  11  13
HETATM   13  N1  LIG X 999      45.117 130.159  15.551  1.00  0.00    -0.363 N 
HETATM   14  H6  LIG X 999      44.400 129.398  15.518  1.00  0.00     0.162 HD
BRANCH  13  15
HETATM   15  C1  LIG X 999      46.489 129.817  15.267  1.00  0.00     0.131 C 
HETATM   16  C2  LIG X 999      46.920 129.813  14.000  1.00  0.00     0.024 C 
HETATM   17  C3  LIG X 999      48.331 129.469  13.644  1.00  0.00     0.040 C 
BRANCH  15  18
HETATM   18  O1  LIG X 999      47.380 129.488  16.292  1.00  0.00    -0.347 OA
HETATM   19  H1  LIG X 999      47.171 129.633  17.270  1.00  0.00     0.219 HD
ENDBRANCH  15  18
ENDBRANCH  13  15
ENDBRANCH  11  13
ENDBRANCH   1  11
TORSDOF 4
ENDMDL
MODEL 3
REMARK VINA RESULT:      -8.4      2.964      6.825
REMARK  4 active torsions:
REMARK  status: ('A' for Active; 'I' for Inactive)
REMARK    1  A    between atoms: O1_2  and  C1_3 
REMARK    2  A    between atoms: C1_3  and  N1_6 
REMARK    3  A    between atoms: N1_6  and  C4_8 
REMARK    4  A    between atoms: C4_8  and  C5_9 
ROOT
HETATM    1  C5  LIG X 999      45.443 130.929  17.541  1.00  0.00    -0.035 A 
HETATM    2  C6  LIG X 999      45.218 132.141  16.866  1.00  0.00     0.010 A 
HETATM    3  C7  LIG X 999      45.727 132.344  15.581  1.00  0.00     0.013 A 
HETATM    4  C8  LIG X 999      46.478 131.342  14.953  1.00  0.00    -0.026 A 
HETATM    5  C9  LIG X 999      46.992 131.535  13.661  1.00  0.00     0.012 A 
HETATM    6  C10 LIG X 999      47.743 130.528  13.048  1.00  0.00     0.001 A 
HETATM    7  C11 LIG X 999      47.986 129.326  13.715  1.00  0.00     0.001 A 
HETATM    8  C12 LIG X 999      47.479 129.121  15.002  1.00  0.00     0.012 A 
HETATM    9  C13 LIG X 999      46.723 130.122  15.630  1.00  0.00    -0.025 A 
HETATM   10  C14 LIG X 999      46.209 129.928  16.920  1.00  0.00     0.021 A 
ENDROOT
BRANCH   1  11
HETATM   11  C4  LIG X 999      44.911 130.716  18.944  1.00  0.00     0.113 C 
HETATM   12  C15 LIG X 999      46.073 130.444  19.905  1.00  0.00     0.037 C 
BRANCH  11  13
HETATM   13  N1  LIG X 999      44.137 131.882  19.388  1.00  0.00    -0.363 N 
HETATM   14  H6  LIG X 999      44.186 132.758  18.819  1.00  0.00     0.162 HD
BRANCH  13  15
HETATM   15  C1  LIG X 999      43.288 131.870  20.553  1.00  0.00     0.131 C 
HETATM   16  C2  LIG X 999      43.714 131.275  21.673  1.00  0.00     0.024 C 
HETATM   17  C3  LIG X 999      42.880 131.233  22.914  1.00  0.00     0.040 C 
BRANCH  15  18
HETATM   18  O1  LIG X 999      42.026 132.471  20.536  1.00  0.00    -0.347 OA
HETATM   19  H1  LIG X 999      41.457 132.532  19.703  1.00  0.00     0.219 HD
ENDBRANCH  15  18
ENDBRANCH  13  15
ENDBRANCH  11  13
ENDBRANCH   1  11
TORSDOF 4
ENDMDL
MODEL 4
REMARK VINA RESULT:      -8.3      1.453      2.647
REMARK  4 active torsions:
REMARK  status: ('A' for Active; 'I' for Inactive)
REMARK    1  A    between atoms: O1_2  and  C1_3 
REMARK    2  A    between atoms: C1_3  and  N1_6 
REMARK    3  A    between atoms: N1_6  and  C4_8 
REMARK    4  A    between atoms: C4_8  and  C5_9 
ROOT
HETATM    1  C5  LIG X 999      44.979 131.221  18.264  1.00  0.00    -0.035 A 
HETATM    2  C6  LIG X 999      43.695 131.735  18.008  1.00  0.00     0.010 A 
HETATM    3  C7  LIG X 999      42.822 132.023  19.060  1.00  0.00     0.013 A 
HETATM    4  C8  LIG X 999      43.214 131.791  20.386  1.00  0.00    -0.026 A 
HETATM    5  C9  LIG X 999      42.345 132.078  21.449  1.00  0.00     0.012 A 
HETATM    6  C10 LIG X 999      42.746 131.839  22.766  1.00  0.00     0.001 A 
HETATM    7  C11 LIG X 999      44.013 131.313  23.032  1.00  0.00     0.001 A 
HETATM    8  C12 LIG X 999      44.888 131.023  21.980  1.00  0.00     0.012 A 
HETATM    9  C13 LIG X 999      44.499 131.260  20.653  1.00  0.00    -0.025 A 
HETATM   10  C14 LIG X 999      45.368 130.973  19.591  1.00  0.00     0.021 A 
ENDROOT
BRANCH   1  11
HETATM   11  C4  LIG X 999      45.918 130.888  17.123  1.00  0.00     0.113 C 
HETATM   12  C15 LIG X 999      45.684 129.446  16.661  1.00  0.00     0.037 C 
BRANCH  11  13
HETATM   13  N1  LIG X 999      45.732 131.824  16.007  1.00  0.00    -0.363 N 
HETATM   14  H6  LIG X 999      45.462 132.811  16.224  1.00  0.00     0.162 HD
BRANCH  13  15
HETATM   15  C1  LIG X 999      45.930 131.458  14.627  1.00  0.00     0.131 C 
HETATM   16  C2  LIG X 999      47.172 131.390  14.134  1.00  0.00     0.024 C 
HETATM   17  C3  LIG X 999      47.440 131.014  12.711  1.00  0.00     0.040 C 
BRANCH  15  18
HETATM   18  O1  LIG X 999      44.847 131.171  13.791  1.00  0.00    -0.347 OA
HETATM   19  H1  LIG X 999      44.891 130.488  13.048  1.00  0.00     0.219 HD
ENDBRANCH  15  18
ENDBRANCH  13  15
ENDBRANCH  11  13
ENDBRANCH   1  11
TORSDOF 4
ENDMDL
MODEL 5
REMARK VINA RESULT:      -8.3      3.337      6.674
REMARK  4 active torsions:
REMARK  status: ('A' for Active; 'I' for Inactive)
REMARK    1  A    between atoms: O1_2  and  C1_3 
REMARK    2  A    between atoms: C1_3  and  N1_6 
REMARK    3  A    between atoms: N1_6  and  C4_8 
REMARK    4  A    between atoms: C4_8  and  C5_9 
ROOT
HETATM    1  C5  LIG X 999      44.139 131.550  18.837  1.00  0.00    -0.035 A 
HETATM    2  C6  LIG X 999      45.304 130.822  19.135  1.00  0.00     0.010 A 
HETATM    3  C7  LIG X 999      46.114 130.326  18.111  1.00  0.00     0.013 A 
HETATM    4  C8  LIG X 999      45.767 130.539  16.770  1.00  0.00    -0.026 A 
HETATM    5  C9  LIG X 999      46.575 130.045  15.735  1.00  0.00     0.012 A 
HETATM    6  C10 LIG X 999      46.215 130.261  14.401  1.00  0.00     0.001 A 
HETATM    7  C11 LIG X 999      45.051 130.969  14.093  1.00  0.00     0.001 A 
HETATM    8  C12 LIG X 999      44.238 131.466  15.116  1.00  0.00     0.012 A 
HETATM    9  C13 LIG X 999      44.587 131.258  16.459  1.00  0.00    -0.025 A 
HETATM   10  C14 LIG X 999      43.780 131.752  17.493  1.00  0.00     0.021 A 
ENDROOT
BRANCH   1  11
HETATM   11  C4  LIG X 999      43.248 132.070  19.946  1.00  0.00     0.113 C 
HETATM   12  C15 LIG X 999      41.913 132.545  19.361  1.00  0.00     0.037 C 
BRANCH  11  13
HETATM   13  N1  LIG X 999      43.026 131.034  20.962  1.00  0.00    -0.363 N 
HETATM   14  H6  LIG X 999      42.529 130.158  20.680  1.00  0.00     0.162 HD
BRANCH  13  15
HETATM   15  C1  LIG X 999      43.484 131.152  22.324  1.00  0.00     0.131 C 
HETATM   16  C2  LIG X 999      42.777 131.875  23.199  1.00  0.00     0.024 C 
HETATM   17  C3  LIG X 999      43.201 132.032  24.625  1.00  0.00     0.040 C 
BRANCH  15  18
HETATM   18  O1  LIG X 999      44.658 130.521  22.750  1.00  0.00    -0.347 OA
HETATM   19  H1  LIG X 999      44.900 130.409  23.724  1.00  0.00     0.219 HD
ENDBRANCH  15  18
ENDBRANCH  13  15
ENDBRANCH  11  13
ENDBRANCH   1  11
TORSDOF 4
ENDMDL
MODEL 6
REMARK VINA RESULT:      -8.2      1.427      1.913
REMARK  4 active torsions:
REMARK  status: ('A' for Active; 'I' for Inactive)
REMARK    1  A    between atoms: O1_2  and  C1_3 
REMARK    2  A    between atoms: C1_3  and  N1_6 
REMARK    3  A    between atoms: N1_6  and  C4_8 
REMARK    4  A    between atoms: C4_8  and  C5_9 
ROOT
HETATM    1  C5  LIG X 999      44.715 131.019  18.168  1.00  0.00    -0.035 A 
HETATM    2  C6  LIG X 999      45.824 130.544  18.889  1.00  0.00     0.010 A 
HETATM    3  C7  LIG X 999      45.833 130.578  20.286  1.00  0.00     0.013 A 
HETATM    4  C8  LIG X 999      44.736 131.099  20.986  1.00  0.00    -0.026 A 
HETATM    5  C9  LIG X 999      44.734 131.136  22.388  1.00  0.00     0.012 A 
HETATM    6  C10 LIG X 999      43.635 131.662  23.074  1.00  0.00     0.001 A 
HETATM    7  C11 LIG X 999      42.534 132.152  22.368  1.00  0.00     0.001 A 
HETATM    8  C12 LIG X 999      42.523 132.120  20.970  1.00  0.00     0.012 A 
HETATM    9  C13 LIG X 999      43.619 131.594  20.269  1.00  0.00    -0.025 A 
HETATM   10  C14 LIG X 999      43.620 131.556  18.867  1.00  0.00     0.021 A 
ENDROOT
BRANCH   1  11
HETATM   11  C4  LIG X 999      44.713 131.003  16.654  1.00  0.00     0.113 C 
HETATM   12  C15 LIG X 999      43.510 131.791  16.127  1.00  0.00     0.037 C 
BRANCH  11  13
HETATM   13  N1  LIG X 999      45.965 131.561  16.127  1.00  0.00    -0.363 N 
HETATM   14  H6  LIG X 999      46.290 132.486  16.491  1.00  0.00     0.162 HD
BRANCH  13  15
HETATM   15  C1  LIG X 999      46.785 130.883  15.154  1.00  0.00     0.131 C 
HETATM   16  C2  LIG X 999      46.976 131.437  13.952  1.00  0.00     0.024 C 
HETATM   17  C3  LIG X 999      47.818 130.782  12.902  1.00  0.00     0.040 C 
BRANCH  15  18
HETATM   18  O1  LIG X 999      47.387 129.655  15.444  1.00  0.00    -0.347 OA
HETATM   19  H1  LIG X 999      46.861 128.804  15.588  1.00  0.00     0.219 HD
ENDBRANCH  15  18
ENDBRANCH  13  15
ENDBRANCH  11  13
ENDBRANCH   1  11
TORSDOF 4
ENDMDL
MODEL 7
REMARK VINA RESULT:      -8.0      3.549      6.946
REMARK  4 active torsions:
REMARK  status: ('A' for Active; 'I' for Inactive)
REMARK    1  A    between atoms: O1_2  and  C1_3 
REMARK    2  A    between atoms: C1_3  and  N1_6 
REMARK    3  A    between atoms: N1_6  and  C4_8 
REMARK    4  A    between atoms: C4_8  and  C5_9 
ROOT
HETATM    1  C5  LIG X 999      44.766 131.112  18.782  1.00  0.00    -0.035 A 
HETATM    2  C6  LIG X 999      43.691 131.719  18.109  1.00  0.00     0.010 A 
HETATM    3  C7  LIG X 999      43.666 131.773  16.714  1.00  0.00     0.013 A 
HETATM    4  C8  LIG X 999      44.720 131.231  15.967  1.00  0.00    -0.026 A 
HETATM    5  C9  LIG X 999      44.704 131.280  14.564  1.00  0.00     0.012 A 
HETATM    6  C10 LIG X 999      45.764 130.739  13.832  1.00  0.00     0.001 A 
HETATM    7  C11 LIG X 999      46.845 130.148  14.490  1.00  0.00     0.001 A 
HETATM    8  C12 LIG X 999      46.873 130.093  15.887  1.00  0.00     0.012 A 
HETATM    9  C13 LIG X 999      45.815 130.631  16.635  1.00  0.00    -0.025 A 
HETATM   10  C14 LIG X 999      45.832 130.581  18.037  1.00  0.00     0.021 A 
ENDROOT
BRANCH   1  11
HETATM   11  C4  LIG X 999      44.805 131.071  20.296  1.00  0.00     0.113 C 
HETATM   12  C15 LIG X 999      45.926 131.979  20.811  1.00  0.00     0.037 C 
BRANCH  11  13
HETATM   13  N1  LIG X 999      43.512 131.478  20.860  1.00  0.00    -0.363 N 
HETATM   14  H6  LIG X 999      42.873 132.061  20.272  1.00  0.00     0.162 HD
BRANCH  13  15
HETATM   15  C1  LIG X 999      43.065 131.089  22.174  1.00  0.00     0.131 C 
HETATM   16  C2  LIG X 999      43.485 129.932  22.699  1.00  0.00     0.024 C 
HETATM   17  C3  LIG X 999      43.058 129.476  24.058  1.00  0.00     0.040 C 
BRANCH  15  18
HETATM   18  O1  LIG X 999      42.198 131.900  22.914  1.00  0.00    -0.347 OA
HETATM   19  H1  LIG X 999      42.486 132.772  23.334  1.00  0.00     0.219 HD
ENDBRANCH  15  18
ENDBRANCH  13  15
ENDBRANCH  11  13
ENDBRANCH   1  11
TORSDOF 4
ENDMDL
MODEL 8
REMARK VINA RESULT:      -7.9      2.776      6.404
REMARK  4 active torsions:
REMARK  status: ('A' for Active; 'I' for Inactive)
REMARK    1  A    between atoms: O1_2  and  C1_3 
REMARK    2  A    between atoms: C1_3  and  N1_6 
REMARK    3  A    between atoms: N1_6  and  C4_8 
REMARK    4  A    between atoms: C4_8  and  C5_9 
ROOT
HETATM    1  C5  LIG X 999      45.194 131.428  17.366  1.00  0.00    -0.035 A 
HETATM    2  C6  LIG X 999      45.502 130.076  17.597  1.00  0.00     0.010 A 
HETATM    3  C7  LIG X 999      46.248 129.348  16.667  1.00  0.00     0.013 A 
HETATM    4  C8  LIG X 999      46.690 129.956  15.485  1.00  0.00    -0.026 A 
HETATM    5  C9  LIG X 999      47.441 129.234  14.545  1.00  0.00     0.012 A 
HETATM    6  C10 LIG X 999      47.873 129.851  13.368  1.00  0.00     0.001 A 
HETATM    7  C11 LIG X 999      47.560 131.190  13.120  1.00  0.00     0.001 A 
HETATM    8  C12 LIG X 999      46.812 131.921  14.049  1.00  0.00     0.012 A 
HETATM    9  C13 LIG X 999      46.373 131.314  15.235  1.00  0.00    -0.025 A 
HETATM   10  C14 LIG X 999      45.623 132.037  16.174  1.00  0.00     0.021 A 
ENDROOT
BRANCH   1  11
HETATM   11  C4  LIG X 999      44.367 132.213  18.363  1.00  0.00     0.113 C 
HETATM   12  C15 LIG X 999      42.959 131.614  18.456  1.00  0.00     0.037 C 
BRANCH  11  13
HETATM   13  N1  LIG X 999      45.012 132.220  19.681  1.00  0.00    -0.363 N 
HETATM   14  H6  LIG X 999      45.778 132.911  19.857  1.00  0.00     0.162 HD
BRANCH  13  15
HETATM   15  C1  LIG X 999      44.625 131.342  20.756  1.00  0.00     0.131 C 
HETATM   16  C2  LIG X 999      43.460 131.541  21.384  1.00  0.00     0.024 C 
HETATM   17  C3  LIG X 999      43.003 130.662  22.505  1.00  0.00     0.040 C 
BRANCH  15  18
HETATM   18  O1  LIG X 999      45.444 130.282  21.156  1.00  0.00    -0.347 OA
HETATM   19  H1  LIG X 999      45.108 129.504  21.707  1.00  0.00     0.219 HD
ENDBRANCH  15  18
ENDBRANCH  13  15
ENDBRANCH  11  13
ENDBRANCH   1  11
TORSDOF 4
ENDMDL
MODEL 9
REMARK VINA RESULT:      -6.4      4.124      7.338
REMARK  4 active torsions:
REMARK  status: ('A' for Active; 'I' for Inactive)
REMARK    1  A    between atoms: O1_2  and  C1_3 
REMARK    2  A    between atoms: C1_3  and  N1_6 
REMARK    3  A    between atoms: N1_6  and  C4_8 
REMARK    4  A    between atoms: C4_8  and  C5_9 
ROOT
HETATM    1  C5  LIG X 999      43.857 131.539  21.815  1.00  0.00    -0.035 A 
HETATM    2  C6  LIG X 999      42.678 132.045  21.241  1.00  0.00     0.010 A 
HETATM    3  C7  LIG X 999      42.532 132.108  19.854  1.00  0.00     0.013 A 
HETATM    4  C8  LIG X 999      43.568 131.676  19.015  1.00  0.00    -0.026 A 
HETATM    5  C9  LIG X 999      43.431 131.734  17.619  1.00  0.00     0.012 A 
HETATM    6  C10 LIG X 999      44.474 131.303  16.794  1.00  0.00     0.001 A 
HETATM    7  C11 LIG X 999      45.656 130.812  17.353  1.00  0.00     0.001 A 
HETATM    8  C12 LIG X 999      45.805 130.749  18.742  1.00  0.00     0.012 A 
HETATM    9  C13 LIG X 999      44.766 131.178  19.582  1.00  0.00    -0.025 A 
HETATM   10  C14 LIG X 999      44.904 131.119  20.977  1.00  0.00     0.021 A 
ENDROOT
BRANCH   1  11
HETATM   11  C4  LIG X 999      44.025 131.490  23.320  1.00  0.00     0.113 C 
HETATM   12  C15 LIG X 999      42.667 131.690  24.001  1.00  0.00     0.037 C 
BRANCH  11  13
HETATM   13  N1  LIG X 999      44.627 130.216  23.733  1.00  0.00    -0.363 N 
HETATM   14  H6  LIG X 999      45.525 130.240  24.270  1.00  0.00     0.162 HD
BRANCH  13  15
HETATM   15  C1  LIG X 999      44.027 128.934  23.462  1.00  0.00     0.131 C 
HETATM   16  C2  LIG X 999      42.898 128.587  24.089  1.00  0.00     0.024 C 
HETATM   17  C3  LIG X 999      42.228 127.271  23.848  1.00  0.00     0.040 C 
BRANCH  15  18
HETATM   18  O1  LIG X 999      44.605 128.042  22.553  1.00  0.00    -0.347 OA
HETATM   19  H1  LIG X 999      44.120 127.232  22.193  1.00  0.00     0.219 HD
ENDBRANCH  15  18
ENDBRANCH  13  15
ENDBRANCH  11  13
ENDBRANCH   1  11
TORSDOF 4
ENDMDL
