REMARK VINA RESULT:      -3.7      3.104      6.468
REMARK  6 active torsions:
REMARK  status: ('A' for Active; 'I' for Inactive)
REMARK    1  A    between atoms: C8_8  and  O1_9 
REMARK    2  A    between atoms: O1_9  and  C9_10 
REMARK    3  A    between atoms: C9_10  and  C10_11 
REMARK    4  A    between atoms: C10_11  and  C11_12 
REMARK    5  A    between atoms: C11_12  and  N1_13 
REMARK    6  A    between atoms: C13_18  and  N4_19 
ROOT
HETATM    1  N1  LIG X 999      45.999 126.595  23.804  1.00  0.00    -0.116 NA
HETATM    2  N2  LIG X 999      46.545 125.831  23.007  1.00  0.00    -0.168 NA
HETATM    3  N3  LIG X 999      47.090 125.069  22.209  1.00  0.00     0.068 N 
ENDROOT
BRANCH   1   4
HETATM    4  C11 LIG X 999      44.658 127.107  23.556  1.00  0.00     0.191 C 
BRANCH   4   5
HETATM    5  C10 LIG X 999      44.660 128.639  23.530  1.00  0.00     0.051 C 
BRANCH   5   6
HETATM    6  C9  LIG X 999      44.899 129.169  22.117  1.00  0.00     0.170 C 
BRANCH   6   7
HETATM    7  O1  LIG X 999      45.230 130.541  22.189  1.00  0.00    -0.384 OA
BRANCH   7   8
HETATM    8  C8  LIG X 999      44.751 131.235  21.048  1.00  0.00     0.146 C 
HETATM    9  C7  LIG X 999      45.606 130.846  19.830  1.00  0.00     0.072 C 
HETATM   10  C5  LIG X 999      44.983 131.226  18.506  1.00  0.00    -0.047 A 
HETATM   11  C4  LIG X 999      43.597 131.493  18.384  1.00  0.00    -0.023 A 
HETATM   12  C6  LIG X 999      45.783 131.185  17.353  1.00  0.00     0.008 A 
HETATM   13  C3  LIG X 999      43.054 131.736  17.109  1.00  0.00     0.010 A 
HETATM   14  C13 LIG X 999      42.704 131.611  19.602  1.00  0.00     0.199 C 
HETATM   15  C2  LIG X 999      43.865 131.707  15.974  1.00  0.00     0.001 A 
HETATM   16  C1  LIG X 999      45.228 131.433  16.096  1.00  0.00     0.001 A 
HETATM   17  C12 LIG X 999      43.286 130.837  20.800  1.00  0.00     0.143 C 
HETATM   18 CL1  LIG X 999      42.295 131.114  22.267  1.00  0.00    -0.120 Cl
BRANCH  14  19
HETATM   19  N4  LIG X 999      42.531 133.019  19.955  1.00  0.00    -0.104 NA
HETATM   20  N5  LIG X 999      41.551 133.406  20.595  1.00  0.00    -0.167 NA
HETATM   21  N6  LIG X 999      40.574 133.792  21.233  1.00  0.00     0.068 N 
ENDBRANCH  14  19
ENDBRANCH   7   8
ENDBRANCH   6   7
ENDBRANCH   5   6
ENDBRANCH   4   5
ENDBRANCH   1   4
TORSDOF 6
