MODEL 1
REMARK VINA RESULT:      -4.7      0.000      0.000
REMARK  6 active torsions:
REMARK  status: ('A' for Active; 'I' for Inactive)
REMARK    1  A    between atoms: C8_8  and  O1_9 
REMARK    2  A    between atoms: O1_9  and  C9_10 
REMARK    3  A    between atoms: C9_10  and  C10_11 
REMARK    4  A    between atoms: C10_11  and  C11_12 
REMARK    5  A    between atoms: C11_12  and  N1_13 
REMARK    6  A    between atoms: C13_18  and  N4_19 
ROOT
HETATM    1  N1  LIG X 999      43.346 131.558  20.878  1.00  0.00    -0.116 NA
HETATM    2  N2  LIG X 999      42.547 132.199  20.193  1.00  0.00    -0.168 NA
HETATM    3  N3  LIG X 999      41.749 132.839  19.511  1.00  0.00     0.068 N 
ENDROOT
BRANCH   1   4
HETATM    4  C11 LIG X 999      44.760 131.534  20.536  1.00  0.00     0.191 C 
BRANCH   4   5
HETATM    5  C10 LIG X 999      45.397 130.254  21.079  1.00  0.00     0.051 C 
BRANCH   5   6
HETATM    6  C9  LIG X 999      44.663 129.735  22.316  1.00  0.00     0.170 C 
BRANCH   6   7
HETATM    7  O1  LIG X 999      44.741 128.325  22.355  1.00  0.00    -0.384 OA
BRANCH   7   8
HETATM    8  C8  LIG X 999      44.974 127.865  23.677  1.00  0.00     0.146 C 
HETATM    9  C7  LIG X 999      43.756 128.174  24.558  1.00  0.00     0.072 C 
HETATM   10  C5  LIG X 999      42.546 127.360  24.172  1.00  0.00    -0.047 A 
HETATM   11  C4  LIG X 999      42.671 126.116  23.503  1.00  0.00    -0.023 A 
HETATM   12  C6  LIG X 999      41.274 127.817  24.556  1.00  0.00     0.008 A 
HETATM   13  C3  LIG X 999      41.505 125.402  23.170  1.00  0.00     0.010 A 
HETATM   14  C13 LIG X 999      44.018 125.599  23.024  1.00  0.00     0.199 C 
HETATM   15  C2  LIG X 999      40.246 125.878  23.544  1.00  0.00     0.001 A 
HETATM   16  C1  LIG X 999      40.132 127.080  24.241  1.00  0.00     0.001 A 
HETATM   17  C12 LIG X 999      45.208 126.349  23.658  1.00  0.00     0.143 C 
HETATM   18 CL1  LIG X 999      46.713 125.980  22.764  1.00  0.00    -0.120 Cl
BRANCH  14  19
HETATM   19  N4  LIG X 999      44.139 124.175  23.333  1.00  0.00    -0.104 NA
HETATM   20  N5  LIG X 999      44.455 123.360  22.466  1.00  0.00    -0.167 NA
HETATM   21  N6  LIG X 999      44.769 122.545  21.599  1.00  0.00     0.068 N 
ENDBRANCH  14  19
ENDBRANCH   7   8
ENDBRANCH   6   7
ENDBRANCH   5   6
ENDBRANCH   4   5
ENDBRANCH   1   4
TORSDOF 6
ENDMDL
MODEL 2
REMARK VINA RESULT:      -4.7      1.639      1.658
REMARK  6 active torsions:
REMARK  status: ('A' for Active; 'I' for Inactive)
REMARK    1  A    between atoms: C8_8  and  O1_9 
REMARK    2  A    between atoms: O1_9  and  C9_10 
REMARK    3  A    between atoms: C9_10  and  C10_11 
REMARK    4  A    between atoms: C10_11  and  C11_12 
REMARK    5  A    between atoms: C11_12  and  N1_13 
REMARK    6  A    between atoms: C13_18  and  N4_19 
ROOT
HETATM    1  N1  LIG X 999      45.417 130.713  18.428  1.00  0.00    -0.116 NA
HETATM    2  N2  LIG X 999      45.422 131.427  17.425  1.00  0.00    -0.168 NA
HETATM    3  N3  LIG X 999      45.428 132.139  16.423  1.00  0.00     0.068 N 
ENDROOT
BRANCH   1   4
HETATM    4  C11 LIG X 999      45.109 131.274  19.734  1.00  0.00     0.191 C 
BRANCH   4   5
HETATM    5  C10 LIG X 999      45.692 130.379  20.829  1.00  0.00     0.051 C 
BRANCH   5   6
HETATM    6  C9  LIG X 999      44.680 130.115  21.945  1.00  0.00     0.170 C 
BRANCH   6   7
HETATM    7  O1  LIG X 999      44.564 128.723  22.158  1.00  0.00    -0.384 OA
BRANCH   7   8
HETATM    8  C8  LIG X 999      44.856 128.390  23.507  1.00  0.00     0.146 C 
HETATM    9  C7  LIG X 999      43.687 128.806  24.410  1.00  0.00     0.072 C 
HETATM   10  C5  LIG X 999      42.448 127.981  24.164  1.00  0.00    -0.047 A 
HETATM   11  C4  LIG X 999      42.523 126.675  23.615  1.00  0.00    -0.023 A 
HETATM   12  C6  LIG X 999      41.204 128.496  24.562  1.00  0.00     0.008 A 
HETATM   13  C3  LIG X 999      41.332 125.953  23.410  1.00  0.00     0.010 A 
HETATM   14  C13 LIG X 999      43.837 126.089  23.126  1.00  0.00     0.199 C 
HETATM   15  C2  LIG X 999      40.100 126.487  23.795  1.00  0.00     0.001 A 
HETATM   16  C1  LIG X 999      40.037 127.753  24.376  1.00  0.00     0.001 A 
HETATM   17  C12 LIG X 999      45.068 126.875  23.625  1.00  0.00     0.143 C 
HETATM   18 CL1  LIG X 999      46.522 126.393  22.702  1.00  0.00    -0.120 Cl
BRANCH  14  19
HETATM   19  N4  LIG X 999      43.955 124.700  23.567  1.00  0.00    -0.104 NA
HETATM   20  N5  LIG X 999      44.190 123.794  22.766  1.00  0.00    -0.167 NA
HETATM   21  N6  LIG X 999      44.423 122.890  21.966  1.00  0.00     0.068 N 
ENDBRANCH  14  19
ENDBRANCH   7   8
ENDBRANCH   6   7
ENDBRANCH   5   6
ENDBRANCH   4   5
ENDBRANCH   1   4
TORSDOF 6
ENDMDL
MODEL 3
REMARK VINA RESULT:      -4.6      2.961      7.465
REMARK  6 active torsions:
REMARK  status: ('A' for Active; 'I' for Inactive)
REMARK    1  A    between atoms: C8_8  and  O1_9 
REMARK    2  A    between atoms: O1_9  and  C9_10 
REMARK    3  A    between atoms: C9_10  and  C10_11 
REMARK    4  A    between atoms: C10_11  and  C11_12 
REMARK    5  A    between atoms: C11_12  and  N1_13 
REMARK    6  A    between atoms: C13_18  and  N4_19 
ROOT
HETATM    1  N1  LIG X 999      43.171 126.779  23.304  1.00  0.00    -0.116 NA
HETATM    2  N2  LIG X 999      42.395 125.896  23.671  1.00  0.00    -0.168 NA
HETATM    3  N3  LIG X 999      41.619 125.015  24.038  1.00  0.00     0.068 N 
ENDROOT
BRANCH   1   4
HETATM    4  C11 LIG X 999      44.382 126.441  22.571  1.00  0.00     0.191 C 
BRANCH   4   5
HETATM    5  C10 LIG X 999      45.328 127.643  22.562  1.00  0.00     0.051 C 
BRANCH   5   6
HETATM    6  C9  LIG X 999      44.573 128.961  22.739  1.00  0.00     0.170 C 
BRANCH   6   7
HETATM    7  O1  LIG X 999      44.458 129.611  21.491  1.00  0.00    -0.384 OA
BRANCH   7   8
HETATM    8  C8  LIG X 999      45.038 130.906  21.536  1.00  0.00     0.146 C 
HETATM    9  C7  LIG X 999      46.002 131.087  20.356  1.00  0.00     0.072 C 
HETATM   10  C5  LIG X 999      45.285 131.132  19.029  1.00  0.00    -0.047 A 
HETATM   11  C4  LIG X 999      43.926 131.525  18.934  1.00  0.00    -0.023 A 
HETATM   12  C6  LIG X 999      46.009 130.850  17.860  1.00  0.00     0.008 A 
HETATM   13  C3  LIG X 999      43.311 131.549  17.668  1.00  0.00     0.010 A 
HETATM   14  C13 LIG X 999      43.084 131.795  20.170  1.00  0.00     0.199 C 
HETATM   15  C2  LIG X 999      44.042 131.249  16.515  1.00  0.00     0.001 A 
HETATM   16  C1  LIG X 999      45.390 130.907  16.611  1.00  0.00     0.001 A 
HETATM   17  C12 LIG X 999      43.932 131.966  21.448  1.00  0.00     0.143 C 
HETATM   18 CL1  LIG X 999      42.886 131.872  22.897  1.00  0.00    -0.120 Cl
BRANCH  14  19
HETATM   19  N4  LIG X 999      42.285 133.004  19.971  1.00  0.00    -0.104 NA
HETATM   20  N5  LIG X 999      41.377 133.303  20.747  1.00  0.00    -0.167 NA
HETATM   21  N6  LIG X 999      40.470 133.600  21.522  1.00  0.00     0.068 N 
ENDBRANCH  14  19
ENDBRANCH   7   8
ENDBRANCH   6   7
ENDBRANCH   5   6
ENDBRANCH   4   5
ENDBRANCH   1   4
TORSDOF 6
ENDMDL
MODEL 4
REMARK VINA RESULT:      -4.4      2.230      3.939
REMARK  6 active torsions:
REMARK  status: ('A' for Active; 'I' for Inactive)
REMARK    1  A    between atoms: C8_8  and  O1_9 
REMARK    2  A    between atoms: O1_9  and  C9_10 
REMARK    3  A    between atoms: C9_10  and  C10_11 
REMARK    4  A    between atoms: C10_11  and  C11_12 
REMARK    5  A    between atoms: C11_12  and  N1_13 
REMARK    6  A    between atoms: C13_18  and  N4_19 
ROOT
HETATM    1  N1  LIG X 999      43.829 130.933  21.636  1.00  0.00    -0.116 NA
HETATM    2  N2  LIG X 999      43.114 131.701  20.989  1.00  0.00    -0.168 NA
HETATM    3  N3  LIG X 999      42.402 132.467  20.344  1.00  0.00     0.068 N 
ENDROOT
BRANCH   1   4
HETATM    4  C11 LIG X 999      43.776 130.921  23.089  1.00  0.00     0.191 C 
BRANCH   4   5
HETATM    5  C10 LIG X 999      43.429 129.513  23.579  1.00  0.00     0.051 C 
BRANCH   5   6
HETATM    6  C9  LIG X 999      44.525 128.941  24.479  1.00  0.00     0.170 C 
BRANCH   6   7
HETATM    7  O1  LIG X 999      44.579 127.538  24.323  1.00  0.00    -0.384 OA
BRANCH   7   8
HETATM    8  C8  LIG X 999      44.188 127.157  23.013  1.00  0.00     0.146 C 
HETATM    9  C7  LIG X 999      45.432 126.894  22.154  1.00  0.00     0.072 C 
HETATM   10  C5  LIG X 999      46.192 125.670  22.603  1.00  0.00    -0.047 A 
HETATM   11  C4  LIG X 999      45.557 124.621  23.314  1.00  0.00    -0.023 A 
HETATM   12  C6  LIG X 999      47.542 125.541  22.236  1.00  0.00     0.008 A 
HETATM   13  C3  LIG X 999      46.318 123.503  23.704  1.00  0.00     0.010 A 
HETATM   14  C13 LIG X 999      44.112 124.730  23.775  1.00  0.00     0.199 C 
HETATM   15  C2  LIG X 999      47.664 123.398  23.346  1.00  0.00     0.001 A 
HETATM   16  C1  LIG X 999      48.273 124.412  22.608  1.00  0.00     0.001 A 
HETATM   17  C12 LIG X 999      43.345 125.876  23.082  1.00  0.00     0.143 C 
HETATM   18 CL1  LIG X 999      41.815 126.204  23.948  1.00  0.00    -0.120 Cl
BRANCH  14  19
HETATM   19  N4  LIG X 999      43.413 123.472  23.516  1.00  0.00    -0.104 NA
HETATM   20  N5  LIG X 999      43.028 123.178  22.383  1.00  0.00    -0.167 NA
HETATM   21  N6  LIG X 999      42.643 122.886  21.252  1.00  0.00     0.068 N 
ENDBRANCH  14  19
ENDBRANCH   7   8
ENDBRANCH   6   7
ENDBRANCH   5   6
ENDBRANCH   4   5
ENDBRANCH   1   4
TORSDOF 6
ENDMDL
MODEL 5
REMARK VINA RESULT:      -4.4      1.498      2.092
REMARK  6 active torsions:
REMARK  status: ('A' for Active; 'I' for Inactive)
REMARK    1  A    between atoms: C8_8  and  O1_9 
REMARK    2  A    between atoms: O1_9  and  C9_10 
REMARK    3  A    between atoms: C9_10  and  C10_11 
REMARK    4  A    between atoms: C10_11  and  C11_12 
REMARK    5  A    between atoms: C11_12  and  N1_13 
REMARK    6  A    between atoms: C13_18  and  N4_19 
ROOT
HETATM    1  N1  LIG X 999      45.421 131.032  20.548  1.00  0.00    -0.116 NA
HETATM    2  N2  LIG X 999      44.425 131.587  20.083  1.00  0.00    -0.168 NA
HETATM    3  N3  LIG X 999      43.432 132.143  19.618  1.00  0.00     0.068 N 
ENDROOT
BRANCH   1   4
HETATM    4  C11 LIG X 999      45.295 129.785  21.287  1.00  0.00     0.191 C 
BRANCH   4   5
HETATM    5  C10 LIG X 999      44.284 129.960  22.421  1.00  0.00     0.051 C 
BRANCH   5   6
HETATM    6  C9  LIG X 999      44.591 129.037  23.602  1.00  0.00     0.170 C 
BRANCH   6   7
HETATM    7  O1  LIG X 999      44.734 127.710  23.139  1.00  0.00    -0.384 OA
BRANCH   7   8
HETATM    8  C8  LIG X 999      44.832 126.801  24.225  1.00  0.00     0.146 C 
HETATM    9  C7  LIG X 999      43.434 126.307  24.618  1.00  0.00     0.072 C 
HETATM   10  C5  LIG X 999      42.813 125.432  23.556  1.00  0.00    -0.047 A 
HETATM   11  C4  LIG X 999      43.609 124.718  22.626  1.00  0.00    -0.023 A 
HETATM   12  C6  LIG X 999      41.419 125.268  23.547  1.00  0.00     0.008 A 
HETATM   13  C3  LIG X 999      42.973 123.917  21.659  1.00  0.00     0.010 A 
HETATM   14  C13 LIG X 999      45.118 124.895  22.563  1.00  0.00     0.199 C 
HETATM   15  C2  LIG X 999      41.583 123.777  21.652  1.00  0.00     0.001 A 
HETATM   16  C1  LIG X 999      40.808 124.446  22.598  1.00  0.00     0.001 A 
HETATM   17  C12 LIG X 999      45.692 125.599  23.810  1.00  0.00     0.143 C 
HETATM   18 CL1  LIG X 999      47.369 126.134  23.497  1.00  0.00    -0.120 Cl
BRANCH  14  19
HETATM   19  N4  LIG X 999      45.764 123.592  22.419  1.00  0.00    -0.104 NA
HETATM   20  N5  LIG X 999      46.733 123.439  21.675  1.00  0.00    -0.167 NA
HETATM   21  N6  LIG X 999      47.700 123.288  20.930  1.00  0.00     0.068 N 
ENDBRANCH  14  19
ENDBRANCH   7   8
ENDBRANCH   6   7
ENDBRANCH   5   6
ENDBRANCH   4   5
ENDBRANCH   1   4
TORSDOF 6
ENDMDL
MODEL 6
REMARK VINA RESULT:      -4.2      2.857      5.850
REMARK  6 active torsions:
REMARK  status: ('A' for Active; 'I' for Inactive)
REMARK    1  A    between atoms: C8_8  and  O1_9 
REMARK    2  A    between atoms: O1_9  and  C9_10 
REMARK    3  A    between atoms: C9_10  and  C10_11 
REMARK    4  A    between atoms: C10_11  and  C11_12 
REMARK    5  A    between atoms: C11_12  and  N1_13 
REMARK    6  A    between atoms: C13_18  and  N4_19 
ROOT
HETATM    1  N1  LIG X 999      47.339 123.660  21.720  1.00  0.00    -0.116 NA
HETATM    2  N2  LIG X 999      48.049 123.486  20.729  1.00  0.00    -0.168 NA
HETATM    3  N3  LIG X 999      48.757 123.312  19.739  1.00  0.00     0.068 N 
ENDROOT
BRANCH   1   4
HETATM    4  C11 LIG X 999      47.865 123.431  23.057  1.00  0.00     0.191 C 
BRANCH   4   5
HETATM    5  C10 LIG X 999      46.952 124.096  24.089  1.00  0.00     0.051 C 
BRANCH   5   6
HETATM    6  C9  LIG X 999      45.523 123.558  24.011  1.00  0.00     0.170 C 
BRANCH   6   7
HETATM    7  O1  LIG X 999      44.609 124.611  24.242  1.00  0.00    -0.384 OA
BRANCH   7   8
HETATM    8  C8  LIG X 999      44.454 125.414  23.082  1.00  0.00     0.146 C 
HETATM    9  C7  LIG X 999      43.430 124.770  22.137  1.00  0.00     0.072 C 
HETATM   10  C5  LIG X 999      42.031 124.795  22.703  1.00  0.00    -0.047 A 
HETATM   11  C4  LIG X 999      41.637 125.757  23.666  1.00  0.00    -0.023 A 
HETATM   12  C6  LIG X 999      41.084 123.888  22.200  1.00  0.00     0.008 A 
HETATM   13  C3  LIG X 999      40.317 125.731  24.155  1.00  0.00     0.010 A 
HETATM   14  C13 LIG X 999      42.633 126.731  24.276  1.00  0.00     0.199 C 
HETATM   15  C2  LIG X 999      39.391 124.811  23.657  1.00  0.00     0.001 A 
HETATM   16  C1  LIG X 999      39.772 123.896  22.677  1.00  0.00     0.001 A 
HETATM   17  C12 LIG X 999      43.957 126.808  23.487  1.00  0.00     0.143 C 
HETATM   18 CL1  LIG X 999      45.206 127.636  24.463  1.00  0.00    -0.120 Cl
BRANCH  14  19
HETATM   19  N4  LIG X 999      42.044 128.067  24.338  1.00  0.00    -0.104 NA
HETATM   20  N5  LIG X 999      42.399 128.957  23.564  1.00  0.00    -0.167 NA
HETATM   21  N6  LIG X 999      42.755 129.846  22.791  1.00  0.00     0.068 N 
ENDBRANCH  14  19
ENDBRANCH   7   8
ENDBRANCH   6   7
ENDBRANCH   5   6
ENDBRANCH   4   5
ENDBRANCH   1   4
TORSDOF 6
ENDMDL
MODEL 7
REMARK VINA RESULT:      -3.8      3.127      3.827
REMARK  6 active torsions:
REMARK  status: ('A' for Active; 'I' for Inactive)
REMARK    1  A    between atoms: C8_8  and  O1_9 
REMARK    2  A    between atoms: O1_9  and  C9_10 
REMARK    3  A    between atoms: C9_10  and  C10_11 
REMARK    4  A    between atoms: C10_11  and  C11_12 
REMARK    5  A    between atoms: C11_12  and  N1_13 
REMARK    6  A    between atoms: C13_18  and  N4_19 
ROOT
HETATM    1  N1  LIG X 999      44.364 131.365  16.536  1.00  0.00    -0.116 NA
HETATM    2  N2  LIG X 999      45.429 131.054  16.001  1.00  0.00    -0.168 NA
HETATM    3  N3  LIG X 999      46.491 130.744  15.466  1.00  0.00     0.068 N 
ENDROOT
BRANCH   1   4
HETATM    4  C11 LIG X 999      44.278 131.513  17.981  1.00  0.00     0.191 C 
BRANCH   4   5
HETATM    5  C10 LIG X 999      42.822 131.746  18.387  1.00  0.00     0.051 C 
BRANCH   5   6
HETATM    6  C9  LIG X 999      42.698 132.110  19.868  1.00  0.00     0.170 C 
BRANCH   6   7
HETATM    7  O1  LIG X 999      43.040 130.990  20.659  1.00  0.00    -0.384 OA
BRANCH   7   8
HETATM    8  C8  LIG X 999      43.780 131.385  21.804  1.00  0.00     0.146 C 
HETATM    9  C7  LIG X 999      42.875 131.361  23.042  1.00  0.00     0.072 C 
HETATM   10  C5  LIG X 999      42.461 129.962  23.426  1.00  0.00    -0.047 A 
HETATM   11  C4  LIG X 999      43.239 128.833  23.065  1.00  0.00    -0.023 A 
HETATM   12  C6  LIG X 999      41.319 129.790  24.225  1.00  0.00     0.008 A 
HETATM   13  C3  LIG X 999      42.803 127.552  23.453  1.00  0.00     0.010 A 
HETATM   14  C13 LIG X 999      44.457 128.958  22.163  1.00  0.00     0.199 C 
HETATM   15  C2  LIG X 999      41.655 127.397  24.233  1.00  0.00     0.001 A 
HETATM   16  C1  LIG X 999      40.919 128.514  24.624  1.00  0.00     0.001 A 
HETATM   17  C12 LIG X 999      44.949 130.413  22.017  1.00  0.00     0.143 C 
HETATM   18 CL1  LIG X 999      46.098 130.540  20.653  1.00  0.00    -0.120 Cl
BRANCH  14  19
HETATM   19  N4  LIG X 999      45.550 128.143  22.691  1.00  0.00    -0.104 NA
HETATM   20  N5  LIG X 999      45.719 126.983  22.315  1.00  0.00    -0.167 NA
HETATM   21  N6  LIG X 999      45.887 125.823  21.938  1.00  0.00     0.068 N 
ENDBRANCH  14  19
ENDBRANCH   7   8
ENDBRANCH   6   7
ENDBRANCH   5   6
ENDBRANCH   4   5
ENDBRANCH   1   4
TORSDOF 6
ENDMDL
MODEL 8
REMARK VINA RESULT:      -3.7      5.606      6.969
REMARK  6 active torsions:
REMARK  status: ('A' for Active; 'I' for Inactive)
REMARK    1  A    between atoms: C8_8  and  O1_9 
REMARK    2  A    between atoms: O1_9  and  C9_10 
REMARK    3  A    between atoms: C9_10  and  C10_11 
REMARK    4  A    between atoms: C10_11  and  C11_12 
REMARK    5  A    between atoms: C11_12  and  N1_13 
REMARK    6  A    between atoms: C13_18  and  N4_19 
ROOT
HETATM    1  N1  LIG X 999      48.918 135.484  21.649  1.00  0.00    -0.116 NA
HETATM    2  N2  LIG X 999      48.853 136.451  20.888  1.00  0.00    -0.168 NA
HETATM    3  N3  LIG X 999      48.789 137.416  20.130  1.00  0.00     0.068 N 
ENDROOT
BRANCH   1   4
HETATM    4  C11 LIG X 999      47.723 134.727  21.986  1.00  0.00     0.191 C 
BRANCH   4   5
HETATM    5  C10 LIG X 999      47.964 133.240  21.717  1.00  0.00     0.051 C 
BRANCH   5   6
HETATM    6  C9  LIG X 999      46.651 132.467  21.588  1.00  0.00     0.170 C 
BRANCH   6   7
HETATM    7  O1  LIG X 999      46.465 132.074  20.244  1.00  0.00    -0.384 OA
BRANCH   7   8
HETATM    8  C8  LIG X 999      45.866 130.789  20.169  1.00  0.00     0.146 C 
HETATM    9  C7  LIG X 999      44.830 130.631  21.290  1.00  0.00     0.072 C 
HETATM   10  C5  LIG X 999      43.632 131.527  21.096  1.00  0.00    -0.047 A 
HETATM   11  C4  LIG X 999      43.257 131.997  19.813  1.00  0.00    -0.023 A 
HETATM   12  C6  LIG X 999      42.831 131.834  22.209  1.00  0.00     0.008 A 
HETATM   13  C3  LIG X 999      42.128 132.829  19.695  1.00  0.00     0.010 A 
HETATM   14  C13 LIG X 999      44.113 131.733  18.584  1.00  0.00     0.199 C 
HETATM   15  C2  LIG X 999      41.351 133.139  20.814  1.00  0.00     0.001 A 
HETATM   16  C1  LIG X 999      41.698 132.637  22.067  1.00  0.00     0.001 A 
HETATM   17  C12 LIG X 999      45.166 130.629  18.813  1.00  0.00     0.143 C 
HETATM   18 CL1  LIG X 999      46.379 130.655  17.499  1.00  0.00    -0.120 Cl
BRANCH  14  19
HETATM   19  N4  LIG X 999      43.261 131.346  17.461  1.00  0.00    -0.104 NA
HETATM   20  N5  LIG X 999      43.632 131.501  16.297  1.00  0.00    -0.167 NA
HETATM   21  N6  LIG X 999      44.003 131.656  15.134  1.00  0.00     0.068 N 
ENDBRANCH  14  19
ENDBRANCH   7   8
ENDBRANCH   6   7
ENDBRANCH   5   6
ENDBRANCH   4   5
ENDBRANCH   1   4
TORSDOF 6
ENDMDL
MODEL 9
REMARK VINA RESULT:      -3.7      6.281      8.531
REMARK  6 active torsions:
REMARK  status: ('A' for Active; 'I' for Inactive)
REMARK    1  A    between atoms: C8_8  and  O1_9 
REMARK    2  A    between atoms: O1_9  and  C9_10 
REMARK    3  A    between atoms: C9_10  and  C10_11 
REMARK    4  A    between atoms: C10_11  and  C11_12 
REMARK    5  A    between atoms: C11_12  and  N1_13 
REMARK    6  A    between atoms: C13_18  and  N4_19 
ROOT
HETATM    1  N1  LIG X 999      48.250 129.970  13.389  1.00  0.00    -0.116 NA
HETATM    2  N2  LIG X 999      47.761 129.090  14.097  1.00  0.00    -0.168 NA
HETATM    3  N3  LIG X 999      47.273 128.210  14.804  1.00  0.00     0.068 N 
ENDROOT
BRANCH   1   4
HETATM    4  C11 LIG X 999      47.419 131.040  12.858  1.00  0.00     0.191 C 
BRANCH   4   5
HETATM    5  C10 LIG X 999      46.259 131.313  13.817  1.00  0.00     0.051 C 
BRANCH   5   6
HETATM    6  C9  LIG X 999      46.563 132.480  14.757  1.00  0.00     0.170 C 
BRANCH   6   7
HETATM    7  O1  LIG X 999      46.029 132.207  16.036  1.00  0.00    -0.384 OA
BRANCH   7   8
HETATM    8  C8  LIG X 999      45.348 130.962  16.048  1.00  0.00     0.146 C 
HETATM    9  C7  LIG X 999      45.878 130.090  17.194  1.00  0.00     0.072 C 
HETATM   10  C5  LIG X 999      45.512 130.639  18.551  1.00  0.00    -0.047 A 
HETATM   11  C4  LIG X 999      44.387 131.482  18.731  1.00  0.00    -0.023 A 
HETATM   12  C6  LIG X 999      46.263 130.237  19.667  1.00  0.00     0.008 A 
HETATM   13  C3  LIG X 999      44.094 131.962  20.021  1.00  0.00     0.010 A 
HETATM   14  C13 LIG X 999      43.568 131.984  17.552  1.00  0.00     0.199 C 
HETATM   15  C2  LIG X 999      44.862 131.567  21.119  1.00  0.00     0.001 A 
HETATM   16  C1  LIG X 999      45.940 130.700  20.943  1.00  0.00     0.001 A 
HETATM   17  C12 LIG X 999      43.846 131.201  16.252  1.00  0.00     0.143 C 
HETATM   18 CL1  LIG X 999      43.179 132.084  14.847  1.00  0.00    -0.120 Cl
BRANCH  14  19
HETATM   19  N4  LIG X 999      42.143 131.889  17.863  1.00  0.00    -0.104 NA
HETATM   20  N5  LIG X 999      41.672 132.429  18.864  1.00  0.00    -0.167 NA
HETATM   21  N6  LIG X 999      41.202 132.968  19.866  1.00  0.00     0.068 N 
ENDBRANCH  14  19
ENDBRANCH   7   8
ENDBRANCH   6   7
ENDBRANCH   5   6
ENDBRANCH   4   5
ENDBRANCH   1   4
TORSDOF 6
ENDMDL
