REMARK VINA RESULT:      -0.9      3.861      4.853
REMARK  3 active torsions:
REMARK  status: ('A' for Active; 'I' for Inactive)
REMARK    1  A    between atoms: C3_3  and  S1_4 
REMARK    2  A    between atoms: S1_4  and  C4_7 
REMARK    3  A    between atoms: C13_17  and  N2_18 
ROOT
HETATM    1  C1  LIG X 999      41.383 125.862  22.783  1.00  0.00     0.013 C 
HETATM    2  C2  LIG X 999      42.039 126.531  23.543  1.00  0.00    -0.102 C 
HETATM    3  C3  LIG X 999      42.837 127.347  24.461  1.00  0.00     0.238 C 
ENDROOT
BRANCH   3   4
HETATM    4  S1  LIG X 999      44.336 127.881  23.659  1.00  0.00     0.185 S 
HETATM    5  O1  LIG X 999      45.483 127.780  24.625  1.00  0.00    -0.222 OA
HETATM    6  O2  LIG X 999      44.622 126.990  22.482  1.00  0.00    -0.222 OA
BRANCH   4   7
HETATM    7  C4  LIG X 999      44.159 129.555  23.130  1.00  0.00     0.062 C 
HETATM    8  C5  LIG X 999      43.625 129.797  21.853  1.00  0.00     0.025 C 
HETATM    9  C6  LIG X 999      42.948 130.975  21.517  1.00  0.00     0.024 C 
HETATM   10  C7  LIG X 999      43.138 131.633  20.290  1.00  0.00     0.044 C 
HETATM   11  C8  LIG X 999      42.065 132.452  19.791  1.00  0.00     0.099 C 
HETATM   12  C9  LIG X 999      44.347 131.605  19.561  1.00  0.00     0.022 C 
HETATM   13  N1  LIG X 999      41.202 133.111  19.388  1.00  0.00    -0.191 NA
HETATM   14  C10 LIG X 999      45.620 131.304  20.085  1.00  0.00     0.002 C 
HETATM   15  C11 LIG X 999      45.962 131.364  21.443  1.00  0.00     0.002 C 
HETATM   16  C12 LIG X 999      45.350 132.251  22.337  1.00  0.00     0.034 C 
HETATM   17  C13 LIG X 999      44.967 131.894  23.640  1.00  0.00     0.094 C 
HETATM   18  C14 LIG X 999      44.601 130.572  24.005  1.00  0.00     0.057 C 
BRANCH  17  19
HETATM   19  N2  LIG X 999      44.883 132.955  24.602  1.00  0.00    -0.073 NA
HETATM   20  N3  LIG X 999      45.670 133.903  24.612  1.00  0.00    -0.162 NA
HETATM   21  N4  LIG X 999      46.454 134.851  24.624  1.00  0.00     0.068 N 
ENDBRANCH  17  19
ENDBRANCH   4   7
ENDBRANCH   3   4
TORSDOF 3
