REMARK VINA RESULT:      -7.3      2.351      4.277
REMARK  1 active torsions:
REMARK  status: ('A' for Active; 'I' for Inactive)
REMARK    1  A    between atoms: C11_13  and  N2_14 
ROOT
HETATM    1  N2  LIG X 999      45.104 131.249  16.068  1.00  0.00    -0.053 NA
HETATM    2  N3  LIG X 999      45.245 130.098  15.652  1.00  0.00    -0.160 NA
HETATM    3  N4  LIG X 999      45.385 128.950  15.236  1.00  0.00     0.068 N 
ENDROOT
BRANCH   1   4
HETATM    4  C11 LIG X 999      44.383 131.517  17.272  1.00  0.00     0.175 A 
HETATM    5  C10 LIG X 999      44.815 131.193  18.549  1.00  0.00     0.026 A 
HETATM    6  C5  LIG X 999      43.832 131.626  19.375  1.00  0.00     0.017 A 
HETATM    7  C9  LIG X 999      45.953 130.573  19.065  1.00  0.00     0.016 A 
HETATM    8  C4  LIG X 999      42.845 132.188  18.636  1.00  0.00     0.046 A 
HETATM    9  C6  LIG X 999      43.848 131.506  20.748  1.00  0.00     0.005 A 
HETATM   10  C3  LIG X 999      41.647 132.744  19.285  1.00  0.00     0.033 A 
HETATM   11  N5  LIG X 999      43.165 132.132  17.324  1.00  0.00    -0.337 N 
HETATM   12  C2  LIG X 999      41.559 132.678  20.633  1.00  0.00     0.034 A 
HETATM   13  C1  LIG X 999      42.651 132.056  21.456  1.00  0.00     0.059 A 
HETATM   14  N1  LIG X 999      42.529 132.014  22.746  1.00  0.00    -0.300 NA
HETATM   15  H1  LIG X 999      43.247 131.597  23.376  1.00  0.00     0.187 HD
HETATM   16  H7  LIG X 999      42.596 132.487  16.523  1.00  0.00     0.167 HD
HETATM   17  C7  LIG X 999      44.983 130.884  21.315  1.00  0.00     0.015 A 
HETATM   18  C8  LIG X 999      46.030 130.419  20.470  1.00  0.00     0.002 A 
ENDBRANCH   1   4
TORSDOF 1
