REMARK VINA RESULT:      -6.9      1.885      3.661
REMARK  5 active torsions:
REMARK  status: ('A' for Active; 'I' for Inactive)
REMARK    1  A    between atoms: C6_6  and  C7_7 
REMARK    2  A    between atoms: C7_7  and  N1_8 
REMARK    3  A    between atoms: N4_11  and  C8_12 
REMARK    4  A    between atoms: C8_12  and  C9_13 
REMARK    5  A    between atoms: C9_13  and  N5_14 
ROOT
HETATM    1  N1  LIG X 999      42.326 132.901  19.636  1.00  0.00    -0.052 NA
HETATM    2  N2  LIG X 999      41.497 133.242  20.480  1.00  0.00    -0.160 NA
HETATM    3  N3  LIG X 999      40.669 133.584  21.323  1.00  0.00     0.068 N 
ENDROOT
BRANCH   1   4
HETATM    4  C7  LIG X 999      43.343 131.937  19.930  1.00  0.00     0.191 C 
HETATM    5  N4  LIG X 999      43.523 131.544  21.162  1.00  0.00    -0.267 NA
BRANCH   4   6
HETATM    6  C6  LIG X 999      44.181 131.455  18.814  1.00  0.00     0.015 A 
HETATM    7  C5  LIG X 999      43.819 131.717  17.484  1.00  0.00     0.027 A 
HETATM    8  C4  LIG X 999      44.629 131.268  16.429  1.00  0.00    -0.025 A 
HETATM    9  C3  LIG X 999      44.268 131.513  15.095  1.00  0.00     0.012 A 
HETATM   10  C12 LIG X 999      45.825 130.565  16.713  1.00  0.00    -0.026 A 
HETATM   11  C2  LIG X 999      45.082 131.060  14.053  1.00  0.00     0.001 A 
HETATM   12  C1  LIG X 999      46.261 130.363  14.333  1.00  0.00     0.001 A 
HETATM   13  C13 LIG X 999      46.634 130.115  15.657  1.00  0.00     0.012 A 
HETATM   14  C11 LIG X 999      46.192 130.329  18.046  1.00  0.00     0.013 A 
HETATM   15  C10 LIG X 999      45.378 130.779  19.089  1.00  0.00     0.016 A 
ENDBRANCH   4   6
BRANCH   5  16
HETATM   16  C8  LIG X 999      44.559 130.633  21.658  1.00  0.00     0.178 C 
BRANCH  16  17
HETATM   17  C9  LIG X 999      44.037 129.744  22.796  1.00  0.00     0.251 C 
BRANCH  17  18
HETATM   18  N5  LIG X 999      42.587 129.864  22.954  1.00  0.00    -0.078 N 
HETATM   19  H9  LIG X 999      42.147 129.931  22.008  1.00  0.00     0.274 HD
HETATM   20  H10 LIG X 999      42.205 129.022  23.441  1.00  0.00     0.274 HD
HETATM   21  H11 LIG X 999      42.353 130.725  23.498  1.00  0.00     0.274 HD
ENDBRANCH  17  18
ENDBRANCH  16  17
ENDBRANCH   5  16
ENDBRANCH   1   4
TORSDOF 5
