REMARK VINA RESULT:      -5.7      0.000      0.000
REMARK  6 active torsions:
REMARK  status: ('A' for Active; 'I' for Inactive)
REMARK    1  A    between atoms: C6_6  and  N1_7 
REMARK       I    between atoms: N1_7  and  C7_8 
REMARK    2  A    between atoms: C7_8  and  O2_10 
REMARK    3  A    between atoms: O2_10  and  C8_11 
REMARK    4  A    between atoms: C8_11  and  C10_13 
REMARK    5  A    between atoms: C10_13  and  O3_14 
REMARK    6  A    between atoms: C12_16  and  N2_17 
ROOT
HETATM    1  N2  LIG X 999      41.184 128.227  24.017  1.00  0.00    -0.070 NA
HETATM    2  N3  LIG X 999      40.159 127.550  23.926  1.00  0.00    -0.162 NA
HETATM    3  N4  LIG X 999      39.133 126.875  23.837  1.00  0.00     0.068 N 
ENDROOT
BRANCH   1   4
HETATM    4  C12 LIG X 999      42.473 127.730  23.624  1.00  0.00     0.122 A 
HETATM    5  C6  LIG X 999      43.536 128.638  23.476  1.00  0.00     0.095 A 
HETATM    6  C5  LIG X 999      44.797 128.174  23.062  1.00  0.00     0.046 A 
HETATM    7  C4  LIG X 999      45.015 126.807  22.839  1.00  0.00    -0.024 A 
HETATM    8  C3  LIG X 999      46.277 126.340  22.439  1.00  0.00     0.012 A 
HETATM    9  C14 LIG X 999      43.952 125.890  23.013  1.00  0.00    -0.024 A 
HETATM   10  C2  LIG X 999      46.483 124.975  22.219  1.00  0.00     0.001 A 
HETATM   11  C1  LIG X 999      45.434 124.068  22.393  1.00  0.00     0.001 A 
HETATM   12  C15 LIG X 999      44.172 124.521  22.789  1.00  0.00     0.012 A 
HETATM   13  C13 LIG X 999      42.689 126.357  23.399  1.00  0.00     0.049 A 
BRANCH   5  14
HETATM   14  N1  LIG X 999      43.293 130.036  23.699  1.00  0.00    -0.185 NA
HETATM   15  C7  LIG X 999      43.103 131.025  22.682  1.00  0.00     0.387 C 
HETATM   16  O1  LIG X 999      42.658 132.158  23.006  1.00  0.00    -0.236 OA
BRANCH  15  17
HETATM   17  O2  LIG X 999      43.447 130.748  21.353  1.00  0.00    -0.295 OA
BRANCH  17  18
HETATM   18  C8  LIG X 999      44.432 131.476  20.620  1.00  0.00     0.153 C 
HETATM   19  C9  LIG X 999      45.715 130.645  20.502  1.00  0.00     0.042 C 
BRANCH  18  20
HETATM   20  C10 LIG X 999      43.863 131.809  19.237  1.00  0.00     0.199 C 
BRANCH  20  21
HETATM   21  O3  LIG X 999      44.878 131.688  18.261  1.00  0.00    -0.393 OA
HETATM   22  C11 LIG X 999      44.288 131.526  16.992  1.00  0.00     0.201 C 
ENDBRANCH  20  21
ENDBRANCH  18  20
ENDBRANCH  17  18
ENDBRANCH  15  17
ENDBRANCH   5  14
ENDBRANCH   1   4
TORSDOF 6
