REMARK VINA RESULT:      -7.9      0.000      0.000
REMARK  7 active torsions:
REMARK  status: ('A' for Active; 'I' for Inactive)
REMARK    1  A    between atoms: O1_2  and  C1_3 
REMARK    2  A    between atoms: C1_3  and  O2_18 
REMARK    3  A    between atoms: N1_4  and  C2_5 
REMARK    4  A    between atoms: C3_6  and  N2_7 
REMARK    5  A    between atoms: O2_18  and  C12_19 
REMARK    6  A    between atoms: C12_19  and  C14_21 
REMARK    7  A    between atoms: C14_21  and  O3_22 
ROOT
HETATM    1  N2  LIG X 999      41.970 132.156  18.330  1.00  0.00    -0.070 NA
HETATM    2  N3  LIG X 999      41.835 132.709  19.422  1.00  0.00    -0.162 NA
HETATM    3  N4  LIG X 999      41.693 133.257  20.514  1.00  0.00     0.068 N 
ENDROOT
BRANCH   1   4
HETATM    4  C3  LIG X 999      43.248 131.762  17.808  1.00  0.00     0.122 A 
HETATM    5  C2  LIG X 999      44.353 131.427  18.635  1.00  0.00     0.094 A 
HETATM    6  C11 LIG X 999      45.527 130.930  18.053  1.00  0.00     0.046 A 
HETATM    7  C10 LIG X 999      45.646 130.823  16.662  1.00  0.00    -0.024 A 
HETATM    8  C5  LIG X 999      44.569 131.213  15.835  1.00  0.00    -0.024 A 
HETATM    9  C9  LIG X 999      46.831 130.343  16.080  1.00  0.00     0.012 A 
HETATM   10  C4  LIG X 999      43.382 131.681  16.416  1.00  0.00     0.049 A 
HETATM   11  C6  LIG X 999      44.694 131.116  14.440  1.00  0.00     0.012 A 
HETATM   12  C7  LIG X 999      45.878 130.637  13.872  1.00  0.00     0.001 A 
HETATM   13  C8  LIG X 999      46.943 130.251  14.690  1.00  0.00     0.001 A 
BRANCH   5  14
HETATM   14  N1  LIG X 999      44.337 131.605  20.057  1.00  0.00    -0.200 NA
HETATM   15  C1  LIG X 999      45.094 130.951  20.886  1.00  0.00     0.285 C 
BRANCH  15  16
HETATM   16  O1  LIG X 999      45.998 130.004  20.412  1.00  0.00    -0.325 OA
HETATM   17  H1  LIG X 999      45.938 129.039  20.709  1.00  0.00     0.221 HD
ENDBRANCH  15  16
BRANCH  15  18
HETATM   18  O2  LIG X 999      45.014 131.170  22.271  1.00  0.00    -0.308 OA
BRANCH  18  19
HETATM   19  C12 LIG X 999      44.081 130.575  23.187  1.00  0.00     0.152 C 
HETATM   20  C13 LIG X 999      42.769 131.364  23.281  1.00  0.00     0.042 C 
BRANCH  19  21
HETATM   21  C14 LIG X 999      43.868 129.077  22.904  1.00  0.00     0.199 C 
BRANCH  21  22
HETATM   22  O3  LIG X 999      44.974 128.317  23.343  1.00  0.00    -0.393 OA
HETATM   23  C15 LIG X 999      45.156 127.214  22.485  1.00  0.00     0.201 C 
ENDBRANCH  21  22
ENDBRANCH  19  21
ENDBRANCH  18  19
ENDBRANCH  15  18
ENDBRANCH   5  14
ENDBRANCH   1   4
TORSDOF 7
