REMARK VINA RESULT:      -7.2      1.577      6.047
REMARK  1 active torsions:
REMARK  status: ('A' for Active; 'I' for Inactive)
REMARK    1  A    between atoms: C3_3  and  N1_4 
ROOT
HETATM    1  N1  LIG X 999      44.789 131.086  22.099  1.00  0.00    -0.072 NA
HETATM    2  N2  LIG X 999      44.706 129.977  22.631  1.00  0.00    -0.162 NA
HETATM    3  N3  LIG X 999      44.626 128.870  23.160  1.00  0.00     0.068 N 
ENDROOT
BRANCH   1   4
HETATM    4  C3  LIG X 999      43.805 131.564  21.170  1.00  0.00     0.104 A 
HETATM    5  C2  LIG X 999      42.631 132.112  21.701  1.00  0.00     0.035 A 
HETATM    6  C1  LIG X 999      41.657 132.665  20.870  1.00  0.00     0.003 A 
HETATM    7  C10 LIG X 999      41.834 132.671  19.488  1.00  0.00     0.012 A 
HETATM    8  C9  LIG X 999      42.975 132.092  18.918  1.00  0.00    -0.023 A 
HETATM    9  C4  LIG X 999      43.973 131.507  19.760  1.00  0.00     0.006 A 
HETATM   10  C8  LIG X 999      43.125 132.069  17.518  1.00  0.00     0.021 A 
HETATM   11  C5  LIG X 999      45.074 130.854  19.153  1.00  0.00     0.024 A 
HETATM   12  C6  LIG X 999      45.177 130.848  17.762  1.00  0.00    -0.023 A 
HETATM   13  C7  LIG X 999      44.242 131.441  16.974  1.00  0.00    -0.024 A 
HETATM   14  C14 LIG X 999      46.246 130.246  16.936  1.00  0.00     0.276 C 
HETATM   15  C11 LIG X 999      44.596 131.297  15.546  1.00  0.00     0.276 C 
HETATM   16  N4  LIG X 999      45.800 130.406  15.516  1.00  0.00    -0.067 N 
HETATM   17  C12 LIG X 999      46.875 131.008  14.694  1.00  0.00     0.272 C 
HETATM   18  C13 LIG X 999      45.439 129.086  14.945  1.00  0.00     0.272 C 
ENDBRANCH   1   4
TORSDOF 1
