REMARK VINA RESULT:      -7.3      1.488      1.910
REMARK  3 active torsions:
REMARK  status: ('A' for Active; 'I' for Inactive)
REMARK       I    between atoms: N1_2  and  C3_4 
REMARK    1  A    between atoms: C3_4  and  O2_6 
REMARK    2  A    between atoms: O2_6  and  C4_7 
REMARK    3  A    between atoms: C13_16  and  N2_17 
ROOT
HETATM    1  C4  LIG X 999      45.453 130.673  17.553  1.00  0.00     0.108 A 
HETATM    2  C5  LIG X 999      46.080 130.521  18.790  1.00  0.00     0.040 A 
HETATM    3  C6  LIG X 999      45.443 130.915  19.962  1.00  0.00     0.015 A 
HETATM    4  C7  LIG X 999      44.171 131.498  19.914  1.00  0.00    -0.024 A 
HETATM    5  C8  LIG X 999      43.543 131.898  21.103  1.00  0.00     0.012 A 
HETATM    6  C9  LIG X 999      42.291 132.510  21.066  1.00  0.00     0.001 A 
HETATM    7  C10 LIG X 999      41.659 132.737  19.844  1.00  0.00     0.001 A 
HETATM    8  C11 LIG X 999      42.269 132.343  18.651  1.00  0.00     0.014 A 
HETATM    9  C12 LIG X 999      43.528 131.700  18.663  1.00  0.00     0.003 A 
HETATM   10  C13 LIG X 999      44.179 131.283  17.469  1.00  0.00     0.071 A 
ENDROOT
BRANCH   1  11
HETATM   11  O2  LIG X 999      46.126 130.211  16.415  1.00  0.00    -0.259 OA
BRANCH  11  12
HETATM   12  C3  LIG X 999      46.523 131.042  15.359  1.00  0.00     0.367 C 
HETATM   13  N1  LIG X 999      47.246 130.489  14.247  1.00  0.00    -0.336 N 
HETATM   14  C1  LIG X 999      47.572 129.061  14.243  1.00  0.00     0.154 C 
HETATM   15  C2  LIG X 999      47.653 131.355  13.137  1.00  0.00     0.154 C 
HETATM   16  O1  LIG X 999      46.231 132.271  15.375  1.00  0.00    -0.238 OA
ENDBRANCH  11  12
ENDBRANCH   1  11
BRANCH  10  17
HETATM   17  N2  LIG X 999      43.590 131.504  16.177  1.00  0.00    -0.396 N 
HETATM   18  H13 LIG X 999      43.355 132.457  15.826  1.00  0.00     0.156 HD
HETATM   19  H14 LIG X 999      43.301 130.700  15.578  1.00  0.00     0.156 HD
ENDBRANCH  10  17
TORSDOF 3
