REMARK VINA RESULT:      -7.7      4.770      6.515
REMARK  3 active torsions:
REMARK  status: ('A' for Active; 'I' for Inactive)
REMARK    1  A    between atoms: C6_6  and  C7_7 
REMARK    2  A    between atoms: C7_7  and  C8_9 
REMARK    3  A    between atoms: C8_9  and  N1_10 
ROOT
HETATM    1  N1  LIG X 999      43.147 130.807  22.115  1.00  0.00    -0.108 NA
HETATM    2  N2  LIG X 999      43.111 131.351  23.219  1.00  0.00    -0.167 NA
HETATM    3  N3  LIG X 999      43.075 131.893  24.322  1.00  0.00     0.068 N 
ENDROOT
BRANCH   1   4
HETATM    4  C8  LIG X 999      43.290 131.592  20.894  1.00  0.00     0.272 C 
BRANCH   4   5
HETATM    5  C7  LIG X 999      44.567 131.240  20.174  1.00  0.00     0.181 C 
HETATM    6  O1  LIG X 999      45.588 130.935  20.852  1.00  0.00    -0.290 OA
BRANCH   5   7
HETATM    7  C6  LIG X 999      44.645 131.219  18.688  1.00  0.00     0.012 A 
HETATM    8  C5  LIG X 999      45.749 130.653  18.018  1.00  0.00     0.027 A 
HETATM    9  C4  LIG X 999      45.806 130.642  16.615  1.00  0.00    -0.025 A 
HETATM   10  C3  LIG X 999      46.907 130.078  15.949  1.00  0.00     0.012 A 
HETATM   11  C11 LIG X 999      44.748 131.203  15.864  1.00  0.00    -0.026 A 
HETATM   12  C2  LIG X 999      46.954 130.072  14.552  1.00  0.00     0.001 A 
HETATM   13  C1  LIG X 999      45.907 130.627  13.811  1.00  0.00     0.001 A 
HETATM   14  C12 LIG X 999      44.807 131.191  14.462  1.00  0.00     0.012 A 
HETATM   15  C10 LIG X 999      43.652 131.768  16.528  1.00  0.00     0.013 A 
HETATM   16  C9  LIG X 999      43.601 131.776  17.924  1.00  0.00     0.016 A 
ENDBRANCH   5   7
ENDBRANCH   4   5
ENDBRANCH   1   4
TORSDOF 3
