REMARK VINA RESULT:      -7.8      0.722      2.156
REMARK  1 active torsions:
REMARK  status: ('A' for Active; 'I' for Inactive)
REMARK    1  A    between atoms: C9_10  and  N2_11 
ROOT
HETATM    1  C1  LIG X 999      46.083 131.692  14.894  1.00  0.00     0.272 C 
HETATM    2  N1  LIG X 999      45.340 130.844  15.854  1.00  0.00    -0.067 N 
HETATM    3  C2  LIG X 999      44.940 129.587  15.177  1.00  0.00     0.272 C 
HETATM    4  C3  LIG X 999      46.186 130.534  17.050  1.00  0.00     0.276 C 
HETATM    5  C4  LIG X 999      45.343 130.841  18.225  1.00  0.00    -0.024 A 
HETATM    6  C5  LIG X 999      45.639 130.625  19.572  1.00  0.00     0.021 A 
HETATM    7  C6  LIG X 999      44.694 131.016  20.541  1.00  0.00    -0.025 A 
HETATM    8  C7  LIG X 999      44.946 130.815  21.905  1.00  0.00     0.014 A 
HETATM    9  C8  LIG X 999      44.004 131.208  22.859  1.00  0.00     0.030 A 
HETATM   10  C9  LIG X 999      42.799 131.808  22.465  1.00  0.00     0.026 A 
HETATM   11  C10 LIG X 999      42.536 132.015  21.103  1.00  0.00     0.041 A 
HETATM   12  C11 LIG X 999      43.472 131.624  20.135  1.00  0.00    -0.023 A 
HETATM   13  C12 LIG X 999      43.216 131.831  18.764  1.00  0.00     0.021 A 
HETATM   14  C13 LIG X 999      44.174 131.423  17.836  1.00  0.00    -0.024 A 
HETATM   15  C14 LIG X 999      44.128 131.560  16.364  1.00  0.00     0.276 C 
ENDROOT
BRANCH  10  16
HETATM   16  N2  LIG X 999      41.841 132.208  23.449  1.00  0.00    -0.399 N 
HETATM   17  H12 LIG X 999      41.592 131.574  24.241  1.00  0.00     0.156 HD
HETATM   18  H13 LIG X 999      41.374 133.140  23.392  1.00  0.00     0.156 HD
ENDBRANCH  10  16
TORSDOF 1
