REMARK VINA RESULT:      -4.6      2.938      6.112
REMARK  3 active torsions:
REMARK  status: ('A' for Active; 'I' for Inactive)
REMARK    1  A    between atoms: C3_3  and  N1_4 
REMARK    2  A    between atoms: C3_3  and  C4_7 
REMARK    3  A    between atoms: C3_3  and  C14_17 
ROOT
HETATM    1  C1  LIG X 999      46.792 133.258  21.610  1.00  0.00     0.015 C 
HETATM    2  C2  LIG X 999      45.831 132.657  21.197  1.00  0.00    -0.075 C 
HETATM    3  C3  LIG X 999      44.646 131.919  20.686  1.00  0.00     0.183 C 
ENDROOT
BRANCH   3   4
HETATM    4  N1  LIG X 999      43.556 132.898  20.564  1.00  0.00    -0.085 NA
HETATM    5  N2  LIG X 999      42.573 132.700  19.844  1.00  0.00    -0.165 NA
HETATM    6  N3  LIG X 999      41.594 132.503  19.127  1.00  0.00     0.068 N 
ENDBRANCH   3   4
BRANCH   3   7
HETATM    7  C4  LIG X 999      44.966 131.318  19.301  1.00  0.00    -0.012 A 
HETATM    8  C5  LIG X 999      45.936 130.301  19.167  1.00  0.00     0.012 A 
HETATM    9  C6  LIG X 999      46.258 129.767  17.917  1.00  0.00     0.013 A 
HETATM   10  C7  LIG X 999      45.629 130.246  16.762  1.00  0.00    -0.026 A 
HETATM   11  C8  LIG X 999      45.949 129.717  15.502  1.00  0.00     0.012 A 
HETATM   12  C12 LIG X 999      44.669 131.278  16.867  1.00  0.00    -0.025 A 
HETATM   13  C9  LIG X 999      45.321 130.210  14.355  1.00  0.00     0.001 A 
HETATM   14  C10 LIG X 999      44.373 131.231  14.457  1.00  0.00     0.001 A 
HETATM   15  C11 LIG X 999      44.047 131.766  15.707  1.00  0.00     0.012 A 
HETATM   16  C13 LIG X 999      44.351 131.808  18.126  1.00  0.00     0.023 A 
ENDBRANCH   3   7
BRANCH   3  17
HETATM   17  C14 LIG X 999      44.213 130.800  21.723  1.00  0.00    -0.005 C 
HETATM   18  C15 LIG X 999      42.752 130.348  21.475  1.00  0.00     0.018 C 
HETATM   19  C16 LIG X 999      45.119 129.547  21.634  1.00  0.00     0.018 C 
HETATM   20  C17 LIG X 999      44.292 131.341  23.176  1.00  0.00     0.018 C 
ENDBRANCH   3  17
TORSDOF 3
