REMARK VINA RESULT:      -6.5      1.236      2.515
REMARK  4 active torsions:
REMARK  status: ('A' for Active; 'I' for Inactive)
REMARK    1  A    between atoms: C3_3  and  O1_4 
REMARK    2  A    between atoms: O1_4  and  C4_5 
REMARK    3  A    between atoms: C13_14  and  C14_15 
REMARK    4  A    between atoms: C14_15  and  O2_16 
ROOT
HETATM    1  C1  LIG X 999      46.477 131.004  13.381  1.00  0.00     0.014 C 
HETATM    2  C2  LIG X 999      45.477 130.910  14.048  1.00  0.00    -0.091 C 
HETATM    3  C3  LIG X 999      44.264 130.796  14.858  1.00  0.00     0.268 C 
ENDROOT
BRANCH   3   4
HETATM    4  O1  LIG X 999      44.264 131.823  15.845  1.00  0.00    -0.339 OA
BRANCH   4   5
HETATM    5  C4  LIG X 999      44.357 131.601  17.230  1.00  0.00     0.079 A 
HETATM    6  C5  LIG X 999      43.370 132.063  18.123  1.00  0.00     0.049 A 
HETATM    7  C6  LIG X 999      43.479 131.816  19.498  1.00  0.00    -0.023 A 
HETATM    8  C7  LIG X 999      42.495 132.275  20.389  1.00  0.00     0.012 A 
HETATM    9  C11 LIG X 999      44.587 131.091  19.994  1.00  0.00    -0.025 A 
HETATM   10  C8  LIG X 999      42.611 132.017  21.757  1.00  0.00     0.001 A 
HETATM   11  C9  LIG X 999      43.706 131.301  22.247  1.00  0.00     0.001 A 
HETATM   12  C10 LIG X 999      44.692 130.838  21.371  1.00  0.00     0.012 A 
HETATM   13  C12 LIG X 999      45.570 130.633  19.108  1.00  0.00     0.024 A 
HETATM   14  C13 LIG X 999      45.470 130.894  17.732  1.00  0.00    -0.001 A 
BRANCH  14  15
HETATM   15  C14 LIG X 999      46.523 130.367  16.795  1.00  0.00     0.205 C 
BRANCH  15  16
HETATM   16  O2  LIG X 999      46.370 128.982  16.656  1.00  0.00    -0.396 OA
HETATM   17  H12 LIG X 999      46.870 128.573  17.409  1.00  0.00     0.209 HD
ENDBRANCH  15  16
ENDBRANCH  14  15
ENDBRANCH   4   5
ENDBRANCH   3   4
TORSDOF 4
