REMARK VINA RESULT:      -4.0      4.992      8.426
REMARK  3 active torsions:
REMARK  status: ('A' for Active; 'I' for Inactive)
REMARK    1  A    between atoms: C3_3  and  O1_4 
REMARK    2  A    between atoms: O1_4  and  C4_5 
REMARK    3  A    between atoms: C15_16  and  C16_17 
ROOT
HETATM    1  C1  LIG X 999      44.559 130.444  21.840  1.00  0.00     0.014 C 
HETATM    2  C2  LIG X 999      44.550 129.449  22.521  1.00  0.00    -0.091 C 
HETATM    3  C3  LIG X 999      44.539 128.240  23.346  1.00  0.00     0.268 C 
ENDROOT
BRANCH   3   4
HETATM    4  O1  LIG X 999      45.032 127.146  22.578  1.00  0.00    -0.339 OA
BRANCH   4   5
HETATM    5  C4  LIG X 999      44.886 125.790  22.919  1.00  0.00     0.083 C 
HETATM    6  C5  LIG X 999      43.712 125.084  22.540  1.00  0.00     0.038 C 
HETATM    7  C6  LIG X 999      43.583 123.691  22.389  1.00  0.00     0.003 C 
HETATM    8  C7  LIG X 999      44.640 122.788  22.235  1.00  0.00     0.002 C 
HETATM    9  C8  LIG X 999      45.866 123.133  21.656  1.00  0.00     0.020 C 
HETATM   10  C9  LIG X 999      47.090 122.695  22.181  1.00  0.00     0.016 C 
HETATM   11  C10 LIG X 999      48.214 122.586  21.287  1.00  0.00    -0.078 C 
HETATM   12  C12 LIG X 999      47.303 122.446  23.553  1.00  0.00     0.020 C 
HETATM   13  C11 LIG X 999      49.155 122.495  20.540  1.00  0.00     0.018 C 
HETATM   14  C13 LIG X 999      46.540 122.981  24.611  1.00  0.00     0.002 C 
HETATM   15  C14 LIG X 999      45.725 124.124  24.525  1.00  0.00     0.017 C 
HETATM   16  C15 LIG X 999      45.949 125.192  23.631  1.00  0.00     0.035 C 
BRANCH  16  17
HETATM   17  C16 LIG X 999      47.313 125.747  23.468  1.00  0.00     0.272 C 
HETATM   18  O2  LIG X 999      47.973 126.161  24.459  1.00  0.00    -0.301 OA
ENDBRANCH  16  17
ENDBRANCH   4   5
ENDBRANCH   3   4
TORSDOF 3
