REMARK VINA RESULT:      -5.7      2.797      6.880
REMARK  6 active torsions:
REMARK  status: ('A' for Active; 'I' for Inactive)
REMARK    1  A    between atoms: S1_2  and  C1_3 
REMARK    2  A    between atoms: C1_3  and  N2_15 
REMARK    3  A    between atoms: N1_4  and  C2_5 
REMARK    4  A    between atoms: N2_15  and  C12_18 
REMARK    5  A    between atoms: C13_19  and  C14_20 
REMARK    6  A    between atoms: C14_20  and  O2_22 
ROOT
HETATM    1  C1  LIG X 999      42.793 130.489  23.784  1.00  0.00     0.266 C 
HETATM    2  N1  LIG X 999      42.923 129.411  24.504  1.00  0.00    -0.219 NA
ENDROOT
BRANCH   1   3
HETATM    3  S1  LIG X 999      43.151 132.068  24.550  1.00  0.00    -0.098 SA
HETATM    4  H1  LIG X 999      44.066 131.483  25.445  1.00  0.00     0.110 HD
ENDBRANCH   1   3
BRANCH   1   5
HETATM    5  N2  LIG X 999      42.414 130.444  22.390  1.00  0.00     0.010 N 
HETATM    6  H9  LIG X 999      41.599 131.080  22.231  1.00  0.00     0.293 HD
HETATM    7  H10 LIG X 999      42.103 129.477  22.166  1.00  0.00     0.293 HD
BRANCH   5   8
HETATM    8  C12 LIG X 999      43.499 130.895  21.549  1.00  0.00     0.164 A 
HETATM    9  C13 LIG X 999      43.371 131.796  20.476  1.00  0.00     0.114 A 
HETATM   10  S2  LIG X 999      44.881 131.946  19.750  1.00  0.00    -0.094 SA
HETATM   11  C16 LIG X 999      45.716 130.924  20.785  1.00  0.00     0.053 A 
HETATM   12  C17 LIG X 999      44.821 130.436  21.723  1.00  0.00     0.046 A 
BRANCH   9  13
HETATM   13  C14 LIG X 999      42.189 132.547  20.017  1.00  0.00     0.302 C 
HETATM   14  O1  LIG X 999      41.503 133.234  20.822  1.00  0.00    -0.259 OA
BRANCH  13  15
HETATM   15  O2  LIG X 999      41.861 132.526  18.659  1.00  0.00    -0.322 OA
HETATM   16  C15 LIG X 999      42.623 131.810  17.694  1.00  0.00     0.213 C 
ENDBRANCH  13  15
ENDBRANCH   9  13
ENDBRANCH   5   8
ENDBRANCH   1   5
BRANCH   2  17
HETATM   17  C2  LIG X 999      42.641 128.081  24.053  1.00  0.00     0.060 A 
HETATM   18  C3  LIG X 999      43.679 127.286  23.554  1.00  0.00     0.032 A 
HETATM   19  C4  LIG X 999      43.420 125.990  23.101  1.00  0.00     0.014 A 
HETATM   20  C5  LIG X 999      42.121 125.467  23.167  1.00  0.00    -0.026 A 
HETATM   21  C6  LIG X 999      41.848 124.166  22.717  1.00  0.00     0.012 A 
HETATM   22  C10 LIG X 999      41.072 126.258  23.699  1.00  0.00    -0.024 A 
HETATM   23  C7  LIG X 999      40.550 123.652  22.801  1.00  0.00     0.001 A 
HETATM   24  C8  LIG X 999      39.518 124.431  23.332  1.00  0.00     0.001 A 
HETATM   25  C9  LIG X 999      39.774 125.730  23.778  1.00  0.00     0.012 A 
HETATM   26  C11 LIG X 999      41.342 127.562  24.139  1.00  0.00     0.044 A 
ENDBRANCH   2  17
TORSDOF 6
