REMARK VINA RESULT:      -7.0      0.975      2.771
REMARK  1 active torsions:
REMARK  status: ('A' for Active; 'I' for Inactive)
REMARK    1  A    between atoms: N1_2  and  C1_3 
ROOT
HETATM    1  C1  LIG X 999      43.234 131.308  23.262  1.00  0.00     0.120 C 
HETATM    2  C2  LIG X 999      42.319 132.018  22.484  1.00  0.00     0.057 C 
HETATM    3  C3  LIG X 999      42.558 132.226  21.118  1.00  0.00    -0.045 C 
HETATM    4  C4  LIG X 999      41.685 133.254  20.441  1.00  0.00     0.049 C 
HETATM    5  C5  LIG X 999      43.675 131.582  20.497  1.00  0.00     0.008 C 
HETATM    6  C6  LIG X 999      43.918 131.528  19.084  1.00  0.00    -0.013 C 
HETATM    7  C7  LIG X 999      42.913 131.744  18.111  1.00  0.00     0.013 C 
HETATM    8  C8  LIG X 999      43.215 131.736  16.748  1.00  0.00     0.001 C 
HETATM    9  C9  LIG X 999      44.509 131.463  16.315  1.00  0.00     0.001 C 
HETATM   10  C10 LIG X 999      45.496 131.141  17.242  1.00  0.00     0.012 C 
HETATM   11  C11 LIG X 999      45.204 131.131  18.616  1.00  0.00    -0.025 C 
HETATM   12  C12 LIG X 999      46.169 130.673  19.515  1.00  0.00     0.014 C 
HETATM   13  C13 LIG X 999      45.868 130.549  20.863  1.00  0.00     0.031 C 
HETATM   14  C14 LIG X 999      44.636 130.983  21.365  1.00  0.00     0.045 C 
HETATM   15  N2  LIG X 999      44.379 130.845  22.698  1.00  0.00    -0.341 N 
HETATM   16  H12 LIG X 999      45.081 130.368  23.313  1.00  0.00     0.167 HD
ENDROOT
BRANCH   1  17
HETATM   17  N1  LIG X 999      43.022 131.124  24.528  1.00  0.00    -0.284 NA
HETATM   18  H1  LIG X 999      43.619 130.498  25.115  1.00  0.00     0.188 HD
ENDBRANCH   1  17
TORSDOF 1
