REMARK VINA RESULT:      -5.1      3.810      7.312
REMARK  5 active torsions:
REMARK  status: ('A' for Active; 'I' for Inactive)
REMARK    1  A    between atoms: C3_3  and  C4_4 
REMARK    2  A    between atoms: C4_4  and  S1_5 
REMARK    3  A    between atoms: S1_5  and  C5_6 
REMARK    4  A    between atoms: C6_7  and  N1_8 
REMARK    5  A    between atoms: C10_12  and  N2_13 
ROOT
HETATM    1  C1  LIG X 999      42.015 132.756  20.478  1.00  0.00     0.112 C 
HETATM    2  C2  LIG X 999      42.928 131.767  21.048  1.00  0.00    -0.110 C 
HETATM    3  C3  LIG X 999      43.684 130.950  21.512  1.00  0.00    -0.097 C 
ENDROOT
BRANCH   3   4
HETATM    4  C4  LIG X 999      44.606 129.956  22.065  1.00  0.00     0.173 C 
BRANCH   4   5
HETATM    5  S1  LIG X 999      44.310 129.735  23.852  1.00  0.00    -0.115 SA
BRANCH   5   6
HETATM    6  C5  LIG X 999      43.366 128.198  23.670  1.00  0.00     0.038 A 
HETATM    7  C6  LIG X 999      41.958 128.227  23.793  1.00  0.00     0.043 A 
HETATM    8  C7  LIG X 999      41.228 127.044  23.672  1.00  0.00     0.031 A 
HETATM    9  C8  LIG X 999      41.862 125.829  23.428  1.00  0.00     0.017 A 
HETATM   10  C9  LIG X 999      43.261 125.758  23.298  1.00  0.00     0.002 A 
HETATM   11  C10 LIG X 999      43.927 124.519  23.050  1.00  0.00     0.045 A 
HETATM   12  C14 LIG X 999      44.022 126.968  23.396  1.00  0.00    -0.004 A 
HETATM   13  C11 LIG X 999      45.315 124.545  22.848  1.00  0.00     0.003 A 
HETATM   14  C12 LIG X 999      46.029 125.697  22.934  1.00  0.00    -0.021 A 
HETATM   15  C18 LIG X 999      46.229 123.402  22.593  1.00  0.00     0.278 C 
HETATM   16  C13 LIG X 999      45.423 126.915  23.216  1.00  0.00     0.023 A 
HETATM   17  C15 LIG X 999      47.473 125.440  22.750  1.00  0.00     0.276 C 
HETATM   18  N3  LIG X 999      47.580 124.002  22.357  1.00  0.00    -0.067 N 
HETATM   19  C16 LIG X 999      47.942 123.893  20.924  1.00  0.00     0.272 C 
HETATM   20  C17 LIG X 999      48.610 123.312  23.168  1.00  0.00     0.272 C 
BRANCH   7  21
HETATM   21  N1  LIG X 999      41.245 129.453  24.020  1.00  0.00    -0.398 N 
HETATM   22  H6  LIG X 999      40.788 129.675  24.931  1.00  0.00     0.156 HD
HETATM   23  H7  LIG X 999      41.181 130.175  23.269  1.00  0.00     0.156 HD
ENDBRANCH   7  21
BRANCH  11  24
HETATM   24  N2  LIG X 999      43.235 123.260  23.028  1.00  0.00    -0.398 N 
HETATM   25  H10 LIG X 999      42.622 122.972  23.821  1.00  0.00     0.156 HD
HETATM   26  H11 LIG X 999      43.210 122.646  22.187  1.00  0.00     0.156 HD
ENDBRANCH  11  24
ENDBRANCH   5   6
ENDBRANCH   4   5
ENDBRANCH   3   4
TORSDOF 5
