REMARK VINA RESULT:      -5.0      8.093     10.319
REMARK  2 active torsions:
REMARK  status: ('A' for Active; 'I' for Inactive)
REMARK    1  A    between atoms: C2_2  and  N1_3 
REMARK    2  A    between atoms: C3_6  and  O1_7 
ROOT
HETATM    1  N1  LIG X 999      39.701 126.488  24.531  1.00  0.00    -0.070 NA
HETATM    2  N2  LIG X 999      38.710 126.702  23.833  1.00  0.00    -0.162 NA
HETATM    3  N3  LIG X 999      37.719 126.920  23.136  1.00  0.00     0.068 N 
ENDROOT
BRANCH   1   4
HETATM    4  C2  LIG X 999      40.755 125.601  24.122  1.00  0.00     0.127 A 
HETATM    5  C1  LIG X 999      42.019 126.093  23.747  1.00  0.00     0.049 A 
HETATM    6  C11 LIG X 999      43.034 125.214  23.351  1.00  0.00    -0.023 A 
HETATM    7  C6  LIG X 999      42.783 123.814  23.329  1.00  0.00    -0.022 A 
HETATM    8  C10 LIG X 999      44.300 125.704  22.972  1.00  0.00     0.021 A 
HETATM    9  C5  LIG X 999      41.522 123.331  23.702  1.00  0.00     0.051 A 
HETATM   10  C7  LIG X 999      43.801 122.926  22.928  1.00  0.00     0.021 A 
HETATM   11  C3  LIG X 999      40.504 124.219  24.101  1.00  0.00     0.100 A 
HETATM   12  C8  LIG X 999      45.044 123.451  22.568  1.00  0.00    -0.024 A 
HETATM   13  C9  LIG X 999      45.284 124.791  22.590  1.00  0.00    -0.024 A 
HETATM   14  C15 LIG X 999      46.238 122.717  22.098  1.00  0.00     0.276 C 
HETATM   15  C12 LIG X 999      46.662 125.079  22.136  1.00  0.00     0.276 C 
HETATM   16  N4  LIG X 999      47.322 123.744  21.978  1.00  0.00    -0.067 N 
HETATM   17  C13 LIG X 999      48.328 123.545  23.049  1.00  0.00     0.272 C 
HETATM   18  C14 LIG X 999      47.993 123.644  20.663  1.00  0.00     0.272 C 
BRANCH  11  19
HETATM   19  O1  LIG X 999      39.230 123.765  24.482  1.00  0.00    -0.353 OA
HETATM   20  C4  LIG X 999      38.688 122.495  24.137  1.00  0.00     0.210 C 
ENDBRANCH  11  19
ENDBRANCH   1   4
TORSDOF 2
