REMARK VINA RESULT:      -8.2      0.000      0.000
REMARK  3 active torsions:
REMARK  status: ('A' for Active; 'I' for Inactive)
REMARK    1  A    between atoms: C1_2  and  C2_4 
REMARK       I    between atoms: N1_6  and  C4_7 
REMARK    2  A    between atoms: C4_7  and  C5_9 
REMARK    3  A    between atoms: C6_10  and  C7_11 
ROOT
HETATM    1  C5  LIG X 999      44.598 130.832  20.799  1.00  0.00     0.000 C 
HETATM    2  C6  LIG X 999      44.744 130.914  19.606  1.00  0.00    -0.057 C 
ENDROOT
BRANCH   1   3
HETATM    3  C4  LIG X 999      44.421 130.723  22.222  1.00  0.00     0.300 C 
HETATM    4  N1  LIG X 999      44.619 129.471  22.894  1.00  0.00    -0.317 N 
HETATM    5  C3  LIG X 999      44.992 128.241  22.256  1.00  0.00     0.172 C 
HETATM    6  C17 LIG X 999      44.484 129.276  24.320  1.00  0.00     0.298 C 
HETATM    7  C2  LIG X 999      44.952 127.240  23.403  1.00  0.00     0.242 C 
HETATM    8  O4  LIG X 999      44.846 127.946  24.625  1.00  0.00    -0.354 OA
HETATM    9  O3  LIG X 999      44.089 131.747  22.878  1.00  0.00    -0.258 OA
BRANCH   7  10
HETATM   10  C1  LIG X 999      46.177 126.375  23.420  1.00  0.00     0.204 C 
HETATM   11  O1  LIG X 999      46.839 126.237  24.482  1.00  0.00    -0.646 OA
HETATM   12  O2  LIG X 999      46.558 125.682  22.277  1.00  0.00    -0.646 OA
ENDBRANCH   7  10
ENDBRANCH   1   3
BRANCH   2  13
HETATM   13  C7  LIG X 999      44.919 131.005  18.180  1.00  0.00     0.019 A 
HETATM   14  C8  LIG X 999      44.013 131.746  17.410  1.00  0.00     0.021 A 
HETATM   15  C9  LIG X 999      44.177 131.839  16.026  1.00  0.00     0.013 A 
HETATM   16  C10 LIG X 999      45.251 131.191  15.397  1.00  0.00    -0.026 A 
HETATM   17  C11 LIG X 999      45.425 131.278  14.007  1.00  0.00     0.012 A 
HETATM   18  C15 LIG X 999      46.169 130.441  16.173  1.00  0.00    -0.025 A 
HETATM   19  C12 LIG X 999      46.500 130.628  13.393  1.00  0.00     0.001 A 
HETATM   20  C13 LIG X 999      47.404 129.887  14.158  1.00  0.00     0.001 A 
HETATM   21  C14 LIG X 999      47.243 129.792  15.543  1.00  0.00     0.012 A 
HETATM   22  C16 LIG X 999      45.995 130.353  17.563  1.00  0.00     0.032 A 
ENDBRANCH   2  13
TORSDOF 3
