REMARK VINA RESULT:      -4.1      2.523      3.671
REMARK  3 active torsions:
REMARK  status: ('A' for Active; 'I' for Inactive)
REMARK    1  A    between atoms: C5_5  and  N1_6 
REMARK    2  A    between atoms: C6_9  and  N4_10 
REMARK    3  A    between atoms: C8_15  and  N7_16 
ROOT
HETATM    1  N1  LIG X 999      43.997 124.799  22.371  1.00  0.00    -0.069 NA
HETATM    2  N2  LIG X 999      44.881 124.200  22.984  1.00  0.00    -0.162 NA
HETATM    3  N3  LIG X 999      45.768 123.604  23.595  1.00  0.00     0.068 N 
ENDROOT
BRANCH   1   4
HETATM    4  C5  LIG X 999      42.841 125.339  23.033  1.00  0.00     0.137 C 
HETATM    5  C4  LIG X 999      41.668 124.554  23.111  1.00  0.00     0.011 A 
HETATM    6  C3  LIG X 999      41.670 123.213  22.673  1.00  0.00     0.015 A 
HETATM    7  C9  LIG X 999      40.468 125.115  23.628  1.00  0.00     0.010 A 
HETATM    8  C2  LIG X 999      40.524 122.428  22.782  1.00  0.00     0.001 A 
HETATM    9  C1  LIG X 999      39.363 122.958  23.336  1.00  0.00     0.001 A 
HETATM   10  C10 LIG X 999      39.332 124.286  23.764  1.00  0.00     0.015 A 
HETATM   11  C8  LIG X 999      40.448 126.476  24.022  1.00  0.00     0.128 C 
HETATM   12  C7  LIG X 999      41.641 127.213  24.030  1.00  0.00     0.100 C 
HETATM   13  C6  LIG X 999      42.842 126.647  23.577  1.00  0.00     0.149 C 
HETATM   14 CL1  LIG X 999      41.634 128.876  24.625  1.00  0.00    -0.079 Cl
BRANCH  11  15
HETATM   15  N7  LIG X 999      39.242 127.141  24.434  1.00  0.00    -0.070 NA
HETATM   16  N8  LIG X 999      38.209 127.094  23.764  1.00  0.00    -0.162 NA
HETATM   17  N9  LIG X 999      37.178 127.050  23.096  1.00  0.00     0.068 N 
ENDBRANCH  11  15
BRANCH  13  18
HETATM   18  N4  LIG X 999      44.047 127.413  23.723  1.00  0.00    -0.068 NA
HETATM   19  N5  LIG X 999      44.255 128.438  23.072  1.00  0.00    -0.162 NA
HETATM   20  N6  LIG X 999      44.467 129.460  22.419  1.00  0.00     0.068 N 
ENDBRANCH  13  18
ENDBRANCH   1   4
TORSDOF 3
