REMARK VINA RESULT:      -3.3      3.973      6.361
REMARK  5 active torsions:
REMARK  status: ('A' for Active; 'I' for Inactive)
REMARK    1  A    between atoms: C3_3  and  O1_4 
REMARK    2  A    between atoms: O1_4  and  C4_5 
REMARK    3  A    between atoms: C5_6  and  C6_7 
REMARK    4  A    between atoms: C6_7  and  O2_8 
REMARK    5  A    between atoms: C17_20  and  N1_21 
ROOT
HETATM    1  C1  LIG X 999      45.746 131.666  16.637  1.00  0.00     0.014 C 
HETATM    2  C2  LIG X 999      45.737 130.751  17.422  1.00  0.00    -0.091 C 
HETATM    3  C3  LIG X 999      45.724 129.638  18.377  1.00  0.00     0.268 C 
ENDROOT
BRANCH   3   4
HETATM    4  O1  LIG X 999      46.105 130.090  19.676  1.00  0.00    -0.336 OA
BRANCH   4   5
HETATM    5  C4  LIG X 999      45.217 130.078  20.759  1.00  0.00     0.108 C 
HETATM    6  C5  LIG X 999      44.298 131.128  20.947  1.00  0.00     0.012 C 
HETATM    7  C7  LIG X 999      43.509 131.152  22.129  1.00  0.00    -0.014 C 
HETATM    8  C8  LIG X 999      42.658 132.244  22.426  1.00  0.00     0.013 C 
HETATM    9  C12 LIG X 999      43.606 130.081  23.072  1.00  0.00    -0.012 C 
HETATM   10  C9  LIG X 999      42.010 132.336  23.653  1.00  0.00     0.001 C 
HETATM   11  C10 LIG X 999      42.222 131.369  24.625  1.00  0.00     0.001 C 
HETATM   12  C11 LIG X 999      43.028 130.267  24.349  1.00  0.00     0.013 C 
HETATM   13  C13 LIG X 999      44.357 128.912  22.737  1.00  0.00     0.013 C 
HETATM   14  C14 LIG X 999      44.270 127.653  23.416  1.00  0.00    -0.045 C 
HETATM   15  C18 LIG X 999      45.236 128.983  21.628  1.00  0.00     0.105 C 
HETATM   16  C15 LIG X 999      43.120 127.245  24.305  1.00  0.00     0.049 C 
HETATM   17  C16 LIG X 999      45.220 126.657  23.142  1.00  0.00     0.063 C 
HETATM   18  C17 LIG X 999      46.153 126.839  22.117  1.00  0.00     0.186 C 
HETATM   19  N4  LIG X 999      46.104 127.967  21.374  1.00  0.00    -0.223 NA
BRANCH   6  20
HETATM   20  C6  LIG X 999      44.154 132.187  19.864  1.00  0.00     0.206 C 
BRANCH  20  21
HETATM   21  O2  LIG X 999      43.016 131.924  19.087  1.00  0.00    -0.396 OA
HETATM   22  H6  LIG X 999      42.332 131.534  19.691  1.00  0.00     0.209 HD
ENDBRANCH  20  21
ENDBRANCH   6  20
BRANCH  18  23
HETATM   23  N1  LIG X 999      47.125 125.837  21.789  1.00  0.00    -0.052 NA
HETATM   24  N2  LIG X 999      46.973 124.650  22.081  1.00  0.00    -0.160 NA
HETATM   25  N3  LIG X 999      46.823 123.464  22.373  1.00  0.00     0.068 N 
ENDBRANCH  18  23
ENDBRANCH   4   5
ENDBRANCH   3   4
TORSDOF 5
