MODEL 1
REMARK VINA RESULT:      -9.3      0.000      0.000
REMARK  6 active torsions:
REMARK  status: ('A' for Active; 'I' for Inactive)
REMARK    1  A    between atoms: O1_2  and  C1_3 
REMARK    2  A    between atoms: C1_3  and  C4_6 
REMARK    3  A    between atoms: C4_6  and  O2_7 
REMARK    4  A    between atoms: C4_6  and  O3_9 
REMARK    5  A    between atoms: O3_9  and  C5_10 
REMARK    6  A    between atoms: C10_15  and  N1_16 
ROOT
HETATM    1  N1  LIG X 999      42.757 131.747  23.333  1.00  0.00    -0.073 NA
HETATM    2  N2  LIG X 999      42.312 130.797  23.980  1.00  0.00    -0.162 NA
HETATM    3  N3  LIG X 999      41.866 129.849  24.625  1.00  0.00     0.068 N 
ENDROOT
BRANCH   1   4
HETATM    4  C10 LIG X 999      43.451 131.571  22.091  1.00  0.00     0.094 A 
HETATM    5  C9  LIG X 999      42.760 131.793  20.894  1.00  0.00     0.046 A 
HETATM    6  C8  LIG X 999      43.404 131.632  19.658  1.00  0.00    -0.024 A 
HETATM    7  C7  LIG X 999      42.713 131.851  18.459  1.00  0.00     0.015 A 
HETATM    8  C13 LIG X 999      44.763 131.242  19.620  1.00  0.00    -0.023 A 
HETATM    9  C6  LIG X 999      43.363 131.687  17.233  1.00  0.00     0.038 A 
HETATM   10  C5  LIG X 999      44.709 131.309  17.181  1.00  0.00     0.073 A 
HETATM   11  C14 LIG X 999      45.408 131.080  18.383  1.00  0.00     0.049 A 
HETATM   12  C12 LIG X 999      45.453 131.019  20.820  1.00  0.00     0.014 A 
HETATM   13  C11 LIG X 999      44.804 131.182  22.047  1.00  0.00     0.035 A 
BRANCH  10  14
HETATM   14  O3  LIG X 999      45.301 131.162  15.916  1.00  0.00    -0.314 OA
BRANCH  14  15
HETATM   15  C4  LIG X 999      45.367 129.952  15.157  1.00  0.00     0.321 C 
BRANCH  15  16
HETATM   16  C1  LIG X 999      46.593 129.984  14.289  1.00  0.00     0.094 C 
HETATM   17  C2  LIG X 999      46.796 131.013  13.447  1.00  0.00     0.006 C 
HETATM   18  C3  LIG X 999      47.993 131.115  12.552  1.00  0.00     0.038 C 
BRANCH  16  19
HETATM   19  O1  LIG X 999      47.499 128.925  14.392  1.00  0.00    -0.360 OA
HETATM   20  H1  LIG X 999      48.181 128.704  13.676  1.00  0.00     0.217 HD
ENDBRANCH  16  19
ENDBRANCH  15  16
BRANCH  15  21
HETATM   21  O2  LIG X 999      45.445 128.846  16.018  1.00  0.00    -0.365 OA
HETATM   22  H7  LIG X 999      45.004 128.087  15.559  1.00  0.00     0.213 HD
ENDBRANCH  15  21
ENDBRANCH  14  15
ENDBRANCH  10  14
ENDBRANCH   1   4
TORSDOF 6
ENDMDL
MODEL 2
REMARK VINA RESULT:      -8.2      5.211      7.574
REMARK  6 active torsions:
REMARK  status: ('A' for Active; 'I' for Inactive)
REMARK    1  A    between atoms: O1_2  and  C1_3 
REMARK    2  A    between atoms: C1_3  and  C4_6 
REMARK    3  A    between atoms: C4_6  and  O2_7 
REMARK    4  A    between atoms: C4_6  and  O3_9 
REMARK    5  A    between atoms: O3_9  and  C5_10 
REMARK    6  A    between atoms: C10_15  and  N1_16 
ROOT
HETATM    1  N1  LIG X 999      45.104 130.980  14.264  1.00  0.00    -0.073 NA
HETATM    2  N2  LIG X 999      46.172 130.976  13.647  1.00  0.00    -0.162 NA
HETATM    3  N3  LIG X 999      47.237 130.974  13.031  1.00  0.00     0.068 N 
ENDROOT
BRANCH   1   4
HETATM    4  C10 LIG X 999      45.046 131.011  15.696  1.00  0.00     0.094 A 
HETATM    5  C9  LIG X 999      43.894 131.515  16.313  1.00  0.00     0.046 A 
HETATM    6  C8  LIG X 999      43.798 131.562  17.712  1.00  0.00    -0.024 A 
HETATM    7  C7  LIG X 999      42.647 132.069  18.331  1.00  0.00     0.015 A 
HETATM    8  C13 LIG X 999      44.872 131.099  18.506  1.00  0.00    -0.023 A 
HETATM    9  C6  LIG X 999      42.562 132.113  19.725  1.00  0.00     0.038 A 
HETATM   10  C5  LIG X 999      43.614 131.650  20.523  1.00  0.00     0.073 A 
HETATM   11  C14 LIG X 999      44.777 131.147  19.906  1.00  0.00     0.049 A 
HETATM   12  C12 LIG X 999      46.025 130.596  17.885  1.00  0.00     0.014 A 
HETATM   13  C11 LIG X 999      46.112 130.552  16.491  1.00  0.00     0.035 A 
BRANCH  10  14
HETATM   14  O3  LIG X 999      43.462 131.724  21.917  1.00  0.00    -0.314 OA
BRANCH  14  15
HETATM   15  C4  LIG X 999      42.826 130.746  22.744  1.00  0.00     0.321 C 
BRANCH  15  16
HETATM   16  C1  LIG X 999      43.879 129.938  23.447  1.00  0.00     0.094 C 
HETATM   17  C2  LIG X 999      44.052 128.641  23.137  1.00  0.00     0.006 C 
HETATM   18  C3  LIG X 999      45.081 127.772  23.794  1.00  0.00     0.038 C 
BRANCH  16  19
HETATM   19  O1  LIG X 999      44.661 130.576  24.415  1.00  0.00    -0.360 OA
HETATM   20  H1  LIG X 999      45.666 130.472  24.476  1.00  0.00     0.217 HD
ENDBRANCH  16  19
ENDBRANCH  15  16
BRANCH  15  21
HETATM   21  O2  LIG X 999      42.018 131.377  23.703  1.00  0.00    -0.365 OA
HETATM   22  H7  LIG X 999      42.535 132.143  24.061  1.00  0.00     0.213 HD
ENDBRANCH  15  21
ENDBRANCH  14  15
ENDBRANCH  10  14
ENDBRANCH   1   4
TORSDOF 6
ENDMDL
MODEL 3
REMARK VINA RESULT:      -7.9      5.211      7.799
REMARK  6 active torsions:
REMARK  status: ('A' for Active; 'I' for Inactive)
REMARK    1  A    between atoms: O1_2  and  C1_3 
REMARK    2  A    between atoms: C1_3  and  C4_6 
REMARK    3  A    between atoms: C4_6  and  O2_7 
REMARK    4  A    between atoms: C4_6  and  O3_9 
REMARK    5  A    between atoms: O3_9  and  C5_10 
REMARK    6  A    between atoms: C10_15  and  N1_16 
ROOT
HETATM    1  N1  LIG X 999      45.838 130.266  14.155  1.00  0.00    -0.073 NA
HETATM    2  N2  LIG X 999      46.832 130.813  13.674  1.00  0.00    -0.162 NA
HETATM    3  N3  LIG X 999      47.823 131.359  13.192  1.00  0.00     0.068 N 
ENDROOT
BRANCH   1   4
HETATM    4  C10 LIG X 999      45.277 130.663  15.413  1.00  0.00     0.094 A 
HETATM    5  C9  LIG X 999      45.961 130.335  16.591  1.00  0.00     0.046 A 
HETATM    6  C8  LIG X 999      45.446 130.706  17.841  1.00  0.00    -0.024 A 
HETATM    7  C7  LIG X 999      46.127 130.376  19.021  1.00  0.00     0.015 A 
HETATM    8  C13 LIG X 999      44.225 131.416  17.915  1.00  0.00    -0.023 A 
HETATM    9  C6  LIG X 999      45.605 130.750  20.261  1.00  0.00     0.038 A 
HETATM   10  C5  LIG X 999      44.402 131.459  20.349  1.00  0.00     0.073 A 
HETATM   11  C14 LIG X 999      43.708 131.788  19.168  1.00  0.00     0.049 A 
HETATM   12  C12 LIG X 999      43.542 131.743  16.735  1.00  0.00     0.014 A 
HETATM   13  C11 LIG X 999      44.062 131.370  15.493  1.00  0.00     0.035 A 
BRANCH  10  14
HETATM   14  O3  LIG X 999      43.934 131.803  21.628  1.00  0.00    -0.314 OA
BRANCH  14  15
HETATM   15  C4  LIG X 999      43.091 130.998  22.456  1.00  0.00     0.321 C 
BRANCH  15  16
HETATM   16  C1  LIG X 999      43.947 130.180  23.380  1.00  0.00     0.094 C 
HETATM   17  C2  LIG X 999      44.086 128.858  23.177  1.00  0.00     0.006 C 
HETATM   18  C3  LIG X 999      44.922 127.978  24.054  1.00  0.00     0.038 C 
BRANCH  16  19
HETATM   19  O1  LIG X 999      44.585 130.835  24.438  1.00  0.00    -0.360 OA
HETATM   20  H1  LIG X 999      45.387 131.440  24.315  1.00  0.00     0.217 HD
ENDBRANCH  16  19
ENDBRANCH  15  16
BRANCH  15  21
HETATM   21  O2  LIG X 999      42.244 131.816  23.221  1.00  0.00    -0.365 OA
HETATM   22  H7  LIG X 999      41.314 131.608  22.950  1.00  0.00     0.213 HD
ENDBRANCH  15  21
ENDBRANCH  14  15
ENDBRANCH  10  14
ENDBRANCH   1   4
TORSDOF 6
ENDMDL
MODEL 4
REMARK VINA RESULT:      -7.5      1.348      2.289
REMARK  6 active torsions:
REMARK  status: ('A' for Active; 'I' for Inactive)
REMARK    1  A    between atoms: O1_2  and  C1_3 
REMARK    2  A    between atoms: C1_3  and  C4_6 
REMARK    3  A    between atoms: C4_6  and  O2_7 
REMARK    4  A    between atoms: C4_6  and  O3_9 
REMARK    5  A    between atoms: O3_9  and  C5_10 
REMARK    6  A    between atoms: C10_15  and  N1_16 
ROOT
HETATM    1  N1  LIG X 999      42.226 132.405  22.673  1.00  0.00    -0.073 NA
HETATM    2  N2  LIG X 999      42.899 132.071  23.649  1.00  0.00    -0.162 NA
HETATM    3  N3  LIG X 999      43.570 131.736  24.625  1.00  0.00     0.068 N 
ENDROOT
BRANCH   1   4
HETATM    4  C10 LIG X 999      42.663 132.181  21.326  1.00  0.00     0.094 A 
HETATM    5  C9  LIG X 999      43.876 131.514  21.113  1.00  0.00     0.046 A 
HETATM    6  C8  LIG X 999      44.338 131.275  19.810  1.00  0.00    -0.024 A 
HETATM    7  C7  LIG X 999      45.553 130.611  19.594  1.00  0.00     0.015 A 
HETATM    8  C13 LIG X 999      43.574 131.711  18.702  1.00  0.00    -0.023 A 
HETATM    9  C6  LIG X 999      46.005 130.378  18.293  1.00  0.00     0.038 A 
HETATM   10  C5  LIG X 999      45.256 130.797  17.188  1.00  0.00     0.073 A 
HETATM   11  C14 LIG X 999      44.037 131.472  17.398  1.00  0.00     0.049 A 
HETATM   12  C12 LIG X 999      42.360 132.378  18.919  1.00  0.00     0.014 A 
HETATM   13  C11 LIG X 999      41.907 132.612  20.220  1.00  0.00     0.035 A 
BRANCH  10  14
HETATM   14  O3  LIG X 999      45.768 130.531  15.908  1.00  0.00    -0.314 OA
BRANCH  14  15
HETATM   15  C4  LIG X 999      46.072 131.506  14.908  1.00  0.00     0.321 C 
BRANCH  15  16
HETATM   16  C1  LIG X 999      47.161 130.975  14.020  1.00  0.00     0.094 C 
HETATM   17  C2  LIG X 999      47.601 129.713  14.173  1.00  0.00     0.006 C 
HETATM   18  C3  LIG X 999      48.681 129.113  13.327  1.00  0.00     0.038 C 
BRANCH  16  19
HETATM   19  O1  LIG X 999      47.689 131.826  13.044  1.00  0.00    -0.360 OA
HETATM   20  H1  LIG X 999      47.590 131.662  12.050  1.00  0.00     0.217 HD
ENDBRANCH  16  19
ENDBRANCH  15  16
BRANCH  15  21
HETATM   21  O2  LIG X 999      44.934 131.769  14.129  1.00  0.00    -0.365 OA
HETATM   22  H7  LIG X 999      44.654 132.699  14.325  1.00  0.00     0.213 HD
ENDBRANCH  15  21
ENDBRANCH  14  15
ENDBRANCH  10  14
ENDBRANCH   1   4
TORSDOF 6
ENDMDL
MODEL 5
REMARK VINA RESULT:      -6.8      5.218      7.679
REMARK  6 active torsions:
REMARK  status: ('A' for Active; 'I' for Inactive)
REMARK    1  A    between atoms: O1_2  and  C1_3 
REMARK    2  A    between atoms: C1_3  and  C4_6 
REMARK    3  A    between atoms: C4_6  and  O2_7 
REMARK    4  A    between atoms: C4_6  and  O3_9 
REMARK    5  A    between atoms: O3_9  and  C5_10 
REMARK    6  A    between atoms: C10_15  and  N1_16 
ROOT
HETATM    1  N1  LIG X 999      44.645 131.523  15.704  1.00  0.00    -0.073 NA
HETATM    2  N2  LIG X 999      43.912 131.603  14.716  1.00  0.00    -0.162 NA
HETATM    3  N3  LIG X 999      43.181 131.680  13.730  1.00  0.00     0.068 N 
ENDROOT
BRANCH   1   4
HETATM    4  C10 LIG X 999      44.138 131.598  17.043  1.00  0.00     0.094 A 
HETATM    5  C9  LIG X 999      45.027 131.429  18.112  1.00  0.00     0.046 A 
HETATM    6  C8  LIG X 999      44.570 131.495  19.436  1.00  0.00    -0.024 A 
HETATM    7  C7  LIG X 999      45.457 131.322  20.507  1.00  0.00     0.015 A 
HETATM    8  C13 LIG X 999      43.201 131.735  19.696  1.00  0.00    -0.023 A 
HETATM    9  C6  LIG X 999      44.992 131.390  21.823  1.00  0.00     0.038 A 
HETATM   10  C5  LIG X 999      43.642 131.634  22.094  1.00  0.00     0.073 A 
HETATM   11  C14 LIG X 999      42.743 131.801  21.022  1.00  0.00     0.049 A 
HETATM   12  C12 LIG X 999      42.313 131.903  18.624  1.00  0.00     0.014 A 
HETATM   13  C11 LIG X 999      42.776 131.836  17.307  1.00  0.00     0.035 A 
BRANCH  10  14
HETATM   14  O3  LIG X 999      43.242 131.689  23.439  1.00  0.00    -0.314 OA
BRANCH  14  15
HETATM   15  C4  LIG X 999      43.482 130.683  24.427  1.00  0.00     0.321 C 
BRANCH  15  16
HETATM   16  C1  LIG X 999      42.901 129.381  23.952  1.00  0.00     0.094 C 
HETATM   17  C2  LIG X 999      43.648 128.264  23.967  1.00  0.00     0.006 C 
HETATM   18  C3  LIG X 999      43.139 126.931  23.511  1.00  0.00     0.038 C 
BRANCH  16  19
HETATM   19  O1  LIG X 999      41.576 129.377  23.505  1.00  0.00    -0.360 OA
HETATM   20  H1  LIG X 999      41.126 128.563  23.106  1.00  0.00     0.217 HD
ENDBRANCH  16  19
ENDBRANCH  15  16
BRANCH  15  21
HETATM   21  O2  LIG X 999      44.862 130.522  24.625  1.00  0.00    -0.365 OA
HETATM   22  H7  LIG X 999      45.061 130.821  25.549  1.00  0.00     0.213 HD
ENDBRANCH  15  21
ENDBRANCH  14  15
ENDBRANCH  10  14
ENDBRANCH   1   4
TORSDOF 6
ENDMDL
MODEL 6
REMARK VINA RESULT:      -6.7      4.979      7.537
REMARK  6 active torsions:
REMARK  status: ('A' for Active; 'I' for Inactive)
REMARK    1  A    between atoms: O1_2  and  C1_3 
REMARK    2  A    between atoms: C1_3  and  C4_6 
REMARK    3  A    between atoms: C4_6  and  O2_7 
REMARK    4  A    between atoms: C4_6  and  O3_9 
REMARK    5  A    between atoms: O3_9  and  C5_10 
REMARK    6  A    between atoms: C10_15  and  N1_16 
ROOT
HETATM    1  N1  LIG X 999      44.946 131.292  14.904  1.00  0.00    -0.073 NA
HETATM    2  N2  LIG X 999      43.869 131.479  14.334  1.00  0.00    -0.162 NA
HETATM    3  N3  LIG X 999      42.795 131.665  13.763  1.00  0.00     0.068 N 
ENDROOT
BRANCH   1   4
HETATM    4  C10 LIG X 999      45.044 131.145  16.327  1.00  0.00     0.094 A 
HETATM    5  C9  LIG X 999      44.025 131.668  17.132  1.00  0.00     0.046 A 
HETATM    6  C8  LIG X 999      44.085 131.544  18.528  1.00  0.00    -0.024 A 
HETATM    7  C7  LIG X 999      43.068 132.070  19.336  1.00  0.00     0.015 A 
HETATM    8  C13 LIG X 999      45.183 130.886  19.128  1.00  0.00    -0.023 A 
HETATM    9  C6  LIG X 999      43.137 131.942  20.725  1.00  0.00     0.038 A 
HETATM   10  C5  LIG X 999      44.214 131.287  21.332  1.00  0.00     0.073 A 
HETATM   11  C14 LIG X 999      45.244 130.762  20.526  1.00  0.00     0.049 A 
HETATM   12  C12 LIG X 999      46.203 130.364  18.320  1.00  0.00     0.014 A 
HETATM   13  C11 LIG X 999      46.135 130.491  16.930  1.00  0.00     0.035 A 
BRANCH  10  14
HETATM   14  O3  LIG X 999      44.221 131.194  22.733  1.00  0.00    -0.314 OA
BRANCH  14  15
HETATM   15  C4  LIG X 999      44.089 129.991  23.494  1.00  0.00     0.321 C 
BRANCH  15  16
HETATM   16  C1  LIG X 999      42.630 129.674  23.661  1.00  0.00     0.094 C 
HETATM   17  C2  LIG X 999      42.219 128.395  23.711  1.00  0.00     0.006 C 
HETATM   18  C3  LIG X 999      40.783 128.001  23.876  1.00  0.00     0.038 C 
BRANCH  16  19
HETATM   19  O1  LIG X 999      41.732 130.742  23.762  1.00  0.00    -0.360 OA
HETATM   20  H1  LIG X 999      42.023 131.703  23.889  1.00  0.00     0.217 HD
ENDBRANCH  16  19
ENDBRANCH  15  16
BRANCH  15  21
HETATM   21  O2  LIG X 999      44.714 128.926  22.826  1.00  0.00    -0.365 OA
HETATM   22  H7  LIG X 999      44.126 128.670  22.070  1.00  0.00     0.213 HD
ENDBRANCH  15  21
ENDBRANCH  14  15
ENDBRANCH  10  14
ENDBRANCH   1   4
TORSDOF 6
ENDMDL
