REMARK VINA RESULT:      -5.7      2.858      6.541
REMARK  2 active torsions:
REMARK  status: ('A' for Active; 'I' for Inactive)
REMARK    1  A    between atoms: O1_2  and  C2_3 
REMARK    2  A    between atoms: C11_12  and  N1_13 
ROOT
HETATM    1  C2  LIG X 999      45.728 130.650  14.918  1.00  0.00     0.095 A 
HETATM    2  C3  LIG X 999      46.235 130.383  16.206  1.00  0.00     0.051 A 
HETATM    3  C4  LIG X 999      45.499 130.728  17.347  1.00  0.00    -0.023 A 
HETATM    4  C5  LIG X 999      46.004 130.459  18.635  1.00  0.00     0.021 A 
HETATM    5  C6  LIG X 999      45.239 130.823  19.743  1.00  0.00    -0.024 A 
HETATM    6  C7  LIG X 999      44.024 131.422  19.605  1.00  0.00    -0.024 A 
HETATM    7  C8  LIG X 999      43.485 131.700  18.348  1.00  0.00     0.021 A 
HETATM    8  C9  LIG X 999      44.229 131.353  17.203  1.00  0.00    -0.023 A 
HETATM    9  C10 LIG X 999      43.730 131.616  15.922  1.00  0.00     0.044 A 
HETATM   10  C11 LIG X 999      44.470 131.269  14.782  1.00  0.00     0.060 A 
HETATM   11  C12 LIG X 999      43.416 131.674  20.929  1.00  0.00     0.276 C 
HETATM   12  N2  LIG X 999      44.467 131.310  21.932  1.00  0.00    -0.067 N 
HETATM   13  C13 LIG X 999      43.909 130.418  22.973  1.00  0.00     0.272 C 
HETATM   14  C14 LIG X 999      44.996 132.534  22.580  1.00  0.00     0.272 C 
HETATM   15  C15 LIG X 999      45.558 130.619  21.173  1.00  0.00     0.276 C 
ENDROOT
BRANCH  10  16
HETATM   16  N1  LIG X 999      43.933 131.552  13.484  1.00  0.00    -0.397 N 
HETATM   17  H8  LIG X 999      43.391 130.827  12.963  1.00  0.00     0.156 HD
HETATM   18  H9  LIG X 999      44.069 132.480  13.028  1.00  0.00     0.156 HD
ENDBRANCH  10  16
BRANCH   1  19
HETATM   19  O1  LIG X 999      46.445 130.315  13.757  1.00  0.00    -0.354 OA
HETATM   20  C1  LIG X 999      47.472 129.330  13.696  1.00  0.00     0.210 C 
ENDBRANCH   1  19
TORSDOF 2
