REMARK VINA RESULT:      -8.0      1.761      2.652
REMARK  8 active torsions:
REMARK  status: ('A' for Active; 'I' for Inactive)
REMARK    1  A    between atoms: O1_2  and  C1_3 
REMARK    2  A    between atoms: C1_3  and  C15_19 
REMARK    3  A    between atoms: N1_4  and  C2_5 
REMARK    4  A    between atoms: C2_5  and  C3_6 
REMARK    5  A    between atoms: C3_6  and  C4_7 
REMARK    6  A    between atoms: C4_7  and  O2_8 
REMARK    7  A    between atoms: O2_8  and  C5_9 
REMARK    8  A    between atoms: C15_19  and  C16_20 
ROOT
HETATM    1  C4  LIG X 999      42.668 132.118  17.542  1.00  0.00     0.177 C 
ENDROOT
BRANCH   1   2
HETATM    2  C3  LIG X 999      41.950 131.734  18.841  1.00  0.00     0.048 C 
BRANCH   2   3
HETATM    3  C2  LIG X 999      42.532 132.468  20.058  1.00  0.00     0.153 C 
BRANCH   3   4
HETATM    4  N1  LIG X 999      43.006 131.533  21.078  1.00  0.00    -0.271 NA
HETATM    5  C1  LIG X 999      44.240 131.150  21.250  1.00  0.00     0.132 C 
BRANCH   5   6
HETATM    6  O1  LIG X 999      45.280 131.594  20.426  1.00  0.00    -0.348 OA
HETATM    7  H1  LIG X 999      45.537 132.567  20.326  1.00  0.00     0.219 HD
ENDBRANCH   5   6
BRANCH   5   8
HETATM    8  C15 LIG X 999      44.571 130.213  22.377  1.00  0.00     0.089 C 
BRANCH   8   9
HETATM    9  C16 LIG X 999      43.696 130.416  23.634  1.00  0.00    -0.015 C 
HETATM   10  C17 LIG X 999      43.684 129.173  24.531  1.00  0.00     0.010 C 
HETATM   11  C18 LIG X 999      44.105 131.664  24.429  1.00  0.00     0.010 C 
ENDBRANCH   8   9
ENDBRANCH   5   8
ENDBRANCH   3   4
ENDBRANCH   2   3
ENDBRANCH   1   2
BRANCH   1  12
HETATM   12  O2  LIG X 999      44.084 132.035  17.708  1.00  0.00    -0.351 OA
BRANCH  12  13
HETATM   13  C5  LIG X 999      44.975 131.352  16.863  1.00  0.00     0.069 A 
HETATM   14  C6  LIG X 999      45.338 130.047  17.213  1.00  0.00     0.037 A 
HETATM   15  C7  LIG X 999      46.225 129.313  16.421  1.00  0.00     0.015 A 
HETATM   16  C8  LIG X 999      46.770 129.883  15.263  1.00  0.00    -0.026 A 
HETATM   17  C9  LIG X 999      47.665 129.157  14.462  1.00  0.00     0.012 A 
HETATM   18  C13 LIG X 999      46.415 131.203  14.899  1.00  0.00    -0.023 A 
HETATM   19  C10 LIG X 999      48.207 129.738  13.312  1.00  0.00     0.001 A 
HETATM   20  C11 LIG X 999      47.861 131.044  12.955  1.00  0.00     0.001 A 
HETATM   21  C12 LIG X 999      46.970 131.776  13.743  1.00  0.00     0.012 A 
HETATM   22  C14 LIG X 999      45.517 131.929  15.697  1.00  0.00     0.049 A 
ENDBRANCH  12  13
ENDBRANCH   1  12
TORSDOF 8
