REMARK VINA RESULT:      -5.9      1.733      2.434
REMARK  4 active torsions:
REMARK  status: ('A' for Active; 'I' for Inactive)
REMARK       I    between atoms: N1_1  and  C1_2 
REMARK    1  A    between atoms: C1_2  and  C2_4 
REMARK    2  A    between atoms: C11_13  and  O2_14 
REMARK    3  A    between atoms: O2_14  and  C12_15 
REMARK    4  A    between atoms: C12_15  and  C13_17 
ROOT
HETATM    1  C2  LIG X 999      43.449 131.912  19.618  1.00  0.00     0.068 A 
HETATM    2  C3  LIG X 999      43.227 131.758  18.235  1.00  0.00     0.032 A 
HETATM    3  C4  LIG X 999      44.186 131.153  17.413  1.00  0.00    -0.025 A 
HETATM    4  C5  LIG X 999      43.958 131.005  16.035  1.00  0.00     0.012 A 
HETATM    5  C6  LIG X 999      44.917 130.392  15.225  1.00  0.00     0.001 A 
HETATM    6  C7  LIG X 999      46.108 129.920  15.782  1.00  0.00     0.001 A 
HETATM    7  C8  LIG X 999      46.347 130.061  17.152  1.00  0.00     0.012 A 
HETATM    8  C9  LIG X 999      45.391 130.679  17.975  1.00  0.00    -0.023 A 
HETATM    9  C10 LIG X 999      45.620 130.825  19.348  1.00  0.00     0.050 A 
HETATM   10  C11 LIG X 999      44.668 131.450  20.174  1.00  0.00     0.096 A 
ENDROOT
BRANCH  10  11
HETATM   11  O2  LIG X 999      44.893 131.571  21.556  1.00  0.00    -0.274 OA
BRANCH  11  12
HETATM   12  C12 LIG X 999      44.276 130.799  22.550  1.00  0.00     0.298 C 
HETATM   13  O3  LIG X 999      43.538 131.345  23.416  1.00  0.00    -0.259 OA
BRANCH  12  14
HETATM   14  C13 LIG X 999      44.444 129.329  22.542  1.00  0.00     0.039 A 
HETATM   15  C14 LIG X 999      45.508 128.740  21.835  1.00  0.00     0.017 A 
HETATM   16  C15 LIG X 999      45.669 127.351  21.826  1.00  0.00     0.001 A 
HETATM   17  C16 LIG X 999      44.774 126.536  22.523  1.00  0.00     0.000 A 
HETATM   18  C17 LIG X 999      43.715 127.110  23.230  1.00  0.00     0.001 A 
HETATM   19  C18 LIG X 999      43.549 128.498  23.242  1.00  0.00     0.017 A 
ENDBRANCH  12  14
ENDBRANCH  11  12
ENDBRANCH  10  11
BRANCH   1  20
HETATM   20  C1  LIG X 999      42.399 132.565  20.447  1.00  0.00     0.273 C 
HETATM   21  N1  LIG X 999      42.070 132.076  21.747  1.00  0.00    -0.263 NA
HETATM   22  H1  LIG X 999      41.333 132.539  22.326  1.00  0.00     0.190 HD
HETATM   23  O1  LIG X 999      41.785 133.576  20.010  1.00  0.00    -0.266 OA
ENDBRANCH   1  20
TORSDOF 4
