REMARK VINA RESULT:      -7.3      2.159      4.574
REMARK  1 active torsions:
REMARK  status: ('A' for Active; 'I' for Inactive)
REMARK    1  A    between atoms: N1_1  and  C1_2 
ROOT
HETATM    1  C1  LIG X 999      46.963 129.870  14.620  1.00  0.00     0.026 A 
HETATM    2  C2  LIG X 999      45.965 130.524  13.885  1.00  0.00     0.030 A 
HETATM    3  C3  LIG X 999      44.907 131.161  14.538  1.00  0.00     0.014 A 
HETATM    4  C4  LIG X 999      44.835 131.155  15.939  1.00  0.00    -0.026 A 
HETATM    5  C5  LIG X 999      43.779 131.792  16.605  1.00  0.00     0.012 A 
HETATM    6  C6  LIG X 999      43.720 131.777  18.002  1.00  0.00     0.001 A 
HETATM    7  C7  LIG X 999      44.711 131.128  18.741  1.00  0.00     0.001 A 
HETATM    8  C8  LIG X 999      45.771 130.488  18.089  1.00  0.00     0.012 A 
HETATM    9  C9  LIG X 999      45.842 130.496  16.687  1.00  0.00    -0.024 A 
HETATM   10  C10 LIG X 999      46.899 129.858  16.022  1.00  0.00     0.041 A 
ENDROOT
BRANCH   1  11
HETATM   11  N1  LIG X 999      48.042 129.219  13.945  1.00  0.00    -0.399 N 
HETATM   12  H1  LIG X 999      48.085 129.198  12.902  1.00  0.00     0.156 HD
HETATM   13  H2  LIG X 999      48.806 128.753  14.482  1.00  0.00     0.156 HD
ENDBRANCH   1  11
TORSDOF 1
