MODEL 1
REMARK VINA RESULT:      -5.9      0.000      0.000
REMARK  5 active torsions:
REMARK  status: ('A' for Active; 'I' for Inactive)
REMARK    1  A    between atoms: C3_3  and  C4_4 
REMARK    2  A    between atoms: C4_4  and  S1_5 
REMARK    3  A    between atoms: S1_5  and  C5_6 
REMARK    4  A    between atoms: C6_7  and  N1_8 
REMARK    5  A    between atoms: C10_12  and  N2_13 
ROOT
HETATM    1  C1  LIG X 999      46.486 125.743  22.290  1.00  0.00     0.112 C 
HETATM    2  C2  LIG X 999      45.617 126.894  22.528  1.00  0.00    -0.110 C 
HETATM    3  C3  LIG X 999      44.904 127.844  22.731  1.00  0.00    -0.097 C 
ENDROOT
BRANCH   3   4
HETATM    4  C4  LIG X 999      44.039 128.997  22.989  1.00  0.00     0.173 C 
BRANCH   4   5
HETATM    5  S1  LIG X 999      44.976 130.553  22.809  1.00  0.00    -0.115 SA
BRANCH   5   6
HETATM    6  C5  LIG X 999      43.668 131.426  21.906  1.00  0.00     0.038 A 
HETATM    7  C6  LIG X 999      42.628 132.056  22.625  1.00  0.00     0.043 A 
HETATM    8  C7  LIG X 999      41.608 132.714  21.934  1.00  0.00     0.031 A 
HETATM    9  C8  LIG X 999      41.598 132.763  20.544  1.00  0.00     0.017 A 
HETATM   10  C9  LIG X 999      42.616 132.150  19.792  1.00  0.00     0.002 A 
HETATM   11  C10 LIG X 999      42.619 132.191  18.364  1.00  0.00     0.045 A 
HETATM   12  C14 LIG X 999      43.682 131.493  20.487  1.00  0.00    -0.004 A 
HETATM   13  C11 LIG X 999      43.714 131.629  17.690  1.00  0.00     0.003 A 
HETATM   14  C12 LIG X 999      44.726 131.015  18.356  1.00  0.00    -0.021 A 
HETATM   15  C18 LIG X 999      43.942 131.532  16.226  1.00  0.00     0.278 C 
HETATM   16  C13 LIG X 999      44.737 130.917  19.742  1.00  0.00     0.023 A 
HETATM   17  C15 LIG X 999      45.715 130.450  17.414  1.00  0.00     0.276 C 
HETATM   18  N3  LIG X 999      45.304 130.934  16.060  1.00  0.00    -0.067 N 
HETATM   19  C16 LIG X 999      46.256 131.963  15.579  1.00  0.00     0.272 C 
HETATM   20  C17 LIG X 999      45.272 129.815  15.091  1.00  0.00     0.272 C 
BRANCH   7  21
HETATM   21  N1  LIG X 999      42.596 132.059  24.061  1.00  0.00    -0.398 N 
HETATM   22  H6  LIG X 999      41.744 132.319  24.602  1.00  0.00     0.156 HD
HETATM   23  H7  LIG X 999      43.438 131.778  24.609  1.00  0.00     0.156 HD
ENDBRANCH   7  21
BRANCH  11  24
HETATM   24  N2  LIG X 999      41.539 132.757  17.604  1.00  0.00    -0.398 N 
HETATM   25  H10 LIG X 999      41.625 132.892  16.573  1.00  0.00     0.156 HD
HETATM   26  H11 LIG X 999      40.597 132.934  18.010  1.00  0.00     0.156 HD
ENDBRANCH  11  24
ENDBRANCH   5   6
ENDBRANCH   4   5
ENDBRANCH   3   4
TORSDOF 5
ENDMDL
MODEL 2
REMARK VINA RESULT:      -5.1      3.810      7.312
REMARK  5 active torsions:
REMARK  status: ('A' for Active; 'I' for Inactive)
REMARK    1  A    between atoms: C3_3  and  C4_4 
REMARK    2  A    between atoms: C4_4  and  S1_5 
REMARK    3  A    between atoms: S1_5  and  C5_6 
REMARK    4  A    between atoms: C6_7  and  N1_8 
REMARK    5  A    between atoms: C10_12  and  N2_13 
ROOT
HETATM    1  C1  LIG X 999      42.015 132.756  20.478  1.00  0.00     0.112 C 
HETATM    2  C2  LIG X 999      42.928 131.767  21.048  1.00  0.00    -0.110 C 
HETATM    3  C3  LIG X 999      43.684 130.950  21.512  1.00  0.00    -0.097 C 
ENDROOT
BRANCH   3   4
HETATM    4  C4  LIG X 999      44.606 129.956  22.065  1.00  0.00     0.173 C 
BRANCH   4   5
HETATM    5  S1  LIG X 999      44.310 129.735  23.852  1.00  0.00    -0.115 SA
BRANCH   5   6
HETATM    6  C5  LIG X 999      43.366 128.198  23.670  1.00  0.00     0.038 A 
HETATM    7  C6  LIG X 999      41.958 128.227  23.793  1.00  0.00     0.043 A 
HETATM    8  C7  LIG X 999      41.228 127.044  23.672  1.00  0.00     0.031 A 
HETATM    9  C8  LIG X 999      41.862 125.829  23.428  1.00  0.00     0.017 A 
HETATM   10  C9  LIG X 999      43.261 125.758  23.298  1.00  0.00     0.002 A 
HETATM   11  C10 LIG X 999      43.927 124.519  23.050  1.00  0.00     0.045 A 
HETATM   12  C14 LIG X 999      44.022 126.968  23.396  1.00  0.00    -0.004 A 
HETATM   13  C11 LIG X 999      45.315 124.545  22.848  1.00  0.00     0.003 A 
HETATM   14  C12 LIG X 999      46.029 125.697  22.934  1.00  0.00    -0.021 A 
HETATM   15  C18 LIG X 999      46.229 123.402  22.593  1.00  0.00     0.278 C 
HETATM   16  C13 LIG X 999      45.423 126.915  23.216  1.00  0.00     0.023 A 
HETATM   17  C15 LIG X 999      47.473 125.440  22.750  1.00  0.00     0.276 C 
HETATM   18  N3  LIG X 999      47.580 124.002  22.357  1.00  0.00    -0.067 N 
HETATM   19  C16 LIG X 999      47.942 123.893  20.924  1.00  0.00     0.272 C 
HETATM   20  C17 LIG X 999      48.610 123.312  23.168  1.00  0.00     0.272 C 
BRANCH   7  21
HETATM   21  N1  LIG X 999      41.245 129.453  24.020  1.00  0.00    -0.398 N 
HETATM   22  H6  LIG X 999      40.788 129.675  24.931  1.00  0.00     0.156 HD
HETATM   23  H7  LIG X 999      41.181 130.175  23.269  1.00  0.00     0.156 HD
ENDBRANCH   7  21
BRANCH  11  24
HETATM   24  N2  LIG X 999      43.235 123.260  23.028  1.00  0.00    -0.398 N 
HETATM   25  H10 LIG X 999      42.622 122.972  23.821  1.00  0.00     0.156 HD
HETATM   26  H11 LIG X 999      43.210 122.646  22.187  1.00  0.00     0.156 HD
ENDBRANCH  11  24
ENDBRANCH   5   6
ENDBRANCH   4   5
ENDBRANCH   3   4
TORSDOF 5
ENDMDL
MODEL 3
REMARK VINA RESULT:      -4.7      2.772      6.676
REMARK  5 active torsions:
REMARK  status: ('A' for Active; 'I' for Inactive)
REMARK    1  A    between atoms: C3_3  and  C4_4 
REMARK    2  A    between atoms: C4_4  and  S1_5 
REMARK    3  A    between atoms: S1_5  and  C5_6 
REMARK    4  A    between atoms: C6_7  and  N1_8 
REMARK    5  A    between atoms: C10_12  and  N2_13 
ROOT
HETATM    1  C1  LIG X 999      45.653 131.208  16.592  1.00  0.00     0.112 C 
HETATM    2  C2  LIG X 999      45.037 131.277  17.917  1.00  0.00    -0.110 C 
HETATM    3  C3  LIG X 999      44.528 131.326  19.008  1.00  0.00    -0.097 C 
ENDROOT
BRANCH   3   4
HETATM    4  C4  LIG X 999      43.904 131.377  20.332  1.00  0.00     0.173 C 
BRANCH   4   5
HETATM    5  S1  LIG X 999      45.107 130.915  21.624  1.00  0.00    -0.115 SA
BRANCH   5   6
HETATM    6  C5  LIG X 999      43.958 129.859  22.545  1.00  0.00     0.038 A 
HETATM    7  C6  LIG X 999      42.748 130.404  23.031  1.00  0.00     0.043 A 
HETATM    8  C7  LIG X 999      41.868 129.599  23.757  1.00  0.00     0.031 A 
HETATM    9  C8  LIG X 999      42.159 128.262  24.009  1.00  0.00     0.017 A 
HETATM   10  C9  LIG X 999      43.351 127.681  23.540  1.00  0.00     0.002 A 
HETATM   11  C10 LIG X 999      43.664 126.310  23.792  1.00  0.00     0.045 A 
HETATM   12  C14 LIG X 999      44.253 128.488  22.773  1.00  0.00    -0.004 A 
HETATM   13  C11 LIG X 999      44.831 125.784  23.218  1.00  0.00     0.003 A 
HETATM   14  C12 LIG X 999      45.678 126.552  22.485  1.00  0.00    -0.021 A 
HETATM   15  C18 LIG X 999      45.378 124.409  23.343  1.00  0.00     0.278 C 
HETATM   16  C13 LIG X 999      45.429 127.900  22.254  1.00  0.00     0.023 A 
HETATM   17  C15 LIG X 999      46.861 125.777  22.056  1.00  0.00     0.276 C 
HETATM   18  N3  LIG X 999      46.583 124.364  22.455  1.00  0.00    -0.067 N 
HETATM   19  C16 LIG X 999      46.298 123.544  21.253  1.00  0.00     0.272 C 
HETATM   20  C17 LIG X 999      47.742 123.783  23.171  1.00  0.00     0.272 C 
BRANCH   7  21
HETATM   21  N1  LIG X 999      42.382 131.770  22.784  1.00  0.00    -0.398 N 
HETATM   22  H6  LIG X 999      41.898 132.072  21.912  1.00  0.00     0.156 HD
HETATM   23  H7  LIG X 999      42.581 132.508  23.495  1.00  0.00     0.156 HD
ENDBRANCH   7  21
BRANCH  11  24
HETATM   24  N2  LIG X 999      42.848 125.470  24.625  1.00  0.00    -0.398 N 
HETATM   25  H10 LIG X 999      42.640 125.736  25.612  1.00  0.00     0.156 HD
HETATM   26  H11 LIG X 999      42.333 124.643  24.258  1.00  0.00     0.156 HD
ENDBRANCH  11  24
ENDBRANCH   5   6
ENDBRANCH   4   5
ENDBRANCH   3   4
TORSDOF 5
ENDMDL
MODEL 4
REMARK VINA RESULT:      -4.6      7.774      9.874
REMARK  5 active torsions:
REMARK  status: ('A' for Active; 'I' for Inactive)
REMARK    1  A    between atoms: C3_3  and  C4_4 
REMARK    2  A    between atoms: C4_4  and  S1_5 
REMARK    3  A    between atoms: S1_5  and  C5_6 
REMARK    4  A    between atoms: C6_7  and  N1_8 
REMARK    5  A    between atoms: C10_12  and  N2_13 
ROOT
HETATM    1  C1  LIG X 999      53.516 124.561  17.175  1.00  0.00     0.112 C 
HETATM    2  C2  LIG X 999      52.268 124.189  17.839  1.00  0.00    -0.110 C 
HETATM    3  C3  LIG X 999      51.235 123.882  18.379  1.00  0.00    -0.097 C 
ENDROOT
BRANCH   3   4
HETATM    4  C4  LIG X 999      49.975 123.512  19.026  1.00  0.00     0.173 C 
BRANCH   4   5
HETATM    5  S1  LIG X 999      50.294 122.572  20.558  1.00  0.00    -0.115 SA
BRANCH   5   6
HETATM    6  C5  LIG X 999      49.990 123.970  21.671  1.00  0.00     0.038 A 
HETATM    7  C6  LIG X 999      51.058 124.827  22.020  1.00  0.00     0.043 A 
HETATM    8  C7  LIG X 999      50.833 125.894  22.892  1.00  0.00     0.031 A 
HETATM    9  C8  LIG X 999      49.570 126.134  23.424  1.00  0.00     0.017 A 
HETATM   10  C9  LIG X 999      48.481 125.305  23.100  1.00  0.00     0.002 A 
HETATM   11  C10 LIG X 999      47.179 125.536  23.639  1.00  0.00     0.045 A 
HETATM   12  C14 LIG X 999      48.690 124.220  22.188  1.00  0.00    -0.004 A 
HETATM   13  C11 LIG X 999      46.127 124.717  23.202  1.00  0.00     0.003 A 
HETATM   14  C12 LIG X 999      46.332 123.696  22.330  1.00  0.00    -0.021 A 
HETATM   15  C18 LIG X 999      44.703 124.745  23.620  1.00  0.00     0.278 C 
HETATM   16  C13 LIG X 999      47.591 123.413  21.816  1.00  0.00     0.023 A 
HETATM   17  C15 LIG X 999      45.080 122.948  22.086  1.00  0.00     0.276 C 
HETATM   18  N3  LIG X 999      44.005 123.727  22.773  1.00  0.00    -0.067 N 
HETATM   19  C16 LIG X 999      43.147 124.401  21.770  1.00  0.00     0.272 C 
HETATM   20  C17 LIG X 999      43.164 122.838  23.607  1.00  0.00     0.272 C 
BRANCH   7  21
HETATM   21  N1  LIG X 999      52.378 124.646  21.485  1.00  0.00    -0.398 N 
HETATM   22  H6  LIG X 999      53.219 125.099  21.901  1.00  0.00     0.156 HD
HETATM   23  H7  LIG X 999      52.533 124.028  20.658  1.00  0.00     0.156 HD
ENDBRANCH   7  21
BRANCH  11  24
HETATM   24  N2  LIG X 999      46.918 126.550  24.624  1.00  0.00    -0.398 N 
HETATM   25  H10 LIG X 999      46.722 127.534  24.340  1.00  0.00     0.156 HD
HETATM   26  H11 LIG X 999      46.787 126.333  25.635  1.00  0.00     0.156 HD
ENDBRANCH  11  24
ENDBRANCH   5   6
ENDBRANCH   4   5
ENDBRANCH   3   4
TORSDOF 5
ENDMDL
MODEL 5
REMARK VINA RESULT:      -4.5      2.507      6.558
REMARK  5 active torsions:
REMARK  status: ('A' for Active; 'I' for Inactive)
REMARK    1  A    between atoms: C3_3  and  C4_4 
REMARK    2  A    between atoms: C4_4  and  S1_5 
REMARK    3  A    between atoms: S1_5  and  C5_6 
REMARK    4  A    between atoms: C6_7  and  N1_8 
REMARK    5  A    between atoms: C10_12  and  N2_13 
ROOT
HETATM    1  C1  LIG X 999      47.032 129.968  14.850  1.00  0.00     0.112 C 
HETATM    2  C2  LIG X 999      46.341 130.292  16.097  1.00  0.00    -0.110 C 
HETATM    3  C3  LIG X 999      45.770 130.567  17.122  1.00  0.00    -0.097 C 
ENDROOT
BRANCH   3   4
HETATM    4  C4  LIG X 999      45.076 130.910  18.365  1.00  0.00     0.173 C 
BRANCH   4   5
HETATM    5  S1  LIG X 999      46.188 130.703  19.797  1.00  0.00    -0.115 SA
BRANCH   5   6
HETATM    6  C5  LIG X 999      44.855 130.500  21.009  1.00  0.00     0.038 A 
HETATM    7  C6  LIG X 999      43.905 131.533  21.177  1.00  0.00     0.043 A 
HETATM    8  C7  LIG X 999      42.887 131.390  22.122  1.00  0.00     0.031 A 
HETATM    9  C8  LIG X 999      42.788 130.243  22.904  1.00  0.00     0.017 A 
HETATM   10  C9  LIG X 999      43.712 129.192  22.765  1.00  0.00     0.002 A 
HETATM   11  C10 LIG X 999      43.625 128.009  23.560  1.00  0.00     0.045 A 
HETATM   12  C14 LIG X 999      44.748 129.314  21.782  1.00  0.00    -0.004 A 
HETATM   13  C11 LIG X 999      44.533 126.971  23.303  1.00  0.00     0.003 A 
HETATM   14  C12 LIG X 999      45.508 127.090  22.364  1.00  0.00    -0.021 A 
HETATM   15  C18 LIG X 999      44.657 125.663  23.995  1.00  0.00     0.278 C 
HETATM   16  C13 LIG X 999      45.651 128.242  21.600  1.00  0.00     0.023 A 
HETATM   17  C15 LIG X 999      46.369 125.890  22.340  1.00  0.00     0.276 C 
HETATM   18  N3  LIG X 999      45.718 124.907  23.259  1.00  0.00    -0.067 N 
HETATM   19  C16 LIG X 999      45.108 123.807  22.475  1.00  0.00     0.272 C 
HETATM   20  C17 LIG X 999      46.707 124.336  24.203  1.00  0.00     0.272 C 
BRANCH   7  21
HETATM   21  N1  LIG X 999      43.941 132.729  20.385  1.00  0.00    -0.398 N 
HETATM   22  H6  LIG X 999      43.184 133.445  20.415  1.00  0.00     0.156 HD
HETATM   23  H7  LIG X 999      44.753 132.925  19.759  1.00  0.00     0.156 HD
ENDBRANCH   7  21
BRANCH  11  24
HETATM   24  N2  LIG X 999      42.667 127.858  24.621  1.00  0.00    -0.398 N 
HETATM   25  H10 LIG X 999      41.725 127.449  24.437  1.00  0.00     0.156 HD
HETATM   26  H11 LIG X 999      42.903 128.025  25.622  1.00  0.00     0.156 HD
ENDBRANCH  11  24
ENDBRANCH   5   6
ENDBRANCH   4   5
ENDBRANCH   3   4
TORSDOF 5
ENDMDL
MODEL 6
REMARK VINA RESULT:      -4.2      2.318      6.465
REMARK  5 active torsions:
REMARK  status: ('A' for Active; 'I' for Inactive)
REMARK    1  A    between atoms: C3_3  and  C4_4 
REMARK    2  A    between atoms: C4_4  and  S1_5 
REMARK    3  A    between atoms: S1_5  and  C5_6 
REMARK    4  A    between atoms: C6_7  and  N1_8 
REMARK    5  A    between atoms: C10_12  and  N2_13 
ROOT
HETATM    1  C1  LIG X 999      47.985 130.999  12.478  1.00  0.00     0.112 C 
HETATM    2  C2  LIG X 999      47.200 130.500  13.606  1.00  0.00    -0.110 C 
HETATM    3  C3  LIG X 999      46.547 130.087  14.531  1.00  0.00    -0.097 C 
ENDROOT
BRANCH   3   4
HETATM    4  C4  LIG X 999      45.745 129.587  15.649  1.00  0.00     0.173 C 
BRANCH   4   5
HETATM    5  S1  LIG X 999      46.218 130.423  17.201  1.00  0.00    -0.115 SA
BRANCH   5   6
HETATM    6  C5  LIG X 999      44.590 131.170  17.484  1.00  0.00     0.038 A 
HETATM    7  C6  LIG X 999      43.793 131.543  16.378  1.00  0.00     0.043 A 
HETATM    8  C7  LIG X 999      42.547 132.136  16.590  1.00  0.00     0.031 A 
HETATM    9  C8  LIG X 999      42.071 132.365  17.877  1.00  0.00     0.017 A 
HETATM   10  C9  LIG X 999      42.832 132.007  19.004  1.00  0.00     0.002 A 
HETATM   11  C10 LIG X 999      42.357 132.237  20.331  1.00  0.00     0.045 A 
HETATM   12  C14 LIG X 999      44.102 131.375  18.802  1.00  0.00    -0.004 A 
HETATM   13  C11 LIG X 999      43.138 131.774  21.401  1.00  0.00     0.003 A 
HETATM   14  C12 LIG X 999      44.337 131.168  21.202  1.00  0.00    -0.021 A 
HETATM   15  C18 LIG X 999      42.873 131.903  22.857  1.00  0.00     0.278 C 
HETATM   16  C13 LIG X 999      44.852 130.965  19.928  1.00  0.00     0.023 A 
HETATM   17  C15 LIG X 999      44.986 130.841  22.489  1.00  0.00     0.276 C 
HETATM   18  N3  LIG X 999      43.972 131.151  23.542  1.00  0.00    -0.067 N 
HETATM   19  C16 LIG X 999      43.442 129.894  24.122  1.00  0.00     0.272 C 
HETATM   20  C17 LIG X 999      44.570 131.966  24.624  1.00  0.00     0.272 C 
BRANCH   7  21
HETATM   21  N1  LIG X 999      44.221 131.312  15.027  1.00  0.00    -0.398 N 
HETATM   22  H6  LIG X 999      43.973 130.446  14.500  1.00  0.00     0.156 HD
HETATM   23  H7  LIG X 999      44.787 132.028  14.521  1.00  0.00     0.156 HD
ENDBRANCH   7  21
BRANCH  11  24
HETATM   24  N2  LIG X 999      41.136 132.942  20.605  1.00  0.00    -0.398 N 
HETATM   25  H10 LIG X 999      40.219 132.444  20.604  1.00  0.00     0.156 HD
HETATM   26  H11 LIG X 999      41.117 133.930  20.936  1.00  0.00     0.156 HD
ENDBRANCH  11  24
ENDBRANCH   5   6
ENDBRANCH   4   5
ENDBRANCH   3   4
TORSDOF 5
ENDMDL
MODEL 7
REMARK VINA RESULT:      -3.6      4.383      7.636
REMARK  5 active torsions:
REMARK  status: ('A' for Active; 'I' for Inactive)
REMARK    1  A    between atoms: C3_3  and  C4_4 
REMARK    2  A    between atoms: C4_4  and  S1_5 
REMARK    3  A    between atoms: S1_5  and  C5_6 
REMARK    4  A    between atoms: C6_7  and  N1_8 
REMARK    5  A    between atoms: C10_12  and  N2_13 
ROOT
HETATM    1  C1  LIG X 999      52.227 125.553  21.750  1.00  0.00     0.112 C 
HETATM    2  C2  LIG X 999      50.810 125.336  22.040  1.00  0.00    -0.110 C 
HETATM    3  C3  LIG X 999      49.643 125.151  22.275  1.00  0.00    -0.097 C 
ENDROOT
BRANCH   3   4
HETATM    4  C4  LIG X 999      48.224 124.919  22.553  1.00  0.00     0.173 C 
BRANCH   4   5
HETATM    5  S1  LIG X 999      47.843 125.301  24.297  1.00  0.00    -0.115 SA
BRANCH   5   6
HETATM    6  C5  LIG X 999      46.094 124.835  24.185  1.00  0.00     0.038 A 
HETATM    7  C6  LIG X 999      45.723 123.481  24.341  1.00  0.00     0.043 A 
HETATM    8  C7  LIG X 999      44.380 123.114  24.238  1.00  0.00     0.031 A 
HETATM    9  C8  LIG X 999      43.394 124.063  23.986  1.00  0.00     0.017 A 
HETATM   10  C9  LIG X 999      43.722 125.421  23.827  1.00  0.00     0.002 A 
HETATM   11  C10 LIG X 999      42.721 126.407  23.567  1.00  0.00     0.045 A 
HETATM   12  C14 LIG X 999      45.093 125.816  23.954  1.00  0.00    -0.004 A 
HETATM   13  C11 LIG X 999      43.118 127.751  23.505  1.00  0.00     0.003 A 
HETATM   14  C12 LIG X 999      44.419 128.119  23.635  1.00  0.00    -0.021 A 
HETATM   15  C18 LIG X 999      42.280 128.947  23.234  1.00  0.00     0.278 C 
HETATM   16  C13 LIG X 999      45.426 127.186  23.847  1.00  0.00     0.023 A 
HETATM   17  C15 LIG X 999      44.577 129.579  23.463  1.00  0.00     0.276 C 
HETATM   18  N3  LIG X 999      43.189 130.127  23.383  1.00  0.00    -0.067 N 
HETATM   19  C16 LIG X 999      42.863 130.867  24.625  1.00  0.00     0.272 C 
HETATM   20  C17 LIG X 999      43.053 131.043  22.226  1.00  0.00     0.272 C 
BRANCH   7  21
HETATM   21  N1  LIG X 999      46.692 122.460  24.625  1.00  0.00    -0.398 N 
HETATM   22  H6  LIG X 999      47.143 121.890  23.877  1.00  0.00     0.156 HD
HETATM   23  H7  LIG X 999      46.989 122.271  25.608  1.00  0.00     0.156 HD
ENDBRANCH   7  21
BRANCH  11  24
HETATM   24  N2  LIG X 999      41.342 126.069  23.341  1.00  0.00    -0.398 N 
HETATM   25  H10 LIG X 999      40.579 126.716  23.636  1.00  0.00     0.156 HD
HETATM   26  H11 LIG X 999      41.049 125.247  22.773  1.00  0.00     0.156 HD
ENDBRANCH  11  24
ENDBRANCH   5   6
ENDBRANCH   4   5
ENDBRANCH   3   4
TORSDOF 5
ENDMDL
MODEL 8
REMARK VINA RESULT:      -3.6      2.147      6.256
REMARK  5 active torsions:
REMARK  status: ('A' for Active; 'I' for Inactive)
REMARK    1  A    between atoms: C3_3  and  C4_4 
REMARK    2  A    between atoms: C4_4  and  S1_5 
REMARK    3  A    between atoms: S1_5  and  C5_6 
REMARK    4  A    between atoms: C6_7  and  N1_8 
REMARK    5  A    between atoms: C10_12  and  N2_13 
ROOT
HETATM    1  C1  LIG X 999      45.513 130.970  14.127  1.00  0.00     0.112 C 
HETATM    2  C2  LIG X 999      44.896 131.180  15.436  1.00  0.00    -0.110 C 
HETATM    3  C3  LIG X 999      44.395 131.354  16.519  1.00  0.00    -0.097 C 
ENDROOT
BRANCH   3   4
HETATM    4  C4  LIG X 999      43.796 131.567  17.837  1.00  0.00     0.173 C 
BRANCH   4   5
HETATM    5  S1  LIG X 999      45.090 131.667  19.120  1.00  0.00    -0.115 SA
BRANCH   5   6
HETATM    6  C5  LIG X 999      43.955 131.435  20.514  1.00  0.00     0.038 A 
HETATM    7  C6  LIG X 999      42.896 132.351  20.709  1.00  0.00     0.043 A 
HETATM    8  C7  LIG X 999      42.030 132.187  21.792  1.00  0.00     0.031 A 
HETATM    9  C8  LIG X 999      42.188 131.132  22.686  1.00  0.00     0.017 A 
HETATM   10  C9  LIG X 999      43.227 130.199  22.525  1.00  0.00     0.002 A 
HETATM   11  C10 LIG X 999      43.403 129.112  23.434  1.00  0.00     0.045 A 
HETATM   12  C14 LIG X 999      44.110 130.339  21.405  1.00  0.00    -0.004 A 
HETATM   13  C11 LIG X 999      44.411 128.176  23.158  1.00  0.00     0.003 A 
HETATM   14  C12 LIG X 999      45.239 128.311  22.089  1.00  0.00    -0.021 A 
HETATM   15  C18 LIG X 999      44.800 126.981  23.949  1.00  0.00     0.278 C 
HETATM   16  C13 LIG X 999      45.126 129.377  21.206  1.00  0.00     0.023 A 
HETATM   17  C15 LIG X 999      46.251 127.234  22.063  1.00  0.00     0.276 C 
HETATM   18  N3  LIG X 999      45.860 126.287  23.152  1.00  0.00    -0.067 N 
HETATM   19  C16 LIG X 999      45.321 125.037  22.566  1.00  0.00     0.272 C 
HETATM   20  C17 LIG X 999      47.026 125.957  24.004  1.00  0.00     0.272 C 
BRANCH   7  21
HETATM   21  N1  LIG X 999      42.668 133.445  19.808  1.00  0.00    -0.398 N 
HETATM   22  H6  LIG X 999      43.182 134.349  19.882  1.00  0.00     0.156 HD
HETATM   23  H7  LIG X 999      41.980 133.354  19.029  1.00  0.00     0.156 HD
ENDBRANCH   7  21
BRANCH  11  24
HETATM   24  N2  LIG X 999      42.611 128.962  24.624  1.00  0.00    -0.398 N 
HETATM   25  H10 LIG X 999      43.063 128.867  25.559  1.00  0.00     0.156 HD
HETATM   26  H11 LIG X 999      41.575 129.066  24.628  1.00  0.00     0.156 HD
ENDBRANCH  11  24
ENDBRANCH   5   6
ENDBRANCH   4   5
ENDBRANCH   3   4
TORSDOF 5
ENDMDL
MODEL 9
REMARK VINA RESULT:      -3.2      2.471      3.361
REMARK  5 active torsions:
REMARK  status: ('A' for Active; 'I' for Inactive)
REMARK    1  A    between atoms: C3_3  and  C4_4 
REMARK    2  A    between atoms: C4_4  and  S1_5 
REMARK    3  A    between atoms: S1_5  and  C5_6 
REMARK    4  A    between atoms: C6_7  and  N1_8 
REMARK    5  A    between atoms: C10_12  and  N2_13 
ROOT
HETATM    1  C1  LIG X 999      48.166 134.619  22.673  1.00  0.00     0.112 C 
HETATM    2  C2  LIG X 999      47.579 133.518  21.910  1.00  0.00    -0.110 C 
HETATM    3  C3  LIG X 999      47.103 132.609  21.277  1.00  0.00    -0.097 C 
ENDROOT
BRANCH   3   4
HETATM    4  C4  LIG X 999      46.532 131.506  20.501  1.00  0.00     0.173 C 
BRANCH   4   5
HETATM    5  S1  LIG X 999      45.063 130.825  21.344  1.00  0.00    -0.115 SA
BRANCH   5   6
HETATM    6  C5  LIG X 999      43.873 131.459  20.132  1.00  0.00     0.038 A 
HETATM    7  C6  LIG X 999      42.673 132.054  20.581  1.00  0.00     0.043 A 
HETATM    8  C7  LIG X 999      41.745 132.528  19.651  1.00  0.00     0.031 A 
HETATM    9  C8  LIG X 999      41.982 132.427  18.284  1.00  0.00     0.017 A 
HETATM   10  C9  LIG X 999      43.165 131.843  17.797  1.00  0.00     0.002 A 
HETATM   11  C10 LIG X 999      43.423 131.732  16.396  1.00  0.00     0.045 A 
HETATM   12  C14 LIG X 999      44.138 131.375  18.739  1.00  0.00    -0.004 A 
HETATM   13  C11 LIG X 999      44.662 131.215  15.992  1.00  0.00     0.003 A 
HETATM   14  C12 LIG X 999      45.584 130.780  16.890  1.00  0.00    -0.021 A 
HETATM   15  C18 LIG X 999      45.158 130.986  14.611  1.00  0.00     0.278 C 
HETATM   16  C13 LIG X 999      45.353 130.833  18.260  1.00  0.00     0.023 A 
HETATM   17  C15 LIG X 999      46.769 130.222  16.207  1.00  0.00     0.276 C 
HETATM   18  N3  LIG X 999      46.572 130.514  14.754  1.00  0.00    -0.067 N 
HETATM   19  C16 LIG X 999      47.509 131.577  14.319  1.00  0.00     0.272 C 
HETATM   20  C17 LIG X 999      46.806 129.301  13.938  1.00  0.00     0.272 C 
BRANCH   7  21
HETATM   21  N1  LIG X 999      42.382 132.207  21.978  1.00  0.00    -0.398 N 
HETATM   22  H6  LIG X 999      41.761 131.551  22.497  1.00  0.00     0.156 HD
HETATM   23  H7  LIG X 999      42.810 132.987  22.525  1.00  0.00     0.156 HD
ENDBRANCH   7  21
BRANCH  11  24
HETATM   24  N2  LIG X 999      42.455 132.100  15.400  1.00  0.00    -0.398 N 
HETATM   25  H10 LIG X 999      41.561 132.566  15.669  1.00  0.00     0.156 HD
HETATM   26  H11 LIG X 999      42.648 132.041  14.378  1.00  0.00     0.156 HD
ENDBRANCH  11  24
ENDBRANCH   5   6
ENDBRANCH   4   5
ENDBRANCH   3   4
TORSDOF 5
ENDMDL
