REMARK VINA RESULT:      -7.8      2.023      2.175
REMARK  3 active torsions:
REMARK  status: ('A' for Active; 'I' for Inactive)
REMARK    1  A    between atoms: C1_1  and  C2_6 
REMARK    2  A    between atoms: N1_2  and  N2_3 
REMARK    3  A    between atoms: C2_6  and  C3_8 
ROOT
HETATM    1  C3  LIG X 999      45.338 131.281  17.061  1.00  0.00     0.016 A 
HETATM    2  C4  LIG X 999      45.388 132.458  16.293  1.00  0.00     0.016 A 
HETATM    3  C5  LIG X 999      46.085 132.489  15.083  1.00  0.00     0.013 A 
HETATM    4  C6  LIG X 999      46.757 131.348  14.624  1.00  0.00    -0.026 A 
HETATM    5  C7  LIG X 999      47.460 131.370  13.410  1.00  0.00     0.012 A 
HETATM    6  C8  LIG X 999      48.131 130.226  12.968  1.00  0.00     0.001 A 
HETATM    7  C9  LIG X 999      48.107 129.057  13.732  1.00  0.00     0.001 A 
HETATM    8  C10 LIG X 999      47.411 129.022  14.942  1.00  0.00     0.012 A 
HETATM    9  C11 LIG X 999      46.729 130.162  15.398  1.00  0.00    -0.025 A 
HETATM   10  C12 LIG X 999      46.026 130.140  16.612  1.00  0.00     0.028 A 
ENDROOT
BRANCH   1  11
HETATM   11  C2  LIG X 999      44.602 131.277  18.349  1.00  0.00     0.201 C 
HETATM   12  O1  LIG X 999      43.407 131.678  18.372  1.00  0.00    -0.286 OA
BRANCH  11  13
HETATM   13  C1  LIG X 999      45.202 130.804  19.610  1.00  0.00     0.195 C 
HETATM   14  N1  LIG X 999      44.584 130.952  20.743  1.00  0.00    -0.164 NA
BRANCH  14  15
HETATM   15  N2  LIG X 999      45.117 130.551  21.982  1.00  0.00    -0.177 N 
HETATM   16  H2  LIG X 999      45.946 131.057  22.365  1.00  0.00     0.214 HD
HETATM   17  N3  LIG X 999      44.610 129.596  22.651  1.00  0.00    -0.031 N 
ENDBRANCH  14  15
ENDBRANCH  11  13
ENDBRANCH   1  11
TORSDOF 3
