REMARK VINA RESULT:      -8.6      0.000      0.000
REMARK  3 active torsions:
REMARK  status: ('A' for Active; 'I' for Inactive)
REMARK    1  A    between atoms: C7_9  and  C8_10 
REMARK    2  A    between atoms: C9_14  and  N4_15 
REMARK    3  A    between atoms: N7_24  and  C14_25 
ROOT
HETATM    1  N4  LIG X 999      46.474 130.113  13.811  1.00  0.00    -0.025 NA
HETATM    2  N5  LIG X 999      47.639 129.762  13.620  1.00  0.00    -0.158 NA
HETATM    3  N6  LIG X 999      48.801 129.411  13.431  1.00  0.00     0.068 N 
ENDROOT
BRANCH   1   4
HETATM    4  C9  LIG X 999      46.107 130.796  15.009  1.00  0.00     0.302 A 
HETATM    5  N3  LIG X 999      45.945 132.124  15.095  1.00  0.00    -0.236 N 
HETATM    6  N2  LIG X 999      45.607 132.394  16.345  1.00  0.00    -0.145 NA
HETATM    7  H4  LIG X 999      46.055 132.831  14.335  1.00  0.00     0.193 HD
HETATM    8  C8  LIG X 999      45.586 131.201  16.981  1.00  0.00     0.203 A 
HETATM    9  O1  LIG X 999      45.883 130.216  16.161  1.00  0.00    -0.253 OA
BRANCH   8  10
HETATM   10  C7  LIG X 999      45.215 131.034  18.401  1.00  0.00     0.032 A 
HETATM   11  C6  LIG X 999      44.013 131.568  18.960  1.00  0.00     0.020 A 
HETATM   12  C1  LIG X 999      42.841 132.187  18.257  1.00  0.00     0.060 A 
HETATM   13  C5  LIG X 999      43.864 131.441  20.329  1.00  0.00     0.019 A 
HETATM   14  N1  LIG X 999      42.767 132.211  16.965  1.00  0.00    -0.299 NA
HETATM   15  C2  LIG X 999      41.689 132.692  19.079  1.00  0.00     0.034 A 
HETATM   16  H1  LIG X 999      41.941 132.607  16.464  1.00  0.00     0.187 HD
HETATM   17  C3  LIG X 999      41.662 132.535  20.419  1.00  0.00     0.033 A 
HETATM   18  C4  LIG X 999      42.803 131.866  21.066  1.00  0.00     0.048 A 
HETATM   19  N7  LIG X 999      42.987 131.530  22.366  1.00  0.00    -0.324 N 
HETATM   20  C13 LIG X 999      44.176 130.867  22.414  1.00  0.00     0.193 A 
HETATM   21  C12 LIG X 999      44.740 130.809  21.150  1.00  0.00     0.032 A 
HETATM   22  O2  LIG X 999      44.721 130.316  23.568  1.00  0.00    -0.171 OA
HETATM   23  C11 LIG X 999      45.899 130.233  20.645  1.00  0.00     0.018 A 
HETATM   24  C10 LIG X 999      46.135 130.353  19.257  1.00  0.00     0.018 A 
BRANCH  19  25
HETATM   25  C14 LIG X 999      42.053 131.729  23.474  1.00  0.00     0.127 C 
HETATM   26  C15 LIG X 999      42.744 132.451  24.625  1.00  0.00     0.027 C 
ENDBRANCH  19  25
ENDBRANCH   8  10
ENDBRANCH   1   4
TORSDOF 3
