REMARK VINA RESULT:      -3.9      8.080     10.246
REMARK  6 active torsions:
REMARK  status: ('A' for Active; 'I' for Inactive)
REMARK    1  A    between atoms: C8_8  and  O1_9 
REMARK    2  A    between atoms: O1_9  and  C9_10 
REMARK    3  A    between atoms: C9_10  and  C10_11 
REMARK    4  A    between atoms: C10_11  and  C11_12 
REMARK    5  A    between atoms: C11_12  and  N1_13 
REMARK    6  A    between atoms: C13_18  and  N4_19 
ROOT
HETATM    1  N1  LIG X 999      42.896 125.098  23.099  1.00  0.00    -0.116 NA
HETATM    2  N2  LIG X 999      42.081 124.545  22.360  1.00  0.00    -0.168 NA
HETATM    3  N3  LIG X 999      41.267 123.994  21.621  1.00  0.00     0.068 N 
ENDROOT
BRANCH   1   4
HETATM    4  C11 LIG X 999      44.233 124.547  23.291  1.00  0.00     0.191 C 
BRANCH   4   5
HETATM    5  C10 LIG X 999      44.333 123.151  22.667  1.00  0.00     0.051 C 
BRANCH   5   6
HETATM    6  C9  LIG X 999      45.758 122.807  22.228  1.00  0.00     0.170 C 
BRANCH   6   7
HETATM    7  O1  LIG X 999      46.645 122.983  23.314  1.00  0.00    -0.384 OA
BRANCH   7   8
HETATM    8  C8  LIG X 999      47.983 123.105  22.862  1.00  0.00     0.146 C 
HETATM    9  C7  LIG X 999      47.993 122.991  21.329  1.00  0.00     0.072 C 
HETATM   10  C5  LIG X 999      49.289 123.446  20.699  1.00  0.00    -0.047 A 
HETATM   11  C4  LIG X 999      50.202 124.283  21.386  1.00  0.00    -0.023 A 
HETATM   12  C6  LIG X 999      49.523 123.131  19.350  1.00  0.00     0.008 A 
HETATM   13  C3  LIG X 999      51.336 124.765  20.710  1.00  0.00     0.010 A 
HETATM   14  C13 LIG X 999      50.032 124.603  22.859  1.00  0.00     0.199 C 
HETATM   15  C2  LIG X 999      51.561 124.432  19.373  1.00  0.00     0.001 A 
HETATM   16  C1  LIG X 999      50.657 123.614  18.695  1.00  0.00     0.001 A 
HETATM   17  C12 LIG X 999      48.569 124.460  23.315  1.00  0.00     0.143 C 
HETATM   18 CL1  LIG X 999      47.586 125.835  22.715  1.00  0.00    -0.120 Cl
BRANCH  14  19
HETATM   19  N4  LIG X 999      50.871 123.714  23.662  1.00  0.00    -0.104 NA
HETATM   20  N5  LIG X 999      51.948 124.092  24.123  1.00  0.00    -0.167 NA
HETATM   21  N6  LIG X 999      53.025 124.468  24.584  1.00  0.00     0.068 N 
ENDBRANCH  14  19
ENDBRANCH   7   8
ENDBRANCH   6   7
ENDBRANCH   5   6
ENDBRANCH   4   5
ENDBRANCH   1   4
TORSDOF 6
