REMARK VINA RESULT:      -7.3      3.767      6.010
REMARK  1 active torsions:
REMARK  status: ('A' for Active; 'I' for Inactive)
REMARK    1  A    between atoms: C10_11  and  N2_12 
ROOT
HETATM    1  N2  LIG X 999      42.737 131.239  23.483  1.00  0.00    -0.214 NA
HETATM    2  C11 LIG X 999      42.218 130.191  23.986  1.00  0.00     0.165 C 
HETATM    3  S1  LIG X 999      41.562 128.864  24.623  1.00  0.00    -0.055 SA
ENDROOT
BRANCH   1   4
HETATM    4  C10 LIG X 999      43.303 131.301  22.165  1.00  0.00     0.152 C 
HETATM    5  N1  LIG X 999      42.484 131.575  21.122  1.00  0.00    -0.229 NA
HETATM    6  C9  LIG X 999      42.924 131.628  19.838  1.00  0.00     0.070 C 
HETATM    7  C8  LIG X 999      42.016 131.983  18.841  1.00  0.00     0.033 C 
HETATM    8  C15 LIG X 999      44.284 131.351  19.523  1.00  0.00     0.010 C 
HETATM    9  C7  LIG X 999      42.417 132.058  17.515  1.00  0.00     0.014 C 
HETATM   10  C5  LIG X 999      43.710 131.671  17.146  1.00  0.00    -0.025 C 
HETATM   11  C4  LIG X 999      44.643 131.247  18.137  1.00  0.00    -0.013 C 
HETATM   12  C6  LIG X 999      44.058 131.654  15.786  1.00  0.00     0.012 C 
HETATM   13  C3  LIG X 999      45.840 130.643  17.683  1.00  0.00     0.013 C 
HETATM   14  C2  LIG X 999      46.166 130.619  16.325  1.00  0.00     0.001 C 
HETATM   15  C1  LIG X 999      45.290 131.148  15.382  1.00  0.00     0.001 C 
HETATM   16  C13 LIG X 999      45.189 131.237  20.628  1.00  0.00    -0.045 C 
HETATM   17  C12 LIG X 999      44.675 131.145  21.931  1.00  0.00     0.060 C 
HETATM   18  C14 LIG X 999      46.689 131.361  20.514  1.00  0.00     0.049 C 
ENDBRANCH   1   4
TORSDOF 1
