REMARK VINA RESULT:      -7.5      3.449      6.635
REMARK  3 active torsions:
REMARK  status: ('A' for Active; 'I' for Inactive)
REMARK    1  A    between atoms: C3_3  and  S1_4 
REMARK    2  A    between atoms: S1_4  and  C4_7 
REMARK    3  A    between atoms: C13_16  and  N1_17 
ROOT
HETATM    1  C1  LIG X 999      43.270 131.765  23.883  1.00  0.00     0.013 C 
HETATM    2  C2  LIG X 999      43.226 131.483  22.712  1.00  0.00    -0.102 C 
HETATM    3  C3  LIG X 999      43.177 131.143  21.287  1.00  0.00     0.238 C 
ENDROOT
BRANCH   3   4
HETATM    4  S1  LIG X 999      44.829 130.990  20.637  1.00  0.00     0.185 S 
HETATM    5  O1  LIG X 999      45.709 132.050  21.236  1.00  0.00    -0.222 OA
HETATM    6  O2  LIG X 999      45.386 129.642  21.002  1.00  0.00    -0.222 OA
BRANCH   4   7
HETATM    7  C4  LIG X 999      44.796 131.155  18.883  1.00  0.00     0.060 A 
HETATM    8  C5  LIG X 999      43.729 131.804  18.255  1.00  0.00     0.024 A 
HETATM    9  C6  LIG X 999      43.690 131.908  16.864  1.00  0.00     0.011 A 
HETATM   10  C7  LIG X 999      44.708 131.345  16.072  1.00  0.00    -0.019 A 
HETATM   11  C8  LIG X 999      45.810 130.724  16.710  1.00  0.00    -0.048 A 
HETATM   12  C13 LIG X 999      44.666 131.533  14.562  1.00  0.00     0.251 C 
HETATM   13  C9  LIG X 999      45.827 130.610  18.110  1.00  0.00     0.031 A 
HETATM   14  C10 LIG X 999      46.932 130.095  15.920  1.00  0.00     0.039 C 
HETATM   15  C11 LIG X 999      47.039 130.672  14.508  1.00  0.00     0.007 C 
HETATM   16  C12 LIG X 999      45.676 130.633  13.822  1.00  0.00     0.040 C 
BRANCH  12  17
HETATM   17  N1  LIG X 999      43.311 131.300  14.054  1.00  0.00     0.087 N 
HETATM   18  H14 LIG X 999      42.625 131.838  14.634  1.00  0.00     0.313 HD
HETATM   19  H15 LIG X 999      43.082 130.283  14.156  1.00  0.00     0.313 HD
ENDBRANCH  12  17
ENDBRANCH   4   7
ENDBRANCH   3   4
TORSDOF 3
