REMARK VINA RESULT:      -1.8      5.497      9.045
REMARK  3 active torsions:
REMARK  status: ('A' for Active; 'I' for Inactive)
REMARK    1  A    between atoms: C3_3  and  S1_4 
REMARK    2  A    between atoms: S1_4  and  C4_7 
REMARK    3  A    between atoms: C6_9  and  N1_10 
ROOT
HETATM    1  C1  LIG X 999      41.564 132.844  20.683  1.00  0.00     0.013 C 
HETATM    2  C2  LIG X 999      41.730 132.940  19.493  1.00  0.00    -0.102 C 
HETATM    3  C3  LIG X 999      41.929 133.054  18.047  1.00  0.00     0.233 C 
ENDROOT
BRANCH   3   4
HETATM    4  S1  LIG X 999      43.093 131.825  17.476  1.00  0.00     0.160 S 
HETATM    5  O1  LIG X 999      42.820 130.543  18.213  1.00  0.00    -0.227 OA
HETATM    6  O2  LIG X 999      42.846 131.599  16.011  1.00  0.00    -0.227 OA
BRANCH   4   7
HETATM    7  C4  LIG X 999      44.815 132.343  17.717  1.00  0.00     0.123 C 
HETATM    8  C5  LIG X 999      45.688 131.993  16.498  1.00  0.00     0.055 C 
HETATM    9  C6  LIG X 999      45.860 130.472  16.312  1.00  0.00     0.170 C 
HETATM   10  C7  LIG X 999      46.022 129.711  17.608  1.00  0.00     0.011 C 
HETATM   11  C8  LIG X 999      45.731 130.238  18.809  1.00  0.00    -0.050 C 
HETATM   12  C9  LIG X 999      45.685 129.366  20.006  1.00  0.00     0.017 C 
HETATM   13  C13 LIG X 999      45.479 131.737  18.972  1.00  0.00     0.060 C 
HETATM   14  C10 LIG X 999      45.146 129.850  21.124  1.00  0.00    -0.024 C 
HETATM   15  C11 LIG X 999      44.640 131.184  21.231  1.00  0.00    -0.027 C 
HETATM   16  C17 LIG X 999      44.936 129.144  22.408  1.00  0.00     0.276 C 
HETATM   17  C12 LIG X 999      44.739 132.083  20.249  1.00  0.00    -0.007 C 
HETATM   18  C14 LIG X 999      44.065 131.383  22.580  1.00  0.00     0.275 C 
HETATM   19  N4  LIG X 999      44.042 130.029  23.221  1.00  0.00    -0.067 N 
HETATM   20  C15 LIG X 999      42.659 129.492  23.208  1.00  0.00     0.272 C 
HETATM   21  C16 LIG X 999      44.515 130.105  24.622  1.00  0.00     0.272 C 
BRANCH   9  22
HETATM   22  N1  LIG X 999      47.017 130.215  15.460  1.00  0.00    -0.106 NA
HETATM   23  N2  LIG X 999      47.082 130.671  14.319  1.00  0.00    -0.167 NA
HETATM   24  N3  LIG X 999      47.148 131.126  13.178  1.00  0.00     0.068 N 
ENDBRANCH   9  22
ENDBRANCH   4   7
ENDBRANCH   3   4
TORSDOF 3
