REMARK VINA RESULT:      -3.9      4.141      6.724
REMARK  3 active torsions:
REMARK  status: ('A' for Active; 'I' for Inactive)
REMARK    1  A    between atoms: C3_3  and  O1_4 
REMARK    2  A    between atoms: O1_4  and  C4_5 
REMARK    3  A    between atoms: C15_16  and  C16_17 
ROOT
HETATM    1  C1  LIG X 999      41.991 123.904  21.263  1.00  0.00     0.014 C 
HETATM    2  C2  LIG X 999      42.049 124.495  22.312  1.00  0.00    -0.091 C 
HETATM    3  C3  LIG X 999      42.120 125.214  23.586  1.00  0.00     0.268 C 
ENDROOT
BRANCH   3   4
HETATM    4  O1  LIG X 999      42.081 126.615  23.334  1.00  0.00    -0.339 OA
BRANCH   4   5
HETATM    5  C4  LIG X 999      43.194 127.473  23.371  1.00  0.00     0.083 C 
HETATM    6  C5  LIG X 999      44.426 127.064  22.792  1.00  0.00     0.038 C 
HETATM    7  C6  LIG X 999      45.461 127.904  22.341  1.00  0.00     0.003 C 
HETATM    8  C7  LIG X 999      45.335 129.266  22.052  1.00  0.00     0.002 C 
HETATM    9  C8  LIG X 999      44.139 129.852  21.621  1.00  0.00     0.020 C 
HETATM   10  C9  LIG X 999      43.700 131.095  22.100  1.00  0.00     0.016 C 
HETATM   11  C10 LIG X 999      42.834 131.881  21.261  1.00  0.00    -0.078 C 
HETATM   12  C12 LIG X 999      43.985 131.572  23.397  1.00  0.00     0.020 C 
HETATM   13  C11 LIG X 999      42.108 132.539  20.560  1.00  0.00     0.018 C 
HETATM   14  C13 LIG X 999      44.336 130.774  24.506  1.00  0.00     0.002 C 
HETATM   15  C14 LIG X 999      44.082 129.396  24.625  1.00  0.00     0.017 C 
HETATM   16  C15 LIG X 999      43.013 128.729  23.991  1.00  0.00     0.035 C 
BRANCH  16  17
HETATM   17  C16 LIG X 999      41.653 129.318  24.018  1.00  0.00     0.272 C 
HETATM   18  O2  LIG X 999      40.704 128.743  24.617  1.00  0.00    -0.301 OA
ENDBRANCH  16  17
ENDBRANCH   4   5
ENDBRANCH   3   4
TORSDOF 3
