MODEL 1
REMARK VINA RESULT:      -8.0      0.000      0.000
REMARK  2 active torsions:
REMARK  status: ('A' for Active; 'I' for Inactive)
REMARK    1  A    between atoms: C2_5  and  C3_6 
REMARK    2  A    between atoms: N3_18  and  C13_19 
ROOT
HETATM    1  H1  LIG X 999      42.747 132.202  15.051  1.00  0.00     0.190 HD
HETATM    2  N1  LIG X 999      43.701 131.777  15.056  1.00  0.00    -0.260 NA
HETATM    3  C1  LIG X 999      44.279 131.457  16.169  1.00  0.00     0.268 A 
HETATM    4  O1  LIG X 999      43.732 131.617  17.353  1.00  0.00    -0.257 OA
HETATM    5  C2  LIG X 999      44.612 131.126  18.202  1.00  0.00     0.177 A 
HETATM    6  N2  LIG X 999      45.708 130.677  17.553  1.00  0.00    -0.269 N 
HETATM    7  H9  LIG X 999      46.579 130.281  17.970  1.00  0.00     0.190 HD
HETATM    8  N3  LIG X 999      45.500 130.892  16.264  1.00  0.00    -0.212 N 
ENDROOT
BRANCH   5   9
HETATM    9  C3  LIG X 999      44.437 131.128  19.670  1.00  0.00     0.028 A 
HETATM   10  C4  LIG X 999      45.383 130.430  20.436  1.00  0.00     0.017 A 
HETATM   11  C5  LIG X 999      45.243 130.322  21.819  1.00  0.00     0.002 A 
HETATM   12  C6  LIG X 999      44.159 130.914  22.464  1.00  0.00     0.012 A 
HETATM   13  C7  LIG X 999      43.217 131.649  21.732  1.00  0.00    -0.025 A 
HETATM   14  C8  LIG X 999      42.146 132.269  22.394  1.00  0.00     0.012 A 
HETATM   15  C12 LIG X 999      43.354 131.779  20.322  1.00  0.00    -0.011 A 
HETATM   16  C9  LIG X 999      41.226 133.037  21.679  1.00  0.00     0.001 A 
HETATM   17  C10 LIG X 999      41.374 133.204  20.303  1.00  0.00     0.001 A 
HETATM   18  C11 LIG X 999      42.432 132.590  19.627  1.00  0.00     0.013 A 
ENDBRANCH   5   9
BRANCH   8  19
HETATM   19  C13 LIG X 999      46.415 130.531  15.216  1.00  0.00     0.105 A 
HETATM   20  C14 LIG X 999      46.786 129.189  15.049  1.00  0.00     0.054 A 
HETATM   21  C15 LIG X 999      47.677 128.839  14.032  1.00  0.00     0.122 A 
HETATM   22  N4  LIG X 999      48.191 129.798  13.218  1.00  0.00    -0.230 NA
HETATM   23  C16 LIG X 999      47.863 131.109  13.364  1.00  0.00     0.251 A 
HETATM   24  F1  LIG X 999      48.413 132.034  12.540  1.00  0.00    -0.181 F 
HETATM   25  C17 LIG X 999      46.973 131.503  14.368  1.00  0.00     0.202 A 
HETATM   26  F2  LIG X 999      46.702 132.821  14.539  1.00  0.00    -0.199 F 
ENDBRANCH   8  19
TORSDOF 2
ENDMDL
MODEL 2
REMARK VINA RESULT:      -7.7      1.517      2.833
REMARK  2 active torsions:
REMARK  status: ('A' for Active; 'I' for Inactive)
REMARK    1  A    between atoms: C2_5  and  C3_6 
REMARK    2  A    between atoms: N3_18  and  C13_19 
ROOT
HETATM    1  H1  LIG X 999      42.321 131.909  13.677  1.00  0.00     0.190 HD
HETATM    2  N1  LIG X 999      43.300 131.653  13.937  1.00  0.00    -0.260 NA
HETATM    3  C1  LIG X 999      43.669 131.617  15.177  1.00  0.00     0.268 A 
HETATM    4  O1  LIG X 999      42.870 131.874  16.189  1.00  0.00    -0.257 OA
HETATM    5  C2  LIG X 999      43.609 131.679  17.262  1.00  0.00     0.177 A 
HETATM    6  N2  LIG X 999      44.865 131.315  16.922  1.00  0.00    -0.269 N 
HETATM    7  H9  LIG X 999      45.673 131.140  17.559  1.00  0.00     0.190 HD
HETATM    8  N3  LIG X 999      44.905 131.282  15.600  1.00  0.00    -0.212 N 
ENDROOT
BRANCH   5   9
HETATM    9  C3  LIG X 999      43.133 131.890  18.645  1.00  0.00     0.028 A 
HETATM   10  C4  LIG X 999      41.932 132.596  18.817  1.00  0.00     0.017 A 
HETATM   11  C5  LIG X 999      41.458 132.901  20.091  1.00  0.00     0.002 A 
HETATM   12  C6  LIG X 999      42.171 132.502  21.220  1.00  0.00     0.012 A 
HETATM   13  C7  LIG X 999      43.355 131.765  21.084  1.00  0.00    -0.025 A 
HETATM   14  C8  LIG X 999      44.049 131.339  22.227  1.00  0.00     0.012 A 
HETATM   15  C12 LIG X 999      43.843 131.434  19.790  1.00  0.00    -0.011 A 
HETATM   16  C9  LIG X 999      45.205 130.568  22.102  1.00  0.00     0.001 A 
HETATM   17  C10 LIG X 999      45.671 130.206  20.839  1.00  0.00     0.001 A 
HETATM   18  C11 LIG X 999      44.994 130.624  19.691  1.00  0.00     0.013 A 
ENDBRANCH   5   9
BRANCH   8  19
HETATM   19  C13 LIG X 999      46.057 130.910  14.825  1.00  0.00     0.105 A 
HETATM   20  C14 LIG X 999      46.735 131.884  14.077  1.00  0.00     0.054 A 
HETATM   21  C15 LIG X 999      47.853 131.521  13.322  1.00  0.00     0.122 A 
HETATM   22  N4  LIG X 999      48.272 130.229  13.303  1.00  0.00    -0.230 NA
HETATM   23  C16 LIG X 999      47.626 129.259  14.004  1.00  0.00     0.251 A 
HETATM   24  F1  LIG X 999      48.068 127.979  13.943  1.00  0.00    -0.181 F 
HETATM   25  C17 LIG X 999      46.504 129.578  14.775  1.00  0.00     0.202 A 
HETATM   26  F2  LIG X 999      45.835 128.591  15.421  1.00  0.00    -0.199 F 
ENDBRANCH   8  19
TORSDOF 2
ENDMDL
MODEL 3
REMARK VINA RESULT:      -7.2      2.162      3.779
REMARK  2 active torsions:
REMARK  status: ('A' for Active; 'I' for Inactive)
REMARK    1  A    between atoms: C2_5  and  C3_6 
REMARK    2  A    between atoms: N3_18  and  C13_19 
ROOT
HETATM    1  H1  LIG X 999      40.916 132.967  17.888  1.00  0.00     0.190 HD
HETATM    2  N1  LIG X 999      41.835 132.544  17.630  1.00  0.00    -0.260 NA
HETATM    3  C1  LIG X 999      42.615 132.049  18.536  1.00  0.00     0.268 A 
HETATM    4  O1  LIG X 999      42.326 132.018  19.817  1.00  0.00    -0.257 OA
HETATM    5  C2  LIG X 999      43.342 131.395  20.380  1.00  0.00     0.177 A 
HETATM    6  N2  LIG X 999      44.266 131.053  19.456  1.00  0.00    -0.269 N 
HETATM    7  H9  LIG X 999      45.189 130.592  19.618  1.00  0.00     0.190 HD
HETATM    8  N3  LIG X 999      43.809 131.472  18.288  1.00  0.00    -0.212 N 
ENDROOT
BRANCH   5   9
HETATM    9  C3  LIG X 999      43.469 131.163  21.833  1.00  0.00     0.028 A 
HETATM   10  C4  LIG X 999      42.962 132.148  22.694  1.00  0.00     0.017 A 
HETATM   11  C5  LIG X 999      43.112 132.037  24.076  1.00  0.00     0.002 A 
HETATM   12  C6  LIG X 999      43.767 130.935  24.625  1.00  0.00     0.012 A 
HETATM   13  C7  LIG X 999      44.252 129.916  23.794  1.00  0.00    -0.025 A 
HETATM   14  C8  LIG X 999      44.881 128.795  24.358  1.00  0.00     0.012 A 
HETATM   15  C12 LIG X 999      44.094 130.010  22.384  1.00  0.00    -0.011 A 
HETATM   16  C9  LIG X 999      45.330 127.756  23.543  1.00  0.00     0.001 A 
HETATM   17  C10 LIG X 999      45.144 127.820  22.162  1.00  0.00     0.001 A 
HETATM   18  C11 LIG X 999      44.524 128.930  21.585  1.00  0.00     0.013 A 
ENDBRANCH   5   9
BRANCH   8  19
HETATM   19  C13 LIG X 999      44.478 131.281  17.030  1.00  0.00     0.105 A 
HETATM   20  C14 LIG X 999      43.875 131.731  15.846  1.00  0.00     0.054 A 
HETATM   21  C15 LIG X 999      44.525 131.542  14.624  1.00  0.00     0.122 A 
HETATM   22  N4  LIG X 999      45.729 130.914  14.583  1.00  0.00    -0.230 NA
HETATM   23  C16 LIG X 999      46.332 130.453  15.711  1.00  0.00     0.251 A 
HETATM   24  F1  LIG X 999      47.525 129.817  15.622  1.00  0.00    -0.181 F 
HETATM   25  C17 LIG X 999      45.718 130.622  16.956  1.00  0.00     0.202 A 
HETATM   26  F2  LIG X 999      46.302 130.104  18.065  1.00  0.00    -0.199 F 
ENDBRANCH   8  19
TORSDOF 2
ENDMDL
MODEL 4
REMARK VINA RESULT:      -7.0      1.265      1.597
REMARK  2 active torsions:
REMARK  status: ('A' for Active; 'I' for Inactive)
REMARK    1  A    between atoms: C2_5  and  C3_6 
REMARK    2  A    between atoms: N3_18  and  C13_19 
ROOT
HETATM    1  H1  LIG X 999      42.443 132.151  15.157  1.00  0.00     0.190 HD
HETATM    2  N1  LIG X 999      43.440 131.840  15.142  1.00  0.00    -0.260 NA
HETATM    3  C1  LIG X 999      44.067 131.575  16.242  1.00  0.00     0.268 A 
HETATM    4  O1  LIG X 999      43.523 131.653  17.436  1.00  0.00    -0.257 OA
HETATM    5  C2  LIG X 999      44.467 131.257  18.266  1.00  0.00     0.177 A 
HETATM    6  N2  LIG X 999      45.598 130.947  17.595  1.00  0.00    -0.269 N 
HETATM    7  H9  LIG X 999      46.515 130.649  17.994  1.00  0.00     0.190 HD
HETATM    8  N3  LIG X 999      45.347 131.154  16.312  1.00  0.00    -0.212 N 
ENDROOT
BRANCH   5   9
HETATM    9  C3  LIG X 999      44.315 131.219  19.735  1.00  0.00     0.028 A 
HETATM   10  C4  LIG X 999      45.275 130.503  20.467  1.00  0.00     0.017 A 
HETATM   11  C5  LIG X 999      45.157 130.357  21.849  1.00  0.00     0.002 A 
HETATM   12  C6  LIG X 999      44.082 130.928  22.527  1.00  0.00     0.012 A 
HETATM   13  C7  LIG X 999      43.126 131.679  21.829  1.00  0.00    -0.025 A 
HETATM   14  C8  LIG X 999      42.064 132.278  22.524  1.00  0.00     0.012 A 
HETATM   15  C12 LIG X 999      43.241 131.848  20.422  1.00  0.00    -0.011 A 
HETATM   16  C9  LIG X 999      41.131 133.063  21.845  1.00  0.00     0.001 A 
HETATM   17  C10 LIG X 999      41.257 133.267  20.472  1.00  0.00     0.001 A 
HETATM   18  C11 LIG X 999      42.306 132.675  19.764  1.00  0.00     0.013 A 
ENDBRANCH   5   9
BRANCH   8  19
HETATM   19  C13 LIG X 999      46.282 130.916  15.246  1.00  0.00     0.105 A 
HETATM   20  C14 LIG X 999      46.722 131.988  14.457  1.00  0.00     0.054 A 
HETATM   21  C15 LIG X 999      47.629 131.756  13.419  1.00  0.00     0.122 A 
HETATM   22  N4  LIG X 999      48.069 130.495  13.170  1.00  0.00    -0.230 NA
HETATM   23  C16 LIG X 999      47.648 129.432  13.907  1.00  0.00     0.251 A 
HETATM   24  F1  LIG X 999      48.101 128.190  13.612  1.00  0.00    -0.181 F 
HETATM   25  C17 LIG X 999      46.743 129.620  14.956  1.00  0.00     0.202 A 
HETATM   26  F2  LIG X 999      46.286 128.544  15.645  1.00  0.00    -0.199 F 
ENDBRANCH   8  19
TORSDOF 2
ENDMDL
MODEL 5
REMARK VINA RESULT:      -6.2      8.413      9.646
REMARK  2 active torsions:
REMARK  status: ('A' for Active; 'I' for Inactive)
REMARK    1  A    between atoms: C2_5  and  C3_6 
REMARK    2  A    between atoms: N3_18  and  C13_19 
ROOT
HETATM    1  H1  LIG X 999      44.462 121.836  20.474  1.00  0.00     0.190 HD
HETATM    2  N1  LIG X 999      45.102 122.375  21.099  1.00  0.00    -0.260 NA
HETATM    3  C1  LIG X 999      44.640 123.276  21.904  1.00  0.00     0.268 A 
HETATM    4  O1  LIG X 999      43.365 123.575  22.018  1.00  0.00    -0.257 OA
HETATM    5  C2  LIG X 999      43.315 124.489  22.966  1.00  0.00     0.177 A 
HETATM    6  N2  LIG X 999      44.552 124.769  23.430  1.00  0.00    -0.269 N 
HETATM    7  H9  LIG X 999      44.819 125.481  24.146  1.00  0.00     0.190 HD
HETATM    8  N3  LIG X 999      45.393 124.005  22.752  1.00  0.00    -0.212 N 
ENDROOT
BRANCH   5   9
HETATM    9  C3  LIG X 999      42.072 125.153  23.410  1.00  0.00     0.028 A 
HETATM   10  C4  LIG X 999      42.096 126.550  23.546  1.00  0.00     0.017 A 
HETATM   11  C5  LIG X 999      40.987 127.240  24.033  1.00  0.00     0.002 A 
HETATM   12  C6  LIG X 999      39.830 126.549  24.389  1.00  0.00     0.012 A 
HETATM   13  C7  LIG X 999      39.762 125.158  24.232  1.00  0.00    -0.025 A 
HETATM   14  C8  LIG X 999      38.581 124.474  24.561  1.00  0.00     0.012 A 
HETATM   15  C12 LIG X 999      40.880 124.443  23.722  1.00  0.00    -0.011 A 
HETATM   16  C9  LIG X 999      38.488 123.096  24.368  1.00  0.00     0.001 A 
HETATM   17  C10 LIG X 999      39.566 122.391  23.833  1.00  0.00     0.001 A 
HETATM   18  C11 LIG X 999      40.749 123.055  23.503  1.00  0.00     0.013 A 
ENDBRANCH   5   9
BRANCH   8  19
HETATM   19  C13 LIG X 999      46.816 123.971  22.958  1.00  0.00     0.105 A 
HETATM   20  C14 LIG X 999      47.394 122.888  23.636  1.00  0.00     0.054 A 
HETATM   21  C15 LIG X 999      48.776 122.857  23.837  1.00  0.00     0.122 A 
HETATM   22  N4  LIG X 999      49.552 123.878  23.391  1.00  0.00    -0.230 NA
HETATM   23  C16 LIG X 999      49.020 124.950  22.745  1.00  0.00     0.251 A 
HETATM   24  F1  LIG X 999      49.830 125.955  22.332  1.00  0.00    -0.181 F 
HETATM   25  C17 LIG X 999      47.642 125.021  22.520  1.00  0.00     0.202 A 
HETATM   26  F2  LIG X 999      47.118 126.123  21.928  1.00  0.00    -0.199 F 
ENDBRANCH   8  19
TORSDOF 2
ENDMDL
MODEL 6
REMARK VINA RESULT:      -6.1      6.032      7.713
REMARK  2 active torsions:
REMARK  status: ('A' for Active; 'I' for Inactive)
REMARK    1  A    between atoms: C2_5  and  C3_6 
REMARK    2  A    between atoms: N3_18  and  C13_19 
ROOT
HETATM    1  H1  LIG X 999      44.118 124.134  24.380  1.00  0.00     0.190 HD
HETATM    2  N1  LIG X 999      44.980 124.381  23.843  1.00  0.00    -0.260 NA
HETATM    3  C1  LIG X 999      45.159 125.581  23.393  1.00  0.00     0.268 A 
HETATM    4  O1  LIG X 999      44.312 126.569  23.576  1.00  0.00    -0.257 OA
HETATM    5  C2  LIG X 999      44.884 127.615  23.014  1.00  0.00     0.177 A 
HETATM    6  N2  LIG X 999      46.073 127.278  22.471  1.00  0.00    -0.269 N 
HETATM    7  H9  LIG X 999      46.722 127.888  21.925  1.00  0.00     0.190 HD
HETATM    8  N3  LIG X 999      46.245 125.987  22.705  1.00  0.00    -0.212 N 
ENDROOT
BRANCH   5   9
HETATM    9  C3  LIG X 999      44.268 128.956  22.943  1.00  0.00     0.028 A 
HETATM   10  C4  LIG X 999      43.345 129.300  23.942  1.00  0.00     0.017 A 
HETATM   11  C5  LIG X 999      42.666 130.516  23.900  1.00  0.00     0.002 A 
HETATM   12  C6  LIG X 999      42.900 131.417  22.863  1.00  0.00     0.012 A 
HETATM   13  C7  LIG X 999      43.843 131.119  21.870  1.00  0.00    -0.025 A 
HETATM   14  C8  LIG X 999      44.097 132.046  20.847  1.00  0.00     0.012 A 
HETATM   15  C12 LIG X 999      44.553 129.888  21.907  1.00  0.00    -0.011 A 
HETATM   16  C9  LIG X 999      45.064 131.778  19.877  1.00  0.00     0.001 A 
HETATM   17  C10 LIG X 999      45.793 130.591  19.927  1.00  0.00     0.001 A 
HETATM   18  C11 LIG X 999      45.551 129.656  20.936  1.00  0.00     0.013 A 
ENDBRANCH   5   9
BRANCH   8  19
HETATM   19  C13 LIG X 999      47.406 125.232  22.316  1.00  0.00     0.105 A 
HETATM   20  C14 LIG X 999      47.300 124.268  21.303  1.00  0.00     0.054 A 
HETATM   21  C15 LIG X 999      48.427 123.533  20.928  1.00  0.00     0.122 A 
HETATM   22  N4  LIG X 999      49.615 123.743  21.552  1.00  0.00    -0.230 NA
HETATM   23  C16 LIG X 999      49.747 124.659  22.548  1.00  0.00     0.251 A 
HETATM   24  F1  LIG X 999      50.947 124.823  23.154  1.00  0.00    -0.181 F 
HETATM   25  C17 LIG X 999      48.645 125.418  22.954  1.00  0.00     0.202 A 
HETATM   26  F2  LIG X 999      48.776 126.285  23.989  1.00  0.00    -0.199 F 
ENDBRANCH   8  19
TORSDOF 2
ENDMDL
MODEL 7
REMARK VINA RESULT:      -6.0      1.105      2.531
REMARK  2 active torsions:
REMARK  status: ('A' for Active; 'I' for Inactive)
REMARK    1  A    between atoms: C2_5  and  C3_6 
REMARK    2  A    between atoms: N3_18  and  C13_19 
ROOT
HETATM    1  H1  LIG X 999      42.101 132.696  15.502  1.00  0.00     0.190 HD
HETATM    2  N1  LIG X 999      43.005 132.177  15.582  1.00  0.00    -0.260 NA
HETATM    3  C1  LIG X 999      43.458 131.811  16.738  1.00  0.00     0.268 A 
HETATM    4  O1  LIG X 999      42.838 132.034  17.874  1.00  0.00    -0.257 OA
HETATM    5  C2  LIG X 999      43.595 131.466  18.791  1.00  0.00     0.177 A 
HETATM    6  N2  LIG X 999      44.688 130.903  18.230  1.00  0.00    -0.269 N 
HETATM    7  H9  LIG X 999      45.479 130.425  18.716  1.00  0.00     0.190 HD
HETATM    8  N3  LIG X 999      44.604 131.127  16.929  1.00  0.00    -0.212 N 
ENDROOT
BRANCH   5   9
HETATM    9  C3  LIG X 999      43.306 131.497  20.240  1.00  0.00     0.028 A 
HETATM   10  C4  LIG X 999      42.388 132.455  20.697  1.00  0.00     0.017 A 
HETATM   11  C5  LIG X 999      42.121 132.598  22.058  1.00  0.00     0.002 A 
HETATM   12  C6  LIG X 999      42.762 131.782  22.989  1.00  0.00     0.012 A 
HETATM   13  C7  LIG X 999      43.657 130.792  22.562  1.00  0.00    -0.025 A 
HETATM   14  C8  LIG X 999      44.273 129.953  23.503  1.00  0.00     0.012 A 
HETATM   15  C12 LIG X 999      43.928 130.626  21.175  1.00  0.00    -0.011 A 
HETATM   16  C9  LIG X 999      45.133 128.937  23.086  1.00  0.00     0.001 A 
HETATM   17  C10 LIG X 999      45.375 128.741  21.727  1.00  0.00     0.001 A 
HETATM   18  C11 LIG X 999      44.773 129.568  20.776  1.00  0.00     0.013 A 
ENDBRANCH   5   9
BRANCH   8  19
HETATM   19  C13 LIG X 999      45.558 130.667  15.957  1.00  0.00     0.105 A 
HETATM   20  C14 LIG X 999      45.790 129.292  15.808  1.00  0.00     0.054 A 
HETATM   21  C15 LIG X 999      46.719 128.846  14.864  1.00  0.00     0.122 A 
HETATM   22  N4  LIG X 999      47.403 129.742  14.106  1.00  0.00    -0.230 NA
HETATM   23  C16 LIG X 999      47.212 131.082  14.238  1.00  0.00     0.251 A 
HETATM   24  F1  LIG X 999      47.929 131.940  13.472  1.00  0.00    -0.181 F 
HETATM   25  C17 LIG X 999      46.291 131.572  15.168  1.00  0.00     0.202 A 
HETATM   26  F2  LIG X 999      46.154 132.912  15.331  1.00  0.00    -0.199 F 
ENDBRANCH   8  19
TORSDOF 2
ENDMDL
MODEL 8
REMARK VINA RESULT:      -5.9      7.024      9.275
REMARK  2 active torsions:
REMARK  status: ('A' for Active; 'I' for Inactive)
REMARK    1  A    between atoms: C2_5  and  C3_6 
REMARK    2  A    between atoms: N3_18  and  C13_19 
ROOT
HETATM    1  H1  LIG X 999      46.044 124.825  23.632  1.00  0.00     0.190 HD
HETATM    2  N1  LIG X 999      45.012 124.725  23.506  1.00  0.00    -0.260 NA
HETATM    3  C1  LIG X 999      44.249 125.767  23.427  1.00  0.00     0.268 A 
HETATM    4  O1  LIG X 999      44.689 127.005  23.481  1.00  0.00    -0.257 OA
HETATM    5  C2  LIG X 999      43.617 127.753  23.314  1.00  0.00     0.177 A 
HETATM    6  N2  LIG X 999      42.514 126.987  23.172  1.00  0.00    -0.269 N 
HETATM    7  H9  LIG X 999      41.524 127.306  23.071  1.00  0.00     0.190 HD
HETATM    8  N3  LIG X 999      42.913 125.728  23.250  1.00  0.00    -0.212 N 
ENDROOT
BRANCH   5   9
HETATM    9  C3  LIG X 999      43.626 129.230  23.340  1.00  0.00     0.028 A 
HETATM   10  C4  LIG X 999      42.912 129.865  24.369  1.00  0.00     0.017 A 
HETATM   11  C5  LIG X 999      42.811 131.255  24.416  1.00  0.00     0.002 A 
HETATM   12  C6  LIG X 999      43.425 132.038  23.441  1.00  0.00     0.012 A 
HETATM   13  C7  LIG X 999      44.175 131.436  22.422  1.00  0.00    -0.025 A 
HETATM   14  C8  LIG X 999      44.818 132.234  21.463  1.00  0.00     0.012 A 
HETATM   15  C12 LIG X 999      44.299 130.020  22.369  1.00  0.00    -0.011 A 
HETATM   16  C9  LIG X 999      45.602 131.647  20.469  1.00  0.00     0.001 A 
HETATM   17  C10 LIG X 999      45.762 130.263  20.431  1.00  0.00     0.001 A 
HETATM   18  C11 LIG X 999      45.126 129.453  21.376  1.00  0.00     0.013 A 
ENDBRANCH   5   9
BRANCH   8  19
HETATM   19  C13 LIG X 999      42.050 124.586  23.119  1.00  0.00     0.105 A 
HETATM   20  C14 LIG X 999      42.403 123.545  22.247  1.00  0.00     0.054 A 
HETATM   21  C15 LIG X 999      41.562 122.437  22.118  1.00  0.00     0.122 A 
HETATM   22  N4  LIG X 999      40.404 122.375  22.825  1.00  0.00    -0.230 NA
HETATM   23  C16 LIG X 999      40.026 123.374  23.666  1.00  0.00     0.251 A 
HETATM   24  F1  LIG X 999      38.854 123.278  24.339  1.00  0.00    -0.181 F 
HETATM   25  C17 LIG X 999      40.839 124.501  23.827  1.00  0.00     0.202 A 
HETATM   26  F2  LIG X 999      40.422 125.516  24.624  1.00  0.00    -0.199 F 
ENDBRANCH   8  19
TORSDOF 2
ENDMDL
MODEL 9
REMARK VINA RESULT:      -5.7      8.010      9.478
REMARK  2 active torsions:
REMARK  status: ('A' for Active; 'I' for Inactive)
REMARK    1  A    between atoms: C2_5  and  C3_6 
REMARK    2  A    between atoms: N3_18  and  C13_19 
ROOT
HETATM    1  H1  LIG X 999      45.729 127.440  21.705  1.00  0.00     0.190 HD
HETATM    2  N1  LIG X 999      46.114 126.523  22.027  1.00  0.00    -0.260 NA
HETATM    3  C1  LIG X 999      45.325 125.565  22.394  1.00  0.00     0.268 A 
HETATM    4  O1  LIG X 999      44.014 125.648  22.381  1.00  0.00    -0.257 OA
HETATM    5  C2  LIG X 999      43.596 124.461  22.773  1.00  0.00     0.177 A 
HETATM    6  N2  LIG X 999      44.640 123.648  23.041  1.00  0.00    -0.269 N 
HETATM    7  H9  LIG X 999      44.610 122.671  23.410  1.00  0.00     0.190 HD
HETATM    8  N3  LIG X 999      45.737 124.350  22.807  1.00  0.00    -0.212 N 
ENDROOT
BRANCH   5   9
HETATM    9  C3  LIG X 999      42.173 124.100  22.946  1.00  0.00     0.028 A 
HETATM   10  C4  LIG X 999      41.804 122.773  22.679  1.00  0.00     0.017 A 
HETATM   11  C5  LIG X 999      40.469 122.375  22.747  1.00  0.00     0.002 A 
HETATM   12  C6  LIG X 999      39.478 123.294  23.088  1.00  0.00     0.012 A 
HETATM   13  C7  LIG X 999      39.819 124.618  23.396  1.00  0.00    -0.025 A 
HETATM   14  C8  LIG X 999      38.819 125.528  23.771  1.00  0.00     0.012 A 
HETATM   15  C12 LIG X 999      41.178 125.034  23.345  1.00  0.00    -0.011 A 
HETATM   16  C9  LIG X 999      39.152 126.837  24.119  1.00  0.00     0.001 A 
HETATM   17  C10 LIG X 999      40.486 127.245  24.110  1.00  0.00     0.001 A 
HETATM   18  C11 LIG X 999      41.494 126.353  23.737  1.00  0.00     0.013 A 
ENDBRANCH   5   9
BRANCH   8  19
HETATM   19  C13 LIG X 999      47.076 123.845  22.942  1.00  0.00     0.105 A 
HETATM   20  C14 LIG X 999      47.682 123.813  24.207  1.00  0.00     0.054 A 
HETATM   21  C15 LIG X 999      48.985 123.325  24.337  1.00  0.00     0.122 A 
HETATM   22  N4  LIG X 999      49.663 122.895  23.241  1.00  0.00    -0.230 NA
HETATM   23  C16 LIG X 999      49.109 122.928  22.000  1.00  0.00     0.251 A 
HETATM   24  F1  LIG X 999      49.829 122.505  20.933  1.00  0.00    -0.181 F 
HETATM   25  C17 LIG X 999      47.808 123.407  21.825  1.00  0.00     0.202 A 
HETATM   26  F2  LIG X 999      47.289 123.489  20.574  1.00  0.00    -0.199 F 
ENDBRANCH   8  19
TORSDOF 2
ENDMDL
