REMARK VINA RESULT:      -8.1      1.365      5.207
REMARK  1 active torsions:
REMARK  status: ('A' for Active; 'I' for Inactive)
REMARK    1  A    between atoms: C12_13  and  N2_14 
ROOT
HETATM    1  C1  LIG X 999      43.030 129.957  22.752  1.00  0.00     0.272 C 
HETATM    2  N1  LIG X 999      43.708 131.165  22.221  1.00  0.00    -0.067 N 
HETATM    3  C2  LIG X 999      43.955 132.107  23.337  1.00  0.00     0.272 C 
HETATM    4  C3  LIG X 999      44.995 130.779  21.562  1.00  0.00     0.276 C 
HETATM    5  C4  LIG X 999      44.769 130.966  20.112  1.00  0.00    -0.021 A 
HETATM    6  C5  LIG X 999      45.633 130.627  19.077  1.00  0.00     0.022 A 
HETATM    7  C6  LIG X 999      45.248 130.905  17.754  1.00  0.00    -0.023 A 
HETATM    8  C7  LIG X 999      46.110 130.575  16.697  1.00  0.00     0.012 A 
HETATM    9  C8  LIG X 999      45.750 130.861  15.381  1.00  0.00     0.001 A 
HETATM   10  C9  LIG X 999      44.534 131.484  15.107  1.00  0.00     0.001 A 
HETATM   11  C10 LIG X 999      43.660 131.821  16.145  1.00  0.00     0.014 A 
HETATM   12  C11 LIG X 999      43.990 131.530  17.487  1.00  0.00     0.001 A 
HETATM   13  C12 LIG X 999      43.126 131.854  18.576  1.00  0.00     0.045 A 
HETATM   14  C13 LIG X 999      43.565 131.555  19.877  1.00  0.00     0.003 A 
HETATM   15  C14 LIG X 999      42.865 131.805  21.163  1.00  0.00     0.278 C 
ENDROOT
BRANCH  13  16
HETATM   16  N2  LIG X 999      41.836 132.460  18.388  1.00  0.00    -0.398 N 
HETATM   17  H14 LIG X 999      41.102 132.394  19.128  1.00  0.00     0.156 HD
HETATM   18  H15 LIG X 999      41.547 132.914  17.498  1.00  0.00     0.156 HD
ENDBRANCH  13  16
TORSDOF 1
