REMARK VINA RESULT:      -6.2      6.447      7.808
REMARK  7 active torsions:
REMARK  status: ('A' for Active; 'I' for Inactive)
REMARK    1  A    between atoms: N1_2  and  C2_3 
REMARK    2  A    between atoms: C2_3  and  C4_5 
REMARK    3  A    between atoms: C4_5  and  C5_6 
REMARK    4  A    between atoms: C5_6  and  C6_7 
REMARK    5  A    between atoms: C6_7  and  C7_8 
REMARK    6  A    between atoms: C7_8  and  N2_9 
REMARK    7  A    between atoms: N2_9  and  C8_10 
ROOT
HETATM    1  C8  LIG X 999      48.014 133.860  22.035  1.00  0.00     0.101 C 
HETATM    2  C9  LIG X 999      48.998 133.599  22.994  1.00  0.00     0.056 C 
HETATM    3  C10 LIG X 999      50.012 134.533  23.247  1.00  0.00    -0.045 C 
HETATM    4  C11 LIG X 999      51.181 134.039  24.065  1.00  0.00     0.049 C 
HETATM    5  C12 LIG X 999      49.957 135.814  22.616  1.00  0.00     0.008 C 
HETATM    6  C13 LIG X 999      49.027 135.963  21.548  1.00  0.00     0.045 C 
HETATM    7  C14 LIG X 999      49.076 137.090  20.718  1.00  0.00     0.031 C 
HETATM    8  C15 LIG X 999      50.016 138.089  20.931  1.00  0.00     0.014 C 
HETATM    9  C16 LIG X 999      50.853 138.040  22.048  1.00  0.00    -0.025 C 
HETATM   10  C17 LIG X 999      51.717 139.118  22.304  1.00  0.00     0.012 C 
HETATM   11  C18 LIG X 999      52.463 139.157  23.478  1.00  0.00     0.001 C 
HETATM   12  C19 LIG X 999      52.324 138.145  24.423  1.00  0.00     0.001 C 
HETATM   13  C20 LIG X 999      51.480 137.060  24.174  1.00  0.00     0.013 C 
HETATM   14  C21 LIG X 999      50.791 136.935  22.944  1.00  0.00    -0.013 C 
HETATM   15  N3  LIG X 999      48.086 135.005  21.307  1.00  0.00    -0.342 N 
HETATM   16  H28 LIG X 999      47.387 135.154  20.544  1.00  0.00     0.167 HD
ENDROOT
BRANCH   1  17
HETATM   17  N2  LIG X 999      46.967 132.911  21.750  1.00  0.00    -0.376 N 
HETATM   18  H17 LIG X 999      46.909 132.050  22.340  1.00  0.00     0.161 HD
BRANCH  17  19
HETATM   19  C7  LIG X 999      46.009 133.026  20.646  1.00  0.00     0.121 C 
BRANCH  19  20
HETATM   20  C6  LIG X 999      45.053 131.826  20.603  1.00  0.00     0.020 C 
BRANCH  20  21
HETATM   21  C5  LIG X 999      44.674 131.446  19.164  1.00  0.00     0.004 C 
BRANCH  21  22
HETATM   22  C4  LIG X 999      45.729 130.515  18.547  1.00  0.00     0.035 C 
BRANCH  22  23
HETATM   23  C2  LIG X 999      45.627 130.473  17.011  1.00  0.00     0.216 C 
HETATM   24  C3  LIG X 999      45.450 131.899  16.459  1.00  0.00     0.042 C 
BRANCH  23  25
HETATM   25  N1  LIG X 999      46.832 129.824  16.458  1.00  0.00     0.083 N 
HETATM   26  C1  LIG X 999      46.867 129.878  14.994  1.00  0.00     0.307 C 
HETATM   27  H4  LIG X 999      47.696 130.282  16.832  1.00  0.00     0.315 HD
ENDBRANCH  23  25
ENDBRANCH  22  23
ENDBRANCH  21  22
ENDBRANCH  20  21
ENDBRANCH  19  20
ENDBRANCH  17  19
ENDBRANCH   1  17
TORSDOF 7
