REMARK VINA RESULT:      -6.5      1.336      1.818
REMARK  4 active torsions:
REMARK  status: ('A' for Active; 'I' for Inactive)
REMARK    1  A    between atoms: C1_2  and  C2_4 
REMARK    2  A    between atoms: C8_10  and  C9_11 
REMARK       I    between atoms: C9_11  and  N1_13 
REMARK    3  A    between atoms: N1_13  and  S1_14 
REMARK    4  A    between atoms: S1_14  and  C10_17 
ROOT
HETATM    1  C9  LIG X 999      43.917 128.696  23.640  1.00  0.00     0.259 C 
HETATM    2  O3  LIG X 999      43.016 128.693  22.758  1.00  0.00    -0.270 OA
HETATM    3  N1  LIG X 999      44.348 129.931  24.218  1.00  0.00    -0.122 NA
ENDROOT
BRANCH   3   4
HETATM    4  S1  LIG X 999      43.692 131.457  23.734  1.00  0.00     0.286 S 
HETATM    5  O4  LIG X 999      42.307 131.593  24.303  1.00  0.00    -0.198 OA
HETATM    6  O5  LIG X 999      44.556 132.562  24.272  1.00  0.00    -0.198 OA
BRANCH   4   7
HETATM    7  C10 LIG X 999      43.652 131.561  21.976  1.00  0.00     0.082 A 
HETATM    8  C11 LIG X 999      42.536 132.114  21.336  1.00  0.00     0.026 A 
HETATM    9  C12 LIG X 999      42.495 132.209  19.943  1.00  0.00     0.014 A 
HETATM   10  C13 LIG X 999      43.571 131.746  19.172  1.00  0.00    -0.026 A 
HETATM   11  C14 LIG X 999      43.540 131.836  17.772  1.00  0.00     0.012 A 
HETATM   12  C18 LIG X 999      44.699 131.179  19.814  1.00  0.00    -0.025 A 
HETATM   13  C15 LIG X 999      44.617 131.365  17.015  1.00  0.00     0.001 A 
HETATM   14  C16 LIG X 999      45.729 130.803  17.649  1.00  0.00     0.001 A 
HETATM   15  C17 LIG X 999      45.775 130.711  19.042  1.00  0.00     0.012 A 
HETATM   16  C19 LIG X 999      44.731 131.090  21.215  1.00  0.00     0.037 A 
ENDBRANCH   4   7
ENDBRANCH   3   4
BRANCH   1  17
HETATM   17  C8  LIG X 999      44.519 127.401  24.139  1.00  0.00     0.099 C 
HETATM   18  C2  LIG X 999      43.500 126.245  24.375  1.00  0.00     0.104 C 
HETATM   19  C3  LIG X 999      44.060 125.118  23.469  1.00  0.00     0.001 C 
HETATM   20  C4  LIG X 999      45.352 124.573  24.109  1.00  0.00     0.006 C 
HETATM   21  C7  LIG X 999      44.619 125.886  22.292  1.00  0.00     0.011 C 
HETATM   22  C5  LIG X 999      46.358 125.715  23.876  1.00  0.00     0.006 C 
HETATM   23  C6  LIG X 999      45.514 126.768  23.133  1.00  0.00    -0.000 C 
BRANCH  18  24
HETATM   24  C1  LIG X 999      42.057 126.583  24.064  1.00  0.00     0.178 C 
HETATM   25  O1  LIG X 999      41.517 127.572  24.625  1.00  0.00    -0.648 OA
HETATM   26  O2  LIG X 999      41.331 125.847  23.136  1.00  0.00    -0.648 OA
ENDBRANCH  18  24
ENDBRANCH   1  17
TORSDOF 4
