REMARK VINA RESULT:      -9.0      0.000      0.000
REMARK  5 active torsions:
REMARK  status: ('A' for Active; 'I' for Inactive)
REMARK    1  A    between atoms: O1_2  and  C1_3 
REMARK    2  A    between atoms: C1_3  and  C5_11 
REMARK       I    between atoms: N1_4  and  C2_5 
REMARK    3  A    between atoms: C2_5  and  O3_7 
REMARK    4  A    between atoms: O3_7  and  C3_8 
REMARK    5  A    between atoms: C6_12  and  O4_13 
ROOT
HETATM    1  C5  LIG X 999      43.825 131.786  18.599  1.00  0.00     0.051 A 
HETATM    2  C6  LIG X 999      42.537 132.311  18.841  1.00  0.00     0.081 A 
HETATM    3  C7  LIG X 999      42.023 132.341  20.145  1.00  0.00     0.049 A 
HETATM    4  C8  LIG X 999      42.777 131.850  21.218  1.00  0.00    -0.023 A 
HETATM    5  C9  LIG X 999      42.264 131.878  22.525  1.00  0.00     0.012 A 
HETATM    6  C10 LIG X 999      43.026 131.388  23.590  1.00  0.00     0.001 A 
HETATM    7  C11 LIG X 999      44.302 130.867  23.358  1.00  0.00     0.001 A 
HETATM    8  C12 LIG X 999      44.823 130.834  22.061  1.00  0.00     0.012 A 
HETATM    9  C13 LIG X 999      44.067 131.322  20.984  1.00  0.00    -0.025 A 
HETATM   10  C14 LIG X 999      44.581 131.295  19.679  1.00  0.00     0.031 A 
ENDROOT
BRANCH   1  11
HETATM   11  C1  LIG X 999      44.401 131.755  17.232  1.00  0.00     0.181 C 
HETATM   12  N1  LIG X 999      43.611 131.612  16.208  1.00  0.00    -0.162 NA
HETATM   13  C2  LIG X 999      44.012 131.565  14.833  1.00  0.00     0.390 C 
HETATM   14  O2  LIG X 999      43.127 131.428  13.947  1.00  0.00    -0.236 OA
BRANCH  11  15
HETATM   15  O1  LIG X 999      45.779 131.886  17.048  1.00  0.00    -0.344 OA
HETATM   16  H1  LIG X 999      46.357 132.432  17.676  1.00  0.00     0.219 HD
ENDBRANCH  11  15
BRANCH  13  17
HETATM   17  O3  LIG X 999      45.363 131.658  14.473  1.00  0.00    -0.282 OA
BRANCH  17  18
HETATM   18  C3  LIG X 999      46.073 130.623  13.796  1.00  0.00     0.225 C 
HETATM   19 CL1  LIG X 999      46.272 129.247  14.909  1.00  0.00    -0.095 Cl
HETATM   20  C4  LIG X 999      47.446 131.119  13.351  1.00  0.00     0.057 C 
ENDBRANCH  17  18
ENDBRANCH  13  17
ENDBRANCH   1  11
BRANCH   2  21
HETATM   21  O4  LIG X 999      41.759 132.786  17.785  1.00  0.00    -0.360 OA
HETATM   22  H6  LIG X 999      41.756 133.765  17.523  1.00  0.00     0.217 HD
ENDBRANCH   2  21
TORSDOF 5
