MODEL 1
REMARK VINA RESULT:      -7.4      0.000      0.000
REMARK  1 active torsions:
REMARK  status: ('A' for Active; 'I' for Inactive)
REMARK    1  A    between atoms: C10_11  and  N2_12 
ROOT
HETATM    1  N2  LIG X 999      44.994 131.446  14.618  1.00  0.00    -0.214 NA
HETATM    2  C11 LIG X 999      46.101 131.158  14.060  1.00  0.00     0.165 C 
HETATM    3  S1  LIG X 999      47.502 130.793  13.353  1.00  0.00    -0.055 SA
ENDROOT
BRANCH   1   4
HETATM    4  C10 LIG X 999      44.768 131.382  16.034  1.00  0.00     0.152 C 
HETATM    5  N1  LIG X 999      43.594 131.846  16.524  1.00  0.00    -0.229 NA
HETATM    6  C9  LIG X 999      43.304 131.851  17.851  1.00  0.00     0.070 C 
HETATM    7  C8  LIG X 999      42.041 132.289  18.250  1.00  0.00     0.033 C 
HETATM    8  C15 LIG X 999      44.257 131.399  18.806  1.00  0.00     0.010 C 
HETATM    9  C7  LIG X 999      41.692 132.308  19.593  1.00  0.00     0.014 C 
HETATM   10  C5  LIG X 999      42.640 131.993  20.572  1.00  0.00    -0.025 C 
HETATM   11  C4  LIG X 999      43.958 131.599  20.196  1.00  0.00    -0.013 C 
HETATM   12  C6  LIG X 999      42.295 132.123  21.926  1.00  0.00     0.012 C 
HETATM   13  C3  LIG X 999      44.931 131.530  21.222  1.00  0.00     0.013 C 
HETATM   14  C2  LIG X 999      44.575 131.677  22.564  1.00  0.00     0.001 C 
HETATM   15  C1  LIG X 999      43.256 131.945  22.918  1.00  0.00     0.001 C 
HETATM   16  C13 LIG X 999      45.422 130.745  18.291  1.00  0.00    -0.045 C 
HETATM   17  C12 LIG X 999      45.694 130.807  16.915  1.00  0.00     0.060 C 
HETATM   18  C14 LIG X 999      46.322 129.848  19.104  1.00  0.00     0.049 C 
ENDBRANCH   1   4
TORSDOF 1
ENDMDL
MODEL 2
REMARK VINA RESULT:      -7.3      3.767      6.010
REMARK  1 active torsions:
REMARK  status: ('A' for Active; 'I' for Inactive)
REMARK    1  A    between atoms: C10_11  and  N2_12 
ROOT
HETATM    1  N2  LIG X 999      42.737 131.239  23.483  1.00  0.00    -0.214 NA
HETATM    2  C11 LIG X 999      42.218 130.191  23.986  1.00  0.00     0.165 C 
HETATM    3  S1  LIG X 999      41.562 128.864  24.623  1.00  0.00    -0.055 SA
ENDROOT
BRANCH   1   4
HETATM    4  C10 LIG X 999      43.303 131.301  22.165  1.00  0.00     0.152 C 
HETATM    5  N1  LIG X 999      42.484 131.575  21.122  1.00  0.00    -0.229 NA
HETATM    6  C9  LIG X 999      42.924 131.628  19.838  1.00  0.00     0.070 C 
HETATM    7  C8  LIG X 999      42.016 131.983  18.841  1.00  0.00     0.033 C 
HETATM    8  C15 LIG X 999      44.284 131.351  19.523  1.00  0.00     0.010 C 
HETATM    9  C7  LIG X 999      42.417 132.058  17.515  1.00  0.00     0.014 C 
HETATM   10  C5  LIG X 999      43.710 131.671  17.146  1.00  0.00    -0.025 C 
HETATM   11  C4  LIG X 999      44.643 131.247  18.137  1.00  0.00    -0.013 C 
HETATM   12  C6  LIG X 999      44.058 131.654  15.786  1.00  0.00     0.012 C 
HETATM   13  C3  LIG X 999      45.840 130.643  17.683  1.00  0.00     0.013 C 
HETATM   14  C2  LIG X 999      46.166 130.619  16.325  1.00  0.00     0.001 C 
HETATM   15  C1  LIG X 999      45.290 131.148  15.382  1.00  0.00     0.001 C 
HETATM   16  C13 LIG X 999      45.189 131.237  20.628  1.00  0.00    -0.045 C 
HETATM   17  C12 LIG X 999      44.675 131.145  21.931  1.00  0.00     0.060 C 
HETATM   18  C14 LIG X 999      46.689 131.361  20.514  1.00  0.00     0.049 C 
ENDBRANCH   1   4
TORSDOF 1
ENDMDL
MODEL 3
REMARK VINA RESULT:      -6.5      0.918      2.657
REMARK  1 active torsions:
REMARK  status: ('A' for Active; 'I' for Inactive)
REMARK    1  A    between atoms: C10_11  and  N2_12 
ROOT
HETATM    1  N2  LIG X 999      44.469 130.963  15.070  1.00  0.00    -0.214 NA
HETATM    2  C11 LIG X 999      45.617 130.991  14.521  1.00  0.00     0.165 C 
HETATM    3  S1  LIG X 999      47.070 131.027  13.825  1.00  0.00    -0.055 SA
ENDROOT
BRANCH   1   4
HETATM    4  C10 LIG X 999      44.241 131.208  16.466  1.00  0.00     0.152 C 
HETATM    5  N1  LIG X 999      45.257 130.994  17.335  1.00  0.00    -0.229 NA
HETATM    6  C9  LIG X 999      45.126 131.173  18.675  1.00  0.00     0.070 C 
HETATM    7  C8  LIG X 999      46.250 130.989  19.480  1.00  0.00     0.033 C 
HETATM    8  C15 LIG X 999      43.878 131.560  19.239  1.00  0.00     0.010 C 
HETATM    9  C7  LIG X 999      46.170 131.166  20.854  1.00  0.00     0.014 C 
HETATM   10  C5  LIG X 999      44.937 131.423  21.462  1.00  0.00    -0.025 C 
HETATM   11  C4  LIG X 999      43.760 131.557  20.669  1.00  0.00    -0.013 C 
HETATM   12  C6  LIG X 999      44.865 131.491  22.862  1.00  0.00     0.012 C 
HETATM   13  C3  LIG X 999      42.519 131.572  21.351  1.00  0.00     0.013 C 
HETATM   14  C2  LIG X 999      42.463 131.625  22.746  1.00  0.00     0.001 C 
HETATM   15  C1  LIG X 999      43.633 131.613  23.498  1.00  0.00     0.001 C 
HETATM   16  C13 LIG X 999      42.854 131.961  18.320  1.00  0.00    -0.045 C 
HETATM   17  C12 LIG X 999      43.026 131.713  16.949  1.00  0.00     0.060 C 
HETATM   18  C14 LIG X 999      41.645 132.779  18.699  1.00  0.00     0.049 C 
ENDBRANCH   1   4
TORSDOF 1
ENDMDL
MODEL 4
REMARK VINA RESULT:      -6.4      2.867      6.717
REMARK  1 active torsions:
REMARK  status: ('A' for Active; 'I' for Inactive)
REMARK    1  A    between atoms: C10_11  and  N2_12 
ROOT
HETATM    1  N2  LIG X 999      42.360 132.113  18.701  1.00  0.00    -0.214 NA
HETATM    2  C11 LIG X 999      42.625 131.924  19.932  1.00  0.00     0.165 C 
HETATM    3  S1  LIG X 999      42.959 131.685  21.490  1.00  0.00    -0.055 SA
ENDROOT
BRANCH   1   4
HETATM    4  C10 LIG X 999      43.229 131.728  17.625  1.00  0.00     0.152 C 
HETATM    5  N1  LIG X 999      44.341 131.012  17.916  1.00  0.00    -0.229 NA
HETATM    6  C9  LIG X 999      45.234 130.627  16.968  1.00  0.00     0.070 C 
HETATM    7  C8  LIG X 999      46.315 129.837  17.359  1.00  0.00     0.033 C 
HETATM    8  C15 LIG X 999      45.058 131.004  15.606  1.00  0.00     0.010 C 
HETATM    9  C7  LIG X 999      47.251 129.411  16.428  1.00  0.00     0.014 C 
HETATM   10  C5  LIG X 999      47.186 129.862  15.105  1.00  0.00    -0.025 C 
HETATM   11  C4  LIG X 999      46.126 130.720  14.690  1.00  0.00    -0.013 C 
HETATM   12  C6  LIG X 999      48.206 129.505  14.209  1.00  0.00     0.012 C 
HETATM   13  C3  LIG X 999      46.248 131.331  13.419  1.00  0.00     0.013 C 
HETATM   14  C2  LIG X 999      47.277 130.977  12.544  1.00  0.00     0.001 C 
HETATM   15  C1  LIG X 999      48.237 130.045  12.927  1.00  0.00     0.001 C 
HETATM   16  C13 LIG X 999      43.803 131.602  15.262  1.00  0.00    -0.045 C 
HETATM   17  C12 LIG X 999      42.936 132.018  16.286  1.00  0.00     0.060 C 
HETATM   18  C14 LIG X 999      43.259 131.688  13.858  1.00  0.00     0.049 C 
ENDBRANCH   1   4
TORSDOF 1
ENDMDL
MODEL 5
REMARK VINA RESULT:      -6.2      3.488      6.418
REMARK  1 active torsions:
REMARK  status: ('A' for Active; 'I' for Inactive)
REMARK    1  A    between atoms: C10_11  and  N2_12 
ROOT
HETATM    1  N2  LIG X 999      44.048 131.972  22.588  1.00  0.00    -0.214 NA
HETATM    2  C11 LIG X 999      43.525 131.182  23.439  1.00  0.00     0.165 C 
HETATM    3  S1  LIG X 999      42.863 130.182  24.516  1.00  0.00    -0.055 SA
ENDROOT
BRANCH   1   4
HETATM    4  C10 LIG X 999      44.036 131.746  21.171  1.00  0.00     0.152 C 
HETATM    5  N1  LIG X 999      45.083 131.096  20.610  1.00  0.00    -0.229 NA
HETATM    6  C9  LIG X 999      45.172 130.862  19.275  1.00  0.00     0.070 C 
HETATM    7  C8  LIG X 999      46.258 130.126  18.803  1.00  0.00     0.033 C 
HETATM    8  C15 LIG X 999      44.168 131.336  18.385  1.00  0.00     0.010 C 
HETATM    9  C7  LIG X 999      46.392 129.853  17.450  1.00  0.00     0.014 C 
HETATM   10  C5  LIG X 999      45.498 130.407  16.527  1.00  0.00    -0.025 C 
HETATM   11  C4  LIG X 999      44.411 131.213  16.976  1.00  0.00    -0.013 C 
HETATM   12  C6  LIG X 999      45.716 130.205  15.156  1.00  0.00     0.012 C 
HETATM   13  C3  LIG X 999      43.693 131.937  15.993  1.00  0.00     0.013 C 
HETATM   14  C2  LIG X 999      43.932 131.737  14.632  1.00  0.00     0.001 C 
HETATM   15  C1  LIG X 999      44.922 130.852  14.214  1.00  0.00     0.001 C 
HETATM   16  C13 LIG X 999      42.977 131.863  18.982  1.00  0.00    -0.045 C 
HETATM   17  C12 LIG X 999      42.957 132.124  20.361  1.00  0.00     0.060 C 
HETATM   18  C14 LIG X 999      41.664 132.026  18.257  1.00  0.00     0.049 C 
ENDBRANCH   1   4
TORSDOF 1
ENDMDL
MODEL 6
REMARK VINA RESULT:      -5.6      8.169      9.174
REMARK  1 active torsions:
REMARK  status: ('A' for Active; 'I' for Inactive)
REMARK    1  A    between atoms: C10_11  and  N2_12 
ROOT
HETATM    1  N2  LIG X 999      45.528 126.247  22.565  1.00  0.00    -0.214 NA
HETATM    2  C11 LIG X 999      46.571 125.565  22.307  1.00  0.00     0.165 C 
HETATM    3  S1  LIG X 999      47.891 124.702  21.979  1.00  0.00    -0.055 SA
ENDROOT
BRANCH   1   4
HETATM    4  C10 LIG X 999      44.226 125.677  22.768  1.00  0.00     0.152 C 
HETATM    5  N1  LIG X 999      43.265 126.444  23.334  1.00  0.00    -0.229 NA
HETATM    6  C9  LIG X 999      42.013 125.982  23.589  1.00  0.00     0.070 C 
HETATM    7  C8  LIG X 999      41.074 126.870  24.114  1.00  0.00     0.033 C 
HETATM    8  C15 LIG X 999      41.663 124.632  23.305  1.00  0.00     0.010 C 
HETATM    9  C7  LIG X 999      39.780 126.450  24.386  1.00  0.00     0.014 C 
HETATM   10  C5  LIG X 999      39.431 125.104  24.241  1.00  0.00    -0.025 C 
HETATM   11  C4  LIG X 999      40.387 124.161  23.762  1.00  0.00    -0.013 C 
HETATM   12  C6  LIG X 999      38.147 124.684  24.625  1.00  0.00     0.012 C 
HETATM   13  C3  LIG X 999      40.053 122.789  23.868  1.00  0.00     0.013 C 
HETATM   14  C2  LIG X 999      38.776 122.386  24.266  1.00  0.00     0.001 C 
HETATM   15  C1  LIG X 999      37.817 123.332  24.616  1.00  0.00     0.001 C 
HETATM   16  C13 LIG X 999      42.610 123.869  22.546  1.00  0.00    -0.045 C 
HETATM   17  C12 LIG X 999      43.903 124.379  22.349  1.00  0.00     0.060 C 
HETATM   18  C14 LIG X 999      42.276 122.602  21.800  1.00  0.00     0.049 C 
ENDBRANCH   1   4
TORSDOF 1
ENDMDL
MODEL 7
REMARK VINA RESULT:      -5.5      1.550      3.026
REMARK  1 active torsions:
REMARK  status: ('A' for Active; 'I' for Inactive)
REMARK    1  A    between atoms: C10_11  and  N2_12 
ROOT
HETATM    1  N2  LIG X 999      47.066 129.127  14.891  1.00  0.00    -0.214 NA
HETATM    2  C11 LIG X 999      47.650 129.644  13.885  1.00  0.00     0.165 C 
HETATM    3  S1  LIG X 999      48.390 130.298  12.612  1.00  0.00    -0.055 SA
ENDROOT
BRANCH   1   4
HETATM    4  C10 LIG X 999      46.178 129.845  15.761  1.00  0.00     0.152 C 
HETATM    5  N1  LIG X 999      46.479 129.915  17.079  1.00  0.00    -0.229 NA
HETATM    6  C9  LIG X 999      45.685 130.549  17.980  1.00  0.00     0.070 C 
HETATM    7  C8  LIG X 999      46.115 130.622  19.305  1.00  0.00     0.033 C 
HETATM    8  C15 LIG X 999      44.456 131.143  17.576  1.00  0.00     0.010 C 
HETATM    9  C7  LIG X 999      45.344 131.265  20.263  1.00  0.00     0.014 C 
HETATM   10  C5  LIG X 999      44.074 131.751  19.936  1.00  0.00    -0.025 C 
HETATM   11  C4  LIG X 999      43.583 131.637  18.602  1.00  0.00    -0.013 C 
HETATM   12  C6  LIG X 999      43.270 132.300  20.947  1.00  0.00     0.012 C 
HETATM   13  C3  LIG X 999      42.212 131.923  18.390  1.00  0.00     0.013 C 
HETATM   14  C2  LIG X 999      41.420 132.455  19.411  1.00  0.00     0.001 C 
HETATM   15  C1  LIG X 999      41.955 132.669  20.677  1.00  0.00     0.001 C 
HETATM   16  C13 LIG X 999      44.218 131.231  16.166  1.00  0.00    -0.045 C 
HETATM   17  C12 LIG X 999      45.047 130.521  15.283  1.00  0.00     0.060 C 
HETATM   18  C14 LIG X 999      43.218 132.165  15.530  1.00  0.00     0.049 C 
ENDBRANCH   1   4
TORSDOF 1
ENDMDL
MODEL 8
REMARK VINA RESULT:      -5.2      8.281      9.318
REMARK  1 active torsions:
REMARK  status: ('A' for Active; 'I' for Inactive)
REMARK    1  A    between atoms: C10_11  and  N2_12 
ROOT
HETATM    1  N2  LIG X 999      45.435 122.607  21.879  1.00  0.00    -0.214 NA
HETATM    2  C11 LIG X 999      46.557 123.150  21.620  1.00  0.00     0.165 C 
HETATM    3  S1  LIG X 999      47.978 123.837  21.293  1.00  0.00    -0.055 SA
ENDROOT
BRANCH   1   4
HETATM    4  C10 LIG X 999      44.299 123.317  22.394  1.00  0.00     0.152 C 
HETATM    5  N1  LIG X 999      43.210 122.608  22.772  1.00  0.00    -0.229 NA
HETATM    6  C9  LIG X 999      42.080 123.196  23.245  1.00  0.00     0.070 C 
HETATM    7  C8  LIG X 999      41.035 122.376  23.670  1.00  0.00     0.033 C 
HETATM    8  C15 LIG X 999      41.976 124.613  23.325  1.00  0.00     0.010 C 
HETATM    9  C7  LIG X 999      39.863 122.926  24.167  1.00  0.00     0.014 C 
HETATM   10  C5  LIG X 999      39.670 124.311  24.146  1.00  0.00    -0.025 C 
HETATM   11  C4  LIG X 999      40.697 125.172  23.661  1.00  0.00    -0.013 C 
HETATM   12  C6  LIG X 999      38.434 124.837  24.554  1.00  0.00     0.012 C 
HETATM   13  C3  LIG X 999      40.355 126.528  23.439  1.00  0.00     0.013 C 
HETATM   14  C2  LIG X 999      39.115 127.033  23.837  1.00  0.00     0.001 C 
HETATM   15  C1  LIG X 999      38.168 126.196  24.418  1.00  0.00     0.001 C 
HETATM   16  C13 LIG X 999      43.178 125.360  23.100  1.00  0.00    -0.045 C 
HETATM   17  C12 LIG X 999      44.303 124.707  22.571  1.00  0.00     0.060 C 
HETATM   18  C14 LIG X 999      43.384 126.790  23.533  1.00  0.00     0.049 C 
ENDBRANCH   1   4
TORSDOF 1
ENDMDL
MODEL 9
REMARK VINA RESULT:      -5.1      7.128      8.320
REMARK  1 active torsions:
REMARK  status: ('A' for Active; 'I' for Inactive)
REMARK    1  A    between atoms: C10_11  and  N2_12 
ROOT
HETATM    1  N2  LIG X 999      46.884 125.726  22.055  1.00  0.00    -0.214 NA
HETATM    2  C11 LIG X 999      47.413 124.625  21.697  1.00  0.00     0.165 C 
HETATM    3  S1  LIG X 999      48.082 123.231  21.243  1.00  0.00    -0.055 SA
ENDROOT
BRANCH   1   4
HETATM    4  C10 LIG X 999      45.525 125.857  22.500  1.00  0.00     0.152 C 
HETATM    5  N1  LIG X 999      44.716 124.774  22.434  1.00  0.00    -0.229 NA
HETATM    6  C9  LIG X 999      43.411 124.810  22.807  1.00  0.00     0.070 C 
HETATM    7  C8  LIG X 999      42.677 123.625  22.764  1.00  0.00     0.033 C 
HETATM    8  C15 LIG X 999      42.814 126.024  23.252  1.00  0.00     0.010 C 
HETATM    9  C7  LIG X 999      41.342 123.607  23.141  1.00  0.00     0.014 C 
HETATM   10  C5  LIG X 999      40.684 124.799  23.463  1.00  0.00    -0.025 C 
HETATM   11  C4  LIG X 999      41.394 126.035  23.458  1.00  0.00    -0.013 C 
HETATM   12  C6  LIG X 999      39.308 124.769  23.736  1.00  0.00     0.012 C 
HETATM   13  C3  LIG X 999      40.628 127.222  23.552  1.00  0.00     0.013 C 
HETATM   14  C2  LIG X 999      39.256 127.176  23.809  1.00  0.00     0.001 C 
HETATM   15  C1  LIG X 999      38.602 125.954  23.929  1.00  0.00     0.001 C 
HETATM   16  C13 LIG X 999      43.700 127.124  23.494  1.00  0.00    -0.045 C 
HETATM   17  C12 LIG X 999      45.029 127.046  23.049  1.00  0.00     0.060 C 
HETATM   18  C14 LIG X 999      43.351 128.325  24.338  1.00  0.00     0.049 C 
ENDBRANCH   1   4
TORSDOF 1
ENDMDL
