REMARK VINA RESULT:      -6.8      3.242      6.242
REMARK  1 active torsions:
REMARK  status: ('A' for Active; 'I' for Inactive)
REMARK    1  A    between atoms: C11_13  and  N2_14 
ROOT
HETATM    1  N2  LIG X 999      44.253 131.184  23.257  1.00  0.00    -0.053 NA
HETATM    2  N3  LIG X 999      44.273 130.133  23.899  1.00  0.00    -0.160 NA
HETATM    3  N4  LIG X 999      44.292 129.084  24.541  1.00  0.00     0.068 N 
ENDROOT
BRANCH   1   4
HETATM    4  C11 LIG X 999      44.392 131.183  21.835  1.00  0.00     0.175 A 
HETATM    5  C10 LIG X 999      43.470 131.716  20.945  1.00  0.00     0.026 A 
HETATM    6  C5  LIG X 999      44.001 131.499  19.718  1.00  0.00     0.017 A 
HETATM    7  C9  LIG X 999      42.239 132.360  21.079  1.00  0.00     0.016 A 
HETATM    8  C4  LIG X 999      45.189 130.863  19.850  1.00  0.00     0.046 A 
HETATM    9  C6  LIG X 999      43.412 131.870  18.532  1.00  0.00     0.005 A 
HETATM   10  C3  LIG X 999      45.982 130.504  18.660  1.00  0.00     0.033 A 
HETATM   11  N5  LIG X 999      45.454 130.656  21.159  1.00  0.00    -0.337 N 
HETATM   12  C2  LIG X 999      45.492 130.826  17.440  1.00  0.00     0.034 A 
HETATM   13  C1  LIG X 999      44.169 131.532  17.298  1.00  0.00     0.059 A 
HETATM   14  N1  LIG X 999      43.699 131.840  16.130  1.00  0.00    -0.300 NA
HETATM   15  H1  LIG X 999      44.217 131.611  15.253  1.00  0.00     0.187 HD
HETATM   16  H7  LIG X 999      46.297 130.189  21.562  1.00  0.00     0.167 HD
HETATM   17  C7  LIG X 999      42.165 132.525  18.615  1.00  0.00     0.015 A 
HETATM   18  C8  LIG X 999      41.582 132.769  19.891  1.00  0.00     0.002 A 
ENDBRANCH   1   4
TORSDOF 1
