REMARK VINA RESULT:      -5.4      1.714      2.107
REMARK  6 active torsions:
REMARK  status: ('A' for Active; 'I' for Inactive)
REMARK    1  A    between atoms: C2_2  and  C3_3 
REMARK    2  A    between atoms: C3_3  and  O1_4 
REMARK    3  A    between atoms: O1_4  and  C4_5 
REMARK    4  A    between atoms: C4_5  and  C6_7 
REMARK    5  A    between atoms: C6_7  and  C7_8 
REMARK       I    between atoms: N1_10  and  C9_11 
REMARK    6  A    between atoms: C9_11  and  C10_13 
ROOT
HETATM    1  C7  LIG X 999      42.898 131.936  20.903  1.00  0.00     0.043 A 
HETATM    2  C8  LIG X 999      43.864 130.981  20.660  1.00  0.00     0.144 A 
HETATM    3  N1  LIG X 999      44.370 131.255  19.441  1.00  0.00    -0.213 N 
HETATM    4  C9  LIG X 999      45.445 130.562  18.789  1.00  0.00     0.274 C 
HETATM    5  O2  LIG X 999      46.165 129.771  19.459  1.00  0.00    -0.266 OA
HETATM    6  N2  LIG X 999      43.760 132.332  18.965  1.00  0.00    -0.013 NA
HETATM    7  N3  LIG X 999      42.859 132.756  19.837  1.00  0.00    -0.286 N 
HETATM    8  H20 LIG X 999      42.241 133.585  19.700  1.00  0.00     0.184 HD
ENDROOT
BRANCH   4   9
HETATM    9  C10 LIG X 999      45.744 130.767  17.353  1.00  0.00     0.034 A 
HETATM   10  C11 LIG X 999      45.107 131.801  16.648  1.00  0.00     0.018 A 
HETATM   11  C12 LIG X 999      45.383 132.015  15.295  1.00  0.00     0.013 A 
HETATM   12  C13 LIG X 999      46.311 131.206  14.627  1.00  0.00    -0.026 A 
HETATM   13  C14 LIG X 999      46.596 131.413  13.269  1.00  0.00     0.012 A 
HETATM   14  C18 LIG X 999      46.971 130.170  15.332  1.00  0.00    -0.025 A 
HETATM   15  C15 LIG X 999      47.527 130.602  12.615  1.00  0.00     0.001 A 
HETATM   16  C16 LIG X 999      48.180 129.580  13.310  1.00  0.00     0.001 A 
HETATM   17  C17 LIG X 999      47.906 129.364  14.664  1.00  0.00     0.012 A 
HETATM   18  C19 LIG X 999      46.687 129.962  16.690  1.00  0.00     0.029 A 
ENDBRANCH   4   9
BRANCH   1  19
HETATM   19  C6  LIG X 999      42.069 132.095  22.145  1.00  0.00     0.091 C 
BRANCH  19  20
HETATM   20  C4  LIG X 999      42.916 132.105  23.434  1.00  0.00     0.123 C 
HETATM   21  C5  LIG X 999      42.131 131.548  24.625  1.00  0.00     0.040 C 
BRANCH  20  22
HETATM   22  O1  LIG X 999      44.093 131.328  23.267  1.00  0.00    -0.382 OA
BRANCH  22  23
HETATM   23  C3  LIG X 999      44.256 130.422  24.340  1.00  0.00     0.194 C 
BRANCH  23  24
HETATM   24  C2  LIG X 999      44.542 129.055  23.797  1.00  0.00    -0.011 C 
HETATM   25  C1  LIG X 999      43.559 128.209  23.474  1.00  0.00     0.009 C 
ENDBRANCH  23  24
ENDBRANCH  22  23
ENDBRANCH  20  22
ENDBRANCH  19  20
ENDBRANCH   1  19
TORSDOF 6
