REMARK VINA RESULT:      -5.8      1.831      3.378
REMARK  2 active torsions:
REMARK  status: ('A' for Active; 'I' for Inactive)
REMARK    1  A    between atoms: N1_1  and  C1_2 
REMARK    2  A    between atoms: C2_5  and  C3_6 
ROOT
HETATM    1  C3  LIG X 999      43.430 131.924  19.243  1.00  0.00     0.030 A 
HETATM    2  C4  LIG X 999      42.374 132.849  19.321  1.00  0.00     0.017 A 
HETATM    3  C5  LIG X 999      41.677 133.045  20.511  1.00  0.00     0.002 A 
HETATM    4  C6  LIG X 999      42.019 132.324  21.652  1.00  0.00     0.012 A 
HETATM    5  C7  LIG X 999      43.084 131.413  21.619  1.00  0.00    -0.025 A 
HETATM    6  C8  LIG X 999      43.434 130.712  22.783  1.00  0.00     0.012 A 
HETATM    7  C9  LIG X 999      44.515 129.831  22.776  1.00  0.00     0.001 A 
HETATM    8  C10 LIG X 999      45.262 129.652  21.613  1.00  0.00     0.001 A 
HETATM    9  C11 LIG X 999      44.926 130.340  20.444  1.00  0.00     0.013 A 
HETATM   10  C12 LIG X 999      43.815 131.213  20.415  1.00  0.00    -0.011 A 
ENDROOT
BRANCH   1  11
HETATM   11  C2  LIG X 999      44.061 131.714  17.919  1.00  0.00     0.203 A 
HETATM   12  N3  LIG X 999      45.398 131.655  17.724  1.00  0.00    -0.145 NA
HETATM   13  N2  LIG X 999      45.564 131.493  16.422  1.00  0.00    -0.240 N 
HETATM   14  C1  LIG X 999      44.342 131.467  15.871  1.00  0.00     0.240 A 
HETATM   15  H3  LIG X 999      46.485 131.409  15.938  1.00  0.00     0.193 HD
HETATM   16  O1  LIG X 999      43.410 131.606  16.780  1.00  0.00    -0.257 OA
BRANCH  14  17
HETATM   17  N1  LIG X 999      44.091 131.311  14.477  1.00  0.00    -0.364 N 
HETATM   18  H1  LIG X 999      43.772 130.391  14.103  1.00  0.00     0.159 HD
HETATM   19  H2  LIG X 999      44.226 132.113  13.823  1.00  0.00     0.159 HD
ENDBRANCH  14  17
ENDBRANCH   1  11
TORSDOF 2
