REMARK VINA RESULT:      -5.0      1.693      2.748
REMARK  2 active torsions:
REMARK  status: ('A' for Active; 'I' for Inactive)
REMARK    1  A    between atoms: O1_2  and  C2_3 
REMARK    2  A    between atoms: C11_12  and  N1_13 
ROOT
HETATM    1  C2  LIG X 999      46.323 130.902  14.530  1.00  0.00     0.095 A 
HETATM    2  C3  LIG X 999      45.507 131.644  15.407  1.00  0.00     0.051 A 
HETATM    3  C4  LIG X 999      45.407 131.291  16.759  1.00  0.00    -0.023 A 
HETATM    4  C5  LIG X 999      44.589 132.032  17.636  1.00  0.00     0.021 A 
HETATM    5  C6  LIG X 999      44.523 131.646  18.975  1.00  0.00    -0.024 A 
HETATM    6  C7  LIG X 999      45.220 130.575  19.444  1.00  0.00    -0.024 A 
HETATM    7  C8  LIG X 999      46.035 129.811  18.607  1.00  0.00     0.021 A 
HETATM    8  C9  LIG X 999      46.135 130.172  17.250  1.00  0.00    -0.023 A 
HETATM    9  C10 LIG X 999      46.944 129.437  16.375  1.00  0.00     0.044 A 
HETATM   10  C11 LIG X 999      47.042 129.794  15.022  1.00  0.00     0.060 A 
HETATM   11  C12 LIG X 999      44.950 130.369  20.883  1.00  0.00     0.276 C 
HETATM   12  N2  LIG X 999      44.120 131.541  21.309  1.00  0.00    -0.067 N 
HETATM   13  C13 LIG X 999      44.919 132.440  22.176  1.00  0.00     0.272 C 
HETATM   14  C14 LIG X 999      42.925 131.090  22.057  1.00  0.00     0.272 C 
HETATM   15  C15 LIG X 999      43.721 132.257  20.057  1.00  0.00     0.276 C 
ENDROOT
BRANCH  10  16
HETATM   16  N1  LIG X 999      47.878 129.024  14.151  1.00  0.00    -0.397 N 
HETATM   17  H8  LIG X 999      47.735 127.994  14.048  1.00  0.00     0.156 HD
HETATM   18  H9  LIG X 999      48.647 129.466  13.599  1.00  0.00     0.156 HD
ENDBRANCH  10  16
BRANCH   1  19
HETATM   19  O1  LIG X 999      46.442 131.235  13.170  1.00  0.00    -0.354 OA
HETATM   20  C1  LIG X 999      47.667 131.243  12.443  1.00  0.00     0.210 C 
ENDBRANCH   1  19
TORSDOF 2
