REMARK VINA RESULT:      -5.2      3.047      4.534
REMARK  1 active torsions:
REMARK  status: ('A' for Active; 'I' for Inactive)
REMARK    1  A    between atoms: C8_8  and  N1_9 
ROOT
HETATM    1  N1  LIG X 999      45.804 130.508  20.251  1.00  0.00    -0.072 NA
HETATM    2  N2  LIG X 999      45.339 129.960  21.251  1.00  0.00    -0.162 NA
HETATM    3  N3  LIG X 999      44.875 129.413  22.250  1.00  0.00     0.068 N 
ENDROOT
BRANCH   1   4
HETATM    4  C8  LIG X 999      44.976 130.958  19.167  1.00  0.00     0.104 A 
HETATM    5  C7  LIG X 999      43.776 131.697  19.405  1.00  0.00     0.038 A 
HETATM    6  C6  LIG X 999      42.964 132.138  18.333  1.00  0.00     0.033 A 
HETATM    7  C5  LIG X 999      43.370 131.830  17.036  1.00  0.00     0.047 A 
HETATM    8  C4  LIG X 999      44.519 131.125  16.826  1.00  0.00     0.019 A 
HETATM    9  N4  LIG X 999      42.741 132.152  15.795  1.00  0.00    -0.322 N 
HETATM   10  C3  LIG X 999      44.745 130.924  15.498  1.00  0.00     0.045 A 
HETATM   11  C9  LIG X 999      45.351 130.668  17.834  1.00  0.00     0.009 A 
HETATM   12  C2  LIG X 999      45.870 130.223  15.067  1.00  0.00     0.018 A 
HETATM   13  C11 LIG X 999      43.623 131.572  14.821  1.00  0.00     0.257 A 
HETATM   14  C1  LIG X 999      46.756 129.732  16.056  1.00  0.00     0.002 A 
HETATM   15  C10 LIG X 999      46.502 129.952  17.435  1.00  0.00     0.015 A 
HETATM   16  O1  LIG X 999      43.438 131.624  13.577  1.00  0.00    -0.267 OA
HETATM   17  H6  LIG X 999      41.857 132.681  15.634  1.00  0.00     0.169 HD
ENDBRANCH   1   4
TORSDOF 1
