REMARK VINA RESULT:      -6.5      3.494      5.590
REMARK  7 active torsions:
REMARK  status: ('A' for Active; 'I' for Inactive)
REMARK    1  A    between atoms: N1_2  and  C2_3 
REMARK    2  A    between atoms: C2_3  and  C4_5 
REMARK    3  A    between atoms: C4_5  and  C5_6 
REMARK    4  A    between atoms: C5_6  and  C6_7 
REMARK    5  A    between atoms: C6_7  and  C7_8 
REMARK    6  A    between atoms: C7_8  and  N2_9 
REMARK    7  A    between atoms: N2_9  and  C8_10 
ROOT
HETATM    1  C8  LIG X 999      44.653 131.842  17.843  1.00  0.00     0.226 C 
HETATM    2  C9  LIG X 999      43.486 132.427  18.337  1.00  0.00     0.065 C 
HETATM    3  C10 LIG X 999      43.028 132.119  19.629  1.00  0.00    -0.045 C 
HETATM    4  C11 LIG X 999      41.621 132.555  19.953  1.00  0.00     0.049 C 
HETATM    5  C12 LIG X 999      43.844 131.313  20.487  1.00  0.00     0.010 C 
HETATM    6  C13 LIG X 999      44.952 130.654  19.882  1.00  0.00     0.070 C 
HETATM    7  C14 LIG X 999      45.668 129.676  20.571  1.00  0.00     0.033 C 
HETATM    8  C15 LIG X 999      45.322 129.332  21.870  1.00  0.00     0.014 C 
HETATM    9  C16 LIG X 999      44.322 130.040  22.543  1.00  0.00    -0.025 C 
HETATM   10  C17 LIG X 999      44.065 129.743  23.892  1.00  0.00     0.012 C 
HETATM   11  C18 LIG X 999      43.171 130.520  24.625  1.00  0.00     0.001 C 
HETATM   12  C19 LIG X 999      42.559 131.619  24.031  1.00  0.00     0.001 C 
HETATM   13  C20 LIG X 999      42.795 131.918  22.687  1.00  0.00     0.013 C 
HETATM   14  C21 LIG X 999      43.613 131.087  21.886  1.00  0.00    -0.013 C 
HETATM   15  N3  LIG X 999      45.327 130.951  18.611  1.00  0.00    -0.224 NA
ENDROOT
BRANCH   1  16
HETATM   16  N2  LIG X 999      45.131 132.152  16.519  1.00  0.00    -0.028 N 
HETATM   17  H17 LIG X 999      46.047 131.670  16.364  1.00  0.00     0.285 HD
HETATM   18  H18 LIG X 999      45.299 133.182  16.432  1.00  0.00     0.285 HD
BRANCH  16  19
HETATM   19  C7  LIG X 999      44.179 131.711  15.487  1.00  0.00     0.240 C 
BRANCH  19  20
HETATM   20  C6  LIG X 999      44.878 131.384  14.155  1.00  0.00     0.028 C 
BRANCH  20  21
HETATM   21  C5  LIG X 999      46.358 131.781  14.197  1.00  0.00     0.004 C 
BRANCH  21  22
HETATM   22  C4  LIG X 999      47.182 130.938  13.208  1.00  0.00     0.035 C 
BRANCH  22  23
HETATM   23  C2  LIG X 999      47.600 129.558  13.769  1.00  0.00     0.216 C 
HETATM   24  C3  LIG X 999      49.050 129.219  13.378  1.00  0.00     0.042 C 
BRANCH  23  25
HETATM   25  N1  LIG X 999      47.424 129.518  15.235  1.00  0.00     0.083 N 
HETATM   26  C1  LIG X 999      46.197 128.815  15.622  1.00  0.00     0.307 C 
HETATM   27  H4  LIG X 999      47.321 130.501  15.582  1.00  0.00     0.315 HD
ENDBRANCH  23  25
ENDBRANCH  22  23
ENDBRANCH  21  22
ENDBRANCH  20  21
ENDBRANCH  19  20
ENDBRANCH  16  19
ENDBRANCH   1  16
TORSDOF 7
