REMARK VINA RESULT:      -7.1      0.942      2.757
REMARK  1 active torsions:
REMARK  status: ('A' for Active; 'I' for Inactive)
REMARK    1  A    between atoms: C4_4  and  N1_5 
ROOT
HETATM    1  C1  LIG X 999      41.776 133.218  20.267  1.00  0.00     0.049 C 
HETATM    2  C2  LIG X 999      42.649 132.183  20.935  1.00  0.00    -0.045 C 
HETATM    3  C3  LIG X 999      42.413 131.968  22.301  1.00  0.00     0.055 C 
HETATM    4  C4  LIG X 999      43.325 131.251  23.070  1.00  0.00     0.099 C 
HETATM    5  N2  LIG X 999      44.469 130.789  22.502  1.00  0.00    -0.342 N 
HETATM    6  C5  LIG X 999      44.723 130.933  21.170  1.00  0.00     0.045 C 
HETATM    7  C6  LIG X 999      45.953 130.497  20.663  1.00  0.00     0.031 C 
HETATM    8  C7  LIG X 999      46.252 130.628  19.315  1.00  0.00     0.014 C 
HETATM    9  C8  LIG X 999      45.285 131.095  18.421  1.00  0.00    -0.025 C 
HETATM   10  C9  LIG X 999      45.575 131.113  17.047  1.00  0.00     0.012 C 
HETATM   11  C10 LIG X 999      44.587 131.444  16.124  1.00  0.00     0.001 C 
HETATM   12  C11 LIG X 999      43.295 131.719  16.560  1.00  0.00     0.001 C 
HETATM   13  C12 LIG X 999      42.997 131.719  17.924  1.00  0.00     0.013 C 
HETATM   14  C13 LIG X 999      44.002 131.493  18.894  1.00  0.00    -0.013 C 
HETATM   15  C14 LIG X 999      43.762 131.540  20.309  1.00  0.00     0.008 C 
HETATM   16  H7  LIG X 999      45.169 130.309  23.114  1.00  0.00     0.167 HD
ENDROOT
BRANCH   4  17
HETATM   17  N1  LIG X 999      43.087 131.054  24.468  1.00  0.00    -0.385 N 
HETATM   18  H5  LIG X 999      43.102 131.860  25.132  1.00  0.00     0.157 HD
HETATM   19  H6  LIG X 999      42.890 130.102  24.844  1.00  0.00     0.157 HD
ENDBRANCH   4  17
TORSDOF 1
