REMARK VINA RESULT:      -8.8      0.000      0.000
REMARK  4 active torsions:
REMARK  status: ('A' for Active; 'I' for Inactive)
REMARK    1  A    between atoms: C3_3  and  O1_4 
REMARK    2  A    between atoms: O1_4  and  C4_5 
REMARK    3  A    between atoms: C4_5  and  O2_6 
REMARK    4  A    between atoms: C5_8  and  C6_9 
ROOT
HETATM    1  C1  LIG X 999      43.214 130.574  22.444  1.00  0.00     0.014 C 
HETATM    2  C2  LIG X 999      43.703 131.227  21.557  1.00  0.00    -0.091 C 
HETATM    3  C3  LIG X 999      44.299 132.019  20.481  1.00  0.00     0.270 C 
ENDROOT
BRANCH   3   4
HETATM    4  O1  LIG X 999      44.023 131.394  19.234  1.00  0.00    -0.319 OA
BRANCH   4   5
HETATM    5  C4  LIG X 999      43.109 131.921  18.317  1.00  0.00     0.179 C 
HETATM    6  C5  LIG X 999      43.317 131.795  16.999  1.00  0.00     0.075 C 
BRANCH   5   7
HETATM    7  O2  LIG X 999      41.957 132.558  18.782  1.00  0.00    -0.341 OA
HETATM    8  H4  LIG X 999      41.192 132.045  19.208  1.00  0.00     0.220 HD
ENDBRANCH   5   7
BRANCH   6   9
HETATM    9  C6  LIG X 999      44.507 131.144  16.404  1.00  0.00    -0.031 A 
HETATM   10  C7  LIG X 999      45.265 130.193  17.111  1.00  0.00     0.012 A 
HETATM   11  C8  LIG X 999      46.397 129.614  16.532  1.00  0.00     0.013 A 
HETATM   12  C9  LIG X 999      46.800 129.986  15.243  1.00  0.00    -0.026 A 
HETATM   13  C10 LIG X 999      47.935 129.409  14.652  1.00  0.00     0.012 A 
HETATM   14  C14 LIG X 999      46.059 130.961  14.533  1.00  0.00    -0.025 A 
HETATM   15  C11 LIG X 999      48.330 129.796  13.368  1.00  0.00     0.001 A 
HETATM   16  C12 LIG X 999      47.600 130.758  12.667  1.00  0.00     0.001 A 
HETATM   17  C13 LIG X 999      46.468 131.342  13.244  1.00  0.00     0.012 A 
HETATM   18  C15 LIG X 999      44.924 131.539  15.123  1.00  0.00     0.024 A 
ENDBRANCH   6   9
ENDBRANCH   4   5
ENDBRANCH   3   4
TORSDOF 4
