REMARK VINA RESULT:      -5.3      1.594      2.628
REMARK  1 active torsions:
REMARK  status: ('A' for Active; 'I' for Inactive)
REMARK    1  A    between atoms: C7_7  and  N1_8 
ROOT
HETATM    1  N1  LIG X 999      42.901 131.993  16.971  1.00  0.00    -0.110 NA
HETATM    2  N2  LIG X 999      42.278 132.253  18.001  1.00  0.00    -0.167 NA
HETATM    3  N3  LIG X 999      41.656 132.512  19.030  1.00  0.00     0.068 N 
ENDROOT
BRANCH   1   4
HETATM    4  C7  LIG X 999      43.867 130.897  16.928  1.00  0.00     0.153 C 
HETATM    5  C6  LIG X 999      44.888 131.057  18.078  1.00  0.00     0.031 C 
HETATM    6  C5  LIG X 999      46.232 130.349  17.811  1.00  0.00     0.003 C 
HETATM    7  C4  LIG X 999      46.073 129.146  16.876  1.00  0.00     0.009 C 
HETATM    8  C3  LIG X 999      45.492 129.547  15.493  1.00  0.00     0.018 C 
HETATM    9  C2  LIG X 999      46.596 129.672  14.469  1.00  0.00    -0.021 C 
HETATM   10  C8  LIG X 999      44.571 130.812  15.550  1.00  0.00     0.043 C 
HETATM   11  C1  LIG X 999      47.049 130.855  14.055  1.00  0.00    -0.004 C 
HETATM   12  C10 LIG X 999      46.429 132.107  14.507  1.00  0.00    -0.004 C 
HETATM   13  C9  LIG X 999      45.311 132.100  15.234  1.00  0.00    -0.019 C 
ENDBRANCH   1   4
TORSDOF 1
