MODEL 1
REMARK VINA RESULT:      -0.1      0.000      0.000
REMARK  4 active torsions:
REMARK  status: ('A' for Active; 'I' for Inactive)
REMARK    1  A    between atoms: C5_5  and  O1_6 
REMARK    2  A    between atoms: O1_6  and  C6_7 
REMARK       I    between atoms: C6_7  and  N1_9 
REMARK    3  A    between atoms: C9_13  and  N2_14 
REMARK    4  A    between atoms: C11_19  and  N5_20 
ROOT
HETATM    1  N2  LIG X 999      46.811 131.940  21.249  1.00  0.00    -0.068 NA
HETATM    2  N3  LIG X 999      47.023 133.094  21.622  1.00  0.00    -0.162 NA
HETATM    3  N4  LIG X 999      47.239 134.248  21.989  1.00  0.00     0.068 N 
ENDROOT
BRANCH   1   4
HETATM    4  C9  LIG X 999      45.574 131.253  21.513  1.00  0.00     0.151 C 
HETATM    5  C5  LIG X 999      45.335 130.048  20.829  1.00  0.00     0.114 C 
HETATM    6  C4  LIG X 999      45.716 129.883  19.480  1.00  0.00     0.040 C 
HETATM    7  C3  LIG X 999      45.749 130.911  18.514  1.00  0.00     0.003 C 
HETATM    8  C2  LIG X 999      45.094 132.155  18.607  1.00  0.00     0.000 C 
HETATM    9  C1  LIG X 999      44.012 132.422  19.453  1.00  0.00     0.000 C 
HETATM   10  C13 LIG X 999      43.076 131.444  19.797  1.00  0.00     0.002 C 
HETATM   11  C12 LIG X 999      42.556 131.286  21.086  1.00  0.00     0.036 C 
HETATM   12  C11 LIG X 999      43.218 131.612  22.301  1.00  0.00     0.117 C 
HETATM   13  C10 LIG X 999      44.624 131.775  22.427  1.00  0.00     0.100 C 
HETATM   14 CL1  LIG X 999      45.223 132.611  23.863  1.00  0.00    -0.079 Cl
BRANCH   5  15
HETATM   15  O1  LIG X 999      44.717 129.009  21.543  1.00  0.00    -0.254 OA
BRANCH  15  16
HETATM   16  C6  LIG X 999      45.373 127.982  22.241  1.00  0.00     0.461 C 
HETATM   17  O2  LIG X 999      46.330 127.350  21.713  1.00  0.00    -0.230 OA
HETATM   18  N1  LIG X 999      44.890 127.584  23.539  1.00  0.00     0.009 N 
HETATM   19  H5  LIG X 999      45.533 126.864  23.945  1.00  0.00     0.292 HD
HETATM   20  C7  LIG X 999      44.864 128.742  24.446  1.00  0.00     0.282 C 
HETATM   21  C8  LIG X 999      43.550 126.992  23.407  1.00  0.00     0.282 C 
ENDBRANCH  15  16
ENDBRANCH   5  15
BRANCH  12  22
HETATM   22  N5  LIG X 999      42.439 131.739  23.503  1.00  0.00    -0.071 NA
HETATM   23  N6  LIG X 999      41.915 130.775  24.064  1.00  0.00    -0.162 NA
HETATM   24  N7  LIG X 999      41.391 129.814  24.625  1.00  0.00     0.068 N 
ENDBRANCH  12  22
ENDBRANCH   1   4
TORSDOF 4
ENDMDL
MODEL 2
REMARK VINA RESULT:      -0.0      2.465      5.254
REMARK  4 active torsions:
REMARK  status: ('A' for Active; 'I' for Inactive)
REMARK    1  A    between atoms: C5_5  and  O1_6 
REMARK    2  A    between atoms: O1_6  and  C6_7 
REMARK       I    between atoms: C6_7  and  N1_9 
REMARK    3  A    between atoms: C9_13  and  N2_14 
REMARK    4  A    between atoms: C11_19  and  N5_20 
ROOT
HETATM    1  N2  LIG X 999      44.427 132.216  24.116  1.00  0.00    -0.068 NA
HETATM    2  N3  LIG X 999      45.286 133.063  24.362  1.00  0.00    -0.162 NA
HETATM    3  N4  LIG X 999      46.144 133.908  24.613  1.00  0.00     0.068 N 
ENDROOT
BRANCH   1   4
HETATM    4  C9  LIG X 999      44.283 131.608  22.819  1.00  0.00     0.151 C 
HETATM    5  C5  LIG X 999      43.026 131.077  22.481  1.00  0.00     0.114 C 
HETATM    6  C4  LIG X 999      42.232 130.405  23.436  1.00  0.00     0.040 C 
HETATM    7  C3  LIG X 999      42.731 129.640  24.512  1.00  0.00     0.003 C 
HETATM    8  C2  LIG X 999      44.037 129.123  24.625  1.00  0.00     0.000 C 
HETATM    9  C1  LIG X 999      44.915 128.939  23.550  1.00  0.00     0.000 C 
HETATM   10  C13 LIG X 999      44.464 128.628  22.266  1.00  0.00     0.002 C 
HETATM   11  C12 LIG X 999      44.991 129.192  21.099  1.00  0.00     0.036 C 
HETATM   12  C11 LIG X 999      45.577 130.482  20.986  1.00  0.00     0.117 C 
HETATM   13  C10 LIG X 999      45.373 131.538  21.916  1.00  0.00     0.100 C 
HETATM   14 CL1  LIG X 999      46.510 132.889  21.877  1.00  0.00    -0.079 Cl
BRANCH   5  15
HETATM   15  O1  LIG X 999      42.582 131.255  21.161  1.00  0.00    -0.254 OA
BRANCH  15  16
HETATM   16  C6  LIG X 999      42.105 132.453  20.604  1.00  0.00     0.461 C 
HETATM   17  O2  LIG X 999      41.276 133.171  21.229  1.00  0.00    -0.230 OA
HETATM   18  N1  LIG X 999      42.497 132.820  19.267  1.00  0.00     0.009 N 
HETATM   19  H5  LIG X 999      42.115 133.768  19.039  1.00  0.00     0.292 HD
HETATM   20  C7  LIG X 999      43.964 132.879  19.168  1.00  0.00     0.282 C 
HETATM   21  C8  LIG X 999      41.946 131.853  18.307  1.00  0.00     0.282 C 
ENDBRANCH  15  16
ENDBRANCH   5  15
BRANCH  12  22
HETATM   22  N5  LIG X 999      46.390 130.776  19.837  1.00  0.00    -0.071 NA
HETATM   23  N6  LIG X 999      46.042 130.507  18.686  1.00  0.00    -0.162 NA
HETATM   24  N7  LIG X 999      45.695 130.239  17.537  1.00  0.00     0.068 N 
ENDBRANCH  12  22
ENDBRANCH   1   4
TORSDOF 4
ENDMDL
MODEL 3
REMARK VINA RESULT:       0.7      2.185      4.491
REMARK  4 active torsions:
REMARK  status: ('A' for Active; 'I' for Inactive)
REMARK    1  A    between atoms: C5_5  and  O1_6 
REMARK    2  A    between atoms: O1_6  and  C6_7 
REMARK       I    between atoms: C6_7  and  N1_9 
REMARK    3  A    between atoms: C9_13  and  N2_14 
REMARK    4  A    between atoms: C11_19  and  N5_20 
ROOT
HETATM    1  N2  LIG X 999      42.249 130.906  20.765  1.00  0.00    -0.068 NA
HETATM    2  N3  LIG X 999      41.969 131.897  20.090  1.00  0.00    -0.162 NA
HETATM    3  N4  LIG X 999      41.685 132.887  19.417  1.00  0.00     0.068 N 
ENDROOT
BRANCH   1   4
HETATM    4  C9  LIG X 999      43.518 130.746  21.424  1.00  0.00     0.151 C 
HETATM    5  C5  LIG X 999      43.622 129.752  22.413  1.00  0.00     0.114 C 
HETATM    6  C4  LIG X 999      42.562 129.494  23.309  1.00  0.00     0.040 C 
HETATM    7  C3  LIG X 999      41.648 130.459  23.783  1.00  0.00     0.003 C 
HETATM    8  C2  LIG X 999      41.825 131.856  23.747  1.00  0.00     0.000 C 
HETATM    9  C1  LIG X 999      43.063 132.497  23.611  1.00  0.00     0.000 C 
HETATM   10  C13 LIG X 999      44.244 131.950  24.116  1.00  0.00     0.002 C 
HETATM   11  C12 LIG X 999      45.463 131.966  23.430  1.00  0.00     0.036 C 
HETATM   12  C11 LIG X 999      45.628 131.970  22.019  1.00  0.00     0.117 C 
HETATM   13  C10 LIG X 999      44.625 131.569  21.095  1.00  0.00     0.100 C 
HETATM   14 CL1  LIG X 999      44.826 132.059  19.410  1.00  0.00    -0.079 Cl
BRANCH   5  15
HETATM   15  O1  LIG X 999      44.816 129.014  22.466  1.00  0.00    -0.254 OA
BRANCH  15  16
HETATM   16  C6  LIG X 999      45.145 128.045  23.428  1.00  0.00     0.461 C 
HETATM   17  O2  LIG X 999      45.373 128.374  24.625  1.00  0.00    -0.230 OA
HETATM   18  N1  LIG X 999      45.314 126.672  23.024  1.00  0.00     0.009 N 
HETATM   19  H5  LIG X 999      45.484 126.078  23.870  1.00  0.00     0.292 HD
HETATM   20  C7  LIG X 999      44.096 126.187  22.358  1.00  0.00     0.282 C 
HETATM   21  C8  LIG X 999      46.478 126.558  22.134  1.00  0.00     0.282 C 
ENDBRANCH  15  16
ENDBRANCH   5  15
BRANCH  12  22
HETATM   22  N5  LIG X 999      46.901 132.353  21.470  1.00  0.00    -0.071 NA
HETATM   23  N6  LIG X 999      47.494 133.379  21.810  1.00  0.00    -0.162 NA
HETATM   24  N7  LIG X 999      48.085 134.403  22.148  1.00  0.00     0.068 N 
ENDBRANCH  12  22
ENDBRANCH   1   4
TORSDOF 4
ENDMDL
MODEL 4
REMARK VINA RESULT:       0.9      2.464      4.552
REMARK  4 active torsions:
REMARK  status: ('A' for Active; 'I' for Inactive)
REMARK    1  A    between atoms: C5_5  and  O1_6 
REMARK    2  A    between atoms: O1_6  and  C6_7 
REMARK       I    between atoms: C6_7  and  N1_9 
REMARK    3  A    between atoms: C9_13  and  N2_14 
REMARK    4  A    between atoms: C11_19  and  N5_20 
ROOT
HETATM    1  N2  LIG X 999      42.282 132.075  22.408  1.00  0.00    -0.068 NA
HETATM    2  N3  LIG X 999      41.624 132.827  21.688  1.00  0.00    -0.162 NA
HETATM    3  N4  LIG X 999      40.967 133.581  20.973  1.00  0.00     0.068 N 
ENDROOT
BRANCH   1   4
HETATM    4  C9  LIG X 999      43.330 131.230  21.900  1.00  0.00     0.151 C 
HETATM    5  C5  LIG X 999      44.008 130.405  22.814  1.00  0.00     0.114 C 
HETATM    6  C4  LIG X 999      44.321 130.855  24.115  1.00  0.00     0.040 C 
HETATM    7  C3  LIG X 999      44.612 132.190  24.464  1.00  0.00     0.003 C 
HETATM    8  C2  LIG X 999      44.988 133.216  23.574  1.00  0.00     0.000 C 
HETATM    9  C1  LIG X 999      45.510 133.004  22.292  1.00  0.00     0.000 C 
HETATM   10  C13 LIG X 999      46.292 131.890  21.982  1.00  0.00     0.002 C 
HETATM   11  C12 LIG X 999      46.170 131.160  20.795  1.00  0.00     0.036 C 
HETATM   12  C11 LIG X 999      44.985 131.009  20.025  1.00  0.00     0.117 C 
HETATM   13  C10 LIG X 999      43.674 131.233  20.524  1.00  0.00     0.100 C 
HETATM   14 CL1  LIG X 999      42.377 131.443  19.343  1.00  0.00    -0.079 Cl
BRANCH   5  15
HETATM   15  O1  LIG X 999      44.349 129.111  22.390  1.00  0.00    -0.254 OA
BRANCH  15  16
HETATM   16  C6  LIG X 999      43.885 127.909  22.949  1.00  0.00     0.461 C 
HETATM   17  O2  LIG X 999      42.660 127.748  23.209  1.00  0.00    -0.230 OA
HETATM   18  N1  LIG X 999      44.829 126.884  23.314  1.00  0.00     0.009 N 
HETATM   19  H5  LIG X 999      44.312 126.035  23.644  1.00  0.00     0.292 HD
HETATM   20  C7  LIG X 999      45.640 126.504  22.147  1.00  0.00     0.282 C 
HETATM   21  C8  LIG X 999      45.682 127.365  24.410  1.00  0.00     0.282 C 
ENDBRANCH  15  16
ENDBRANCH   5  15
BRANCH  12  22
HETATM   22  N5  LIG X 999      45.094 130.550  18.667  1.00  0.00    -0.071 NA
HETATM   23  N6  LIG X 999      45.216 131.318  17.710  1.00  0.00    -0.162 NA
HETATM   24  N7  LIG X 999      45.337 132.083  16.755  1.00  0.00     0.068 N 
ENDBRANCH  12  22
ENDBRANCH   1   4
TORSDOF 4
ENDMDL
MODEL 5
REMARK VINA RESULT:       1.1      3.032      5.389
REMARK  4 active torsions:
REMARK  status: ('A' for Active; 'I' for Inactive)
REMARK    1  A    between atoms: C5_5  and  O1_6 
REMARK    2  A    between atoms: O1_6  and  C6_7 
REMARK       I    between atoms: C6_7  and  N1_9 
REMARK    3  A    between atoms: C9_13  and  N2_14 
REMARK    4  A    between atoms: C11_19  and  N5_20 
ROOT
HETATM    1  N2  LIG X 999      44.960 129.664  22.493  1.00  0.00    -0.068 NA
HETATM    2  N3  LIG X 999      45.288 128.528  22.150  1.00  0.00    -0.162 NA
HETATM    3  N4  LIG X 999      45.611 127.391  21.811  1.00  0.00     0.068 N 
ENDROOT
BRANCH   1   4
HETATM    4  C9  LIG X 999      45.048 130.799  21.611  1.00  0.00     0.151 C 
HETATM    5  C5  LIG X 999      45.082 132.079  22.192  1.00  0.00     0.114 C 
HETATM    6  C4  LIG X 999      44.301 132.391  23.326  1.00  0.00     0.040 C 
HETATM    7  C3  LIG X 999      43.039 131.834  23.621  1.00  0.00     0.003 C 
HETATM    8  C2  LIG X 999      42.193 131.172  22.709  1.00  0.00     0.000 C 
HETATM    9  C1  LIG X 999      42.270 131.299  21.317  1.00  0.00     0.000 C 
HETATM   10  C13 LIG X 999      42.689 132.479  20.700  1.00  0.00     0.002 C 
HETATM   11  C12 LIG X 999      43.542 132.516  19.592  1.00  0.00     0.036 C 
HETATM   12  C11 LIG X 999      44.538 131.554  19.272  1.00  0.00     0.117 C 
HETATM   13  C10 LIG X 999      45.089 130.633  20.204  1.00  0.00     0.100 C 
HETATM   14 CL1  LIG X 999      45.957 129.238  19.555  1.00  0.00    -0.079 Cl
BRANCH   5  15
HETATM   15  O1  LIG X 999      45.934 133.031  21.611  1.00  0.00    -0.254 OA
BRANCH  15  16
HETATM   16  C6  LIG X 999      47.338 132.995  21.615  1.00  0.00     0.461 C 
HETATM   17  O2  LIG X 999      47.961 132.016  21.119  1.00  0.00    -0.230 OA
HETATM   18  N1  LIG X 999      48.073 134.045  22.273  1.00  0.00     0.009 N 
HETATM   19  H5  LIG X 999      49.100 133.902  22.118  1.00  0.00     0.292 HD
HETATM   20  C7  LIG X 999      47.701 135.353  21.713  1.00  0.00     0.282 C 
HETATM   21  C8  LIG X 999      47.810 134.001  23.719  1.00  0.00     0.282 C 
ENDBRANCH  15  16
ENDBRANCH   5  15
BRANCH  12  22
HETATM   22  N5  LIG X 999      45.075 131.528  17.938  1.00  0.00    -0.071 NA
HETATM   23  N6  LIG X 999      44.365 131.590  16.932  1.00  0.00    -0.162 NA
HETATM   24  N7  LIG X 999      43.658 131.652  15.928  1.00  0.00     0.068 N 
ENDBRANCH  12  22
ENDBRANCH   1   4
TORSDOF 4
ENDMDL
MODEL 6
REMARK VINA RESULT:       1.4      2.966      5.609
REMARK  4 active torsions:
REMARK  status: ('A' for Active; 'I' for Inactive)
REMARK    1  A    between atoms: C5_5  and  O1_6 
REMARK    2  A    between atoms: O1_6  and  C6_7 
REMARK       I    between atoms: C6_7  and  N1_9 
REMARK    3  A    between atoms: C9_13  and  N2_14 
REMARK    4  A    between atoms: C11_19  and  N5_20 
ROOT
HETATM    1  N2  LIG X 999      44.572 129.704  23.921  1.00  0.00    -0.068 NA
HETATM    2  N3  LIG X 999      43.833 128.745  23.698  1.00  0.00    -0.162 NA
HETATM    3  N4  LIG X 999      43.094 127.787  23.480  1.00  0.00     0.068 N 
ENDROOT
BRANCH   1   4
HETATM    4  C9  LIG X 999      44.840 130.724  22.942  1.00  0.00     0.151 C 
HETATM    5  C5  LIG X 999      44.921 132.055  23.387  1.00  0.00     0.114 C 
HETATM    6  C4  LIG X 999      44.058 132.546  24.391  1.00  0.00     0.040 C 
HETATM    7  C3  LIG X 999      42.731 132.116  24.603  1.00  0.00     0.003 C 
HETATM    8  C2  LIG X 999      41.930 131.418  23.677  1.00  0.00     0.000 C 
HETATM    9  C1  LIG X 999      42.156 131.384  22.296  1.00  0.00     0.000 C 
HETATM   10  C13 LIG X 999      42.731 132.455  21.610  1.00  0.00     0.002 C 
HETATM   11  C12 LIG X 999      43.692 132.308  20.604  1.00  0.00     0.036 C 
HETATM   12  C11 LIG X 999      44.633 131.248  20.495  1.00  0.00     0.117 C 
HETATM   13  C10 LIG X 999      45.010 130.400  21.571  1.00  0.00     0.100 C 
HETATM   14 CL1  LIG X 999      45.821 128.884  21.169  1.00  0.00    -0.079 Cl
BRANCH   5  15
HETATM   15  O1  LIG X 999      45.902 132.874  22.806  1.00  0.00    -0.254 OA
BRANCH  15  16
HETATM   16  C6  LIG X 999      46.698 133.815  23.481  1.00  0.00     0.461 C 
HETATM   17  O2  LIG X 999      46.371 134.236  24.625  1.00  0.00    -0.230 OA
HETATM   18  N1  LIG X 999      47.851 134.373  22.822  1.00  0.00     0.009 N 
HETATM   19  H5  LIG X 999      48.366 134.996  23.488  1.00  0.00     0.292 HD
HETATM   20  C7  LIG X 999      48.761 133.299  22.398  1.00  0.00     0.282 C 
HETATM   21  C8  LIG X 999      47.420 135.179  21.670  1.00  0.00     0.282 C 
ENDBRANCH  15  16
ENDBRANCH   5  15
BRANCH  12  22
HETATM   22  N5  LIG X 999      45.296 131.036  19.237  1.00  0.00    -0.071 NA
HETATM   23  N6  LIG X 999      44.804 131.369  18.158  1.00  0.00    -0.162 NA
HETATM   24  N7  LIG X 999      44.313 131.701  17.080  1.00  0.00     0.068 N 
ENDBRANCH  12  22
ENDBRANCH   1   4
TORSDOF 4
ENDMDL
MODEL 7
REMARK VINA RESULT:       1.9      2.285      4.441
REMARK  4 active torsions:
REMARK  status: ('A' for Active; 'I' for Inactive)
REMARK    1  A    between atoms: C5_5  and  O1_6 
REMARK    2  A    between atoms: O1_6  and  C6_7 
REMARK       I    between atoms: C6_7  and  N1_9 
REMARK    3  A    between atoms: C9_13  and  N2_14 
REMARK    4  A    between atoms: C11_19  and  N5_20 
ROOT
HETATM    1  N2  LIG X 999      42.483 132.269  22.101  1.00  0.00    -0.068 NA
HETATM    2  N3  LIG X 999      41.926 132.013  23.168  1.00  0.00    -0.162 NA
HETATM    3  N4  LIG X 999      41.364 131.760  24.233  1.00  0.00     0.068 N 
ENDROOT
BRANCH   1   4
HETATM    4  C9  LIG X 999      43.389 131.355  21.457  1.00  0.00     0.151 C 
HETATM    5  C5  LIG X 999      44.048 130.409  22.262  1.00  0.00     0.114 C 
HETATM    6  C4  LIG X 999      44.513 130.742  23.553  1.00  0.00     0.040 C 
HETATM    7  C3  LIG X 999      44.973 132.016  23.946  1.00  0.00     0.003 C 
HETATM    8  C2  LIG X 999      45.382 133.052  23.082  1.00  0.00     0.000 C 
HETATM    9  C1  LIG X 999      45.771 132.869  21.750  1.00  0.00     0.000 C 
HETATM   10  C13 LIG X 999      46.402 131.703  21.313  1.00  0.00     0.002 C 
HETATM   11  C12 LIG X 999      46.105 131.066  20.103  1.00  0.00     0.036 C 
HETATM   12  C11 LIG X 999      44.851 131.084  19.434  1.00  0.00     0.117 C 
HETATM   13  C10 LIG X 999      43.617 131.410  20.059  1.00  0.00     0.100 C 
HETATM   14 CL1  LIG X 999      42.257 131.825  19.010  1.00  0.00    -0.079 Cl
BRANCH   5  15
HETATM   15  O1  LIG X 999      44.213 129.116  21.740  1.00  0.00    -0.254 OA
BRANCH  15  16
HETATM   16  C6  LIG X 999      45.059 128.120  22.253  1.00  0.00     0.461 C 
HETATM   17  O2  LIG X 999      46.214 127.944  21.774  1.00  0.00    -0.230 OA
HETATM   18  N1  LIG X 999      44.571 127.230  23.275  1.00  0.00     0.009 N 
HETATM   19  H5  LIG X 999      45.348 126.602  23.592  1.00  0.00     0.292 HD
HETATM   20  C7  LIG X 999      44.099 128.001  24.435  1.00  0.00     0.282 C 
HETATM   21  C8  LIG X 999      43.492 126.394  22.728  1.00  0.00     0.282 C 
ENDBRANCH  15  16
ENDBRANCH   5  15
BRANCH  12  22
HETATM   22  N5  LIG X 999      44.798 130.703  18.049  1.00  0.00    -0.071 NA
HETATM   23  N6  LIG X 999      45.224 131.422  17.142  1.00  0.00    -0.162 NA
HETATM   24  N7  LIG X 999      45.648 132.137  16.236  1.00  0.00     0.068 N 
ENDBRANCH  12  22
ENDBRANCH   1   4
TORSDOF 4
ENDMDL
MODEL 8
REMARK VINA RESULT:       2.4      2.506      4.505
REMARK  4 active torsions:
REMARK  status: ('A' for Active; 'I' for Inactive)
REMARK    1  A    between atoms: C5_5  and  O1_6 
REMARK    2  A    between atoms: O1_6  and  C6_7 
REMARK       I    between atoms: C6_7  and  N1_9 
REMARK    3  A    between atoms: C9_13  and  N2_14 
REMARK    4  A    between atoms: C11_19  and  N5_20 
ROOT
HETATM    1  N2  LIG X 999      42.686 132.292  20.004  1.00  0.00    -0.068 NA
HETATM    2  N3  LIG X 999      41.809 132.960  20.552  1.00  0.00    -0.162 NA
HETATM    3  N4  LIG X 999      40.929 133.624  21.097  1.00  0.00     0.068 N 
ENDROOT
BRANCH   1   4
HETATM    4  C9  LIG X 999      43.863 131.835  20.695  1.00  0.00     0.151 C 
HETATM    5  C5  LIG X 999      45.061 132.540  20.485  1.00  0.00     0.114 C 
HETATM    6  C4  LIG X 999      45.400 133.049  19.213  1.00  0.00     0.040 C 
HETATM    7  C3  LIG X 999      45.042 132.460  17.982  1.00  0.00     0.003 C 
HETATM    8  C2  LIG X 999      44.619 131.129  17.792  1.00  0.00     0.000 C 
HETATM    9  C1  LIG X 999      44.854 130.084  18.693  1.00  0.00     0.000 C 
HETATM   10  C13 LIG X 999      45.996 130.037  19.496  1.00  0.00     0.002 C 
HETATM   11  C12 LIG X 999      45.985 129.651  20.840  1.00  0.00     0.036 C 
HETATM   12  C11 LIG X 999      44.900 129.804  21.745  1.00  0.00     0.117 C 
HETATM   13  C10 LIG X 999      43.819 130.706  21.552  1.00  0.00     0.100 C 
HETATM   14 CL1  LIG X 999      42.360 130.448  22.513  1.00  0.00    -0.079 Cl
BRANCH   5  15
HETATM   15  O1  LIG X 999      45.902 132.731  21.593  1.00  0.00    -0.254 OA
BRANCH  15  16
HETATM   16  C6  LIG X 999      47.292 132.933  21.550  1.00  0.00     0.461 C 
HETATM   17  O2  LIG X 999      48.055 132.069  21.037  1.00  0.00    -0.230 OA
HETATM   18  N1  LIG X 999      47.860 134.098  22.180  1.00  0.00     0.009 N 
HETATM   19  H5  LIG X 999      48.890 134.129  21.991  1.00  0.00     0.292 HD
HETATM   20  C7  LIG X 999      47.254 135.319  21.628  1.00  0.00     0.282 C 
HETATM   21  C8  LIG X 999      47.656 134.023  23.634  1.00  0.00     0.282 C 
ENDBRANCH  15  16
ENDBRANCH   5  15
BRANCH  12  22
HETATM   22  N5  LIG X 999      44.901 129.044  22.966  1.00  0.00    -0.071 NA
HETATM   23  N6  LIG X 999      44.609 127.847  23.007  1.00  0.00    -0.162 NA
HETATM   24  N7  LIG X 999      44.318 126.653  23.050  1.00  0.00     0.068 N 
ENDBRANCH  12  22
ENDBRANCH   1   4
TORSDOF 4
ENDMDL
MODEL 9
REMARK VINA RESULT:       2.7      2.433      4.819
REMARK  4 active torsions:
REMARK  status: ('A' for Active; 'I' for Inactive)
REMARK    1  A    between atoms: C5_5  and  O1_6 
REMARK    2  A    between atoms: O1_6  and  C6_7 
REMARK       I    between atoms: C6_7  and  N1_9 
REMARK    3  A    between atoms: C9_13  and  N2_14 
REMARK    4  A    between atoms: C11_19  and  N5_20 
ROOT
HETATM    1  N2  LIG X 999      44.670 131.034  24.625  1.00  0.00    -0.068 NA
HETATM    2  N3  LIG X 999      44.957 132.222  24.481  1.00  0.00    -0.162 NA
HETATM    3  N4  LIG X 999      45.248 133.409  24.340  1.00  0.00     0.068 N 
ENDROOT
BRANCH   1   4
HETATM    4  C9  LIG X 999      44.266 130.192  23.529  1.00  0.00     0.151 C 
HETATM    5  C5  LIG X 999      43.646 130.804  22.427  1.00  0.00     0.114 C 
HETATM    6  C4  LIG X 999      42.735 131.869  22.595  1.00  0.00     0.040 C 
HETATM    7  C3  LIG X 999      41.874 132.033  23.701  1.00  0.00     0.003 C 
HETATM    8  C2  LIG X 999      41.511 131.032  24.624  1.00  0.00     0.000 C 
HETATM    9  C1  LIG X 999      41.614 129.656  24.385  1.00  0.00     0.000 C 
HETATM   10  C13 LIG X 999      41.461 129.109  23.110  1.00  0.00     0.002 C 
HETATM   11  C12 LIG X 999      42.268 128.085  22.601  1.00  0.00     0.036 C 
HETATM   12  C11 LIG X 999      43.622 127.835  22.955  1.00  0.00     0.117 C 
HETATM   13  C10 LIG X 999      44.479 128.790  23.564  1.00  0.00     0.100 C 
HETATM   14 CL1  LIG X 999      45.950 128.191  24.337  1.00  0.00    -0.079 Cl
BRANCH   5  15
HETATM   15  O1  LIG X 999      43.978 130.327  21.149  1.00  0.00    -0.254 OA
BRANCH  15  16
HETATM   16  C6  LIG X 999      43.963 131.072  19.959  1.00  0.00     0.461 C 
HETATM   17  O2  LIG X 999      42.881 131.294  19.348  1.00  0.00    -0.230 OA
HETATM   18  N1  LIG X 999      45.207 131.512  19.380  1.00  0.00     0.009 N 
HETATM   19  H5  LIG X 999      45.011 132.111  18.543  1.00  0.00     0.292 HD
HETATM   20  C7  LIG X 999      45.963 132.314  20.354  1.00  0.00     0.282 C 
HETATM   21  C8  LIG X 999      45.989 130.346  18.943  1.00  0.00     0.282 C 
ENDBRANCH  15  16
ENDBRANCH   5  15
BRANCH  12  22
HETATM   22  N5  LIG X 999      44.196 126.555  22.637  1.00  0.00    -0.071 NA
HETATM   23  N6  LIG X 999      43.579 125.496  22.765  1.00  0.00    -0.162 NA
HETATM   24  N7  LIG X 999      42.964 124.439  22.892  1.00  0.00     0.068 N 
ENDBRANCH  12  22
ENDBRANCH   1   4
TORSDOF 4
ENDMDL
