REMARK VINA RESULT:      -6.2      0.000      0.000
REMARK  3 active torsions:
REMARK  status: ('A' for Active; 'I' for Inactive)
REMARK    1  A    between atoms: C2_2  and  N1_3 
REMARK    2  A    between atoms: C3_6  and  O1_7 
REMARK    3  A    between atoms: O1_7  and  C4_8 
REMARK       I    between atoms: C4_8  and  N4_10 
ROOT
HETATM    1  N1  LIG X 999      43.325 132.124  15.304  1.00  0.00    -0.070 NA
HETATM    2  N2  LIG X 999      43.497 131.419  14.308  1.00  0.00    -0.162 NA
HETATM    3  N3  LIG X 999      43.666 130.723  13.309  1.00  0.00     0.068 N 
ENDROOT
BRANCH   1   4
HETATM    4  C2  LIG X 999      43.878 131.824  16.596  1.00  0.00     0.128 A 
HETATM    5  C1  LIG X 999      43.008 131.867  17.694  1.00  0.00     0.049 A 
HETATM    6  C13 LIG X 999      43.469 131.600  18.988  1.00  0.00    -0.023 A 
HETATM    7  C8  LIG X 999      44.836 131.267  19.191  1.00  0.00    -0.022 A 
HETATM    8  C12 LIG X 999      42.589 131.652  20.088  1.00  0.00     0.021 A 
HETATM    9  C7  LIG X 999      45.704 131.214  18.094  1.00  0.00     0.052 A 
HETATM   10  C9  LIG X 999      45.302 130.983  20.490  1.00  0.00     0.021 A 
HETATM   11  C3  LIG X 999      45.243 131.498  16.795  1.00  0.00     0.113 A 
HETATM   12  C10 LIG X 999      44.401 131.052  21.554  1.00  0.00    -0.024 A 
HETATM   13  C11 LIG X 999      43.093 131.375  21.360  1.00  0.00    -0.024 A 
HETATM   14  C17 LIG X 999      44.660 130.776  22.983  1.00  0.00     0.276 C 
HETATM   15  C14 LIG X 999      42.356 131.348  22.642  1.00  0.00     0.276 C 
HETATM   16  N5  LIG X 999      43.396 131.138  23.699  1.00  0.00    -0.067 N 
HETATM   17  C15 LIG X 999      43.592 132.388  24.473  1.00  0.00     0.272 C 
HETATM   18  C16 LIG X 999      42.989 130.056  24.625  1.00  0.00     0.272 C 
BRANCH  11  19
HETATM   19  O1  LIG X 999      46.111 131.409  15.696  1.00  0.00    -0.259 OA
BRANCH  19  20
HETATM   20  C4  LIG X 999      46.838 130.264  15.337  1.00  0.00     0.367 C 
HETATM   21  O2  LIG X 999      46.945 129.301  16.147  1.00  0.00    -0.238 OA
HETATM   22  N4  LIG X 999      47.499 130.207  14.063  1.00  0.00    -0.336 N 
HETATM   23  C5  LIG X 999      47.329 131.310  13.114  1.00  0.00     0.154 C 
HETATM   24  C6  LIG X 999      48.313 129.038  13.715  1.00  0.00     0.154 C 
ENDBRANCH  19  20
ENDBRANCH  11  19
ENDBRANCH   1   4
TORSDOF 3
