MODEL 1
REMARK VINA RESULT:      -6.6      0.000      0.000
REMARK  4 active torsions:
REMARK  status: ('A' for Active; 'I' for Inactive)
REMARK    1  A    between atoms: C2_2  and  C3_3 
REMARK    2  A    between atoms: C2_2  and  N1_9 
REMARK    3  A    between atoms: C3_3  and  C4_4 
REMARK       I    between atoms: N1_9  and  C8_10 
REMARK       I    between atoms: C8_10  and  N2_12 
REMARK    4  A    between atoms: N2_12  and  C9_13 
ROOT
HETATM    1  C9  LIG X 999      43.389 126.065  24.046  1.00  0.00     0.056 A 
HETATM    2  C10 LIG X 999      44.588 125.372  23.825  1.00  0.00     0.003 A 
HETATM    3  C11 LIG X 999      44.600 124.127  23.268  1.00  0.00    -0.021 A 
HETATM    4  C12 LIG X 999      43.426 123.474  22.905  1.00  0.00     0.022 A 
HETATM    5  C13 LIG X 999      42.197 124.130  23.105  1.00  0.00    -0.023 A 
HETATM    6  C14 LIG X 999      40.996 123.504  22.742  1.00  0.00     0.012 A 
HETATM    7  C15 LIG X 999      39.776 124.153  22.940  1.00  0.00     0.001 A 
HETATM    8  C16 LIG X 999      39.742 125.430  23.503  1.00  0.00     0.001 A 
HETATM    9  C17 LIG X 999      40.928 126.072  23.870  1.00  0.00     0.014 A 
HETATM   10  C18 LIG X 999      42.171 125.439  23.675  1.00  0.00     0.002 A 
HETATM   11  C19 LIG X 999      45.986 123.638  23.112  1.00  0.00     0.276 C 
HETATM   12  N3  LIG X 999      46.861 124.810  23.422  1.00  0.00    -0.067 N 
HETATM   13  C20 LIG X 999      47.430 125.365  22.170  1.00  0.00     0.272 C 
HETATM   14  C21 LIG X 999      47.969 124.414  24.321  1.00  0.00     0.272 C 
HETATM   15  C22 LIG X 999      45.978 125.827  24.075  1.00  0.00     0.278 C 
ENDROOT
BRANCH   1  16
HETATM   16  N2  LIG X 999      43.407 127.397  24.577  1.00  0.00    -0.307 N 
HETATM   17  C8  LIG X 999      43.818 128.528  23.799  1.00  0.00     0.321 C 
HETATM   18  N1  LIG X 999      43.761 129.841  24.373  1.00  0.00    -0.338 N 
HETATM   19  O1  LIG X 999      44.248 128.365  22.624  1.00  0.00    -0.247 OA
HETATM   20  H10 LIG X 999      43.363 129.945  25.334  1.00  0.00     0.164 HD
HETATM   21  H11 LIG X 999      43.224 127.529  25.597  1.00  0.00     0.170 HD
BRANCH  18  22
HETATM   22  C2  LIG X 999      44.128 131.055  23.637  1.00  0.00     0.086 C 
HETATM   23  C1  LIG X 999      44.323 132.208  24.623  1.00  0.00     0.032 C 
BRANCH  22  24
HETATM   24  C3  LIG X 999      43.037 131.401  22.611  1.00  0.00     0.071 C 
BRANCH  24  25
HETATM   25  C4  LIG X 999      43.591 131.440  21.219  1.00  0.00    -0.016 A 
HETATM   26  C5  LIG X 999      44.909 131.185  20.858  1.00  0.00     0.015 A 
HETATM   27  C6  LIG X 999      45.142 131.341  19.487  1.00  0.00     0.008 A 
HETATM   28  C7  LIG X 999      44.019 131.734  18.771  1.00  0.00     0.050 A 
HETATM   29  S1  LIG X 999      42.733 131.887  19.844  1.00  0.00    -0.106 SA
ENDBRANCH  24  25
ENDBRANCH  22  24
ENDBRANCH  18  22
ENDBRANCH   1  16
TORSDOF 4
ENDMDL
MODEL 2
REMARK VINA RESULT:      -5.8      1.614      2.121
REMARK  4 active torsions:
REMARK  status: ('A' for Active; 'I' for Inactive)
REMARK    1  A    between atoms: C2_2  and  C3_3 
REMARK    2  A    between atoms: C2_2  and  N1_9 
REMARK    3  A    between atoms: C3_3  and  C4_4 
REMARK       I    between atoms: N1_9  and  C8_10 
REMARK       I    between atoms: C8_10  and  N2_12 
REMARK    4  A    between atoms: N2_12  and  C9_13 
ROOT
HETATM    1  C9  LIG X 999      43.858 127.265  23.775  1.00  0.00     0.056 A 
HETATM    2  C10 LIG X 999      44.888 126.317  23.879  1.00  0.00     0.003 A 
HETATM    3  C11 LIG X 999      44.622 124.989  24.037  1.00  0.00    -0.021 A 
HETATM    4  C12 LIG X 999      43.319 124.506  24.117  1.00  0.00     0.022 A 
HETATM    5  C13 LIG X 999      42.252 125.417  24.015  1.00  0.00    -0.023 A 
HETATM    6  C14 LIG X 999      40.927 124.962  24.083  1.00  0.00     0.012 A 
HETATM    7  C15 LIG X 999      39.867 125.865  23.983  1.00  0.00     0.001 A 
HETATM    8  C16 LIG X 999      40.118 127.228  23.816  1.00  0.00     0.001 A 
HETATM    9  C17 LIG X 999      41.430 127.702  23.745  1.00  0.00     0.014 A 
HETATM   10  C18 LIG X 999      42.516 126.809  23.838  1.00  0.00     0.002 A 
HETATM   11  C19 LIG X 999      45.876 124.207  24.083  1.00  0.00     0.276 C 
HETATM   12  N3  LIG X 999      46.959 125.167  23.707  1.00  0.00    -0.067 N 
HETATM   13  C20 LIG X 999      47.414 124.902  22.321  1.00  0.00     0.272 C 
HETATM   14  C21 LIG X 999      48.114 125.040  24.625  1.00  0.00     0.272 C 
HETATM   15  C22 LIG X 999      46.354 126.533  23.792  1.00  0.00     0.278 C 
ENDROOT
BRANCH   1  16
HETATM   16  N2  LIG X 999      44.164 128.648  23.551  1.00  0.00    -0.307 N 
HETATM   17  C8  LIG X 999      44.721 129.120  22.318  1.00  0.00     0.321 C 
HETATM   18  N1  LIG X 999      44.952 130.524  22.137  1.00  0.00    -0.338 N 
HETATM   19  O1  LIG X 999      45.027 128.301  21.407  1.00  0.00    -0.247 OA
HETATM   20  H10 LIG X 999      44.651 131.177  22.895  1.00  0.00     0.164 HD
HETATM   21  H11 LIG X 999      44.082 129.313  24.352  1.00  0.00     0.170 HD
BRANCH  18  22
HETATM   22  C2  LIG X 999      45.486 131.096  20.896  1.00  0.00     0.086 C 
HETATM   23  C1  LIG X 999      46.328 132.329  21.227  1.00  0.00     0.032 C 
BRANCH  22  24
HETATM   24  C3  LIG X 999      44.335 131.466  19.947  1.00  0.00     0.071 C 
BRANCH  24  25
HETATM   25  C4  LIG X 999      44.689 131.175  18.521  1.00  0.00    -0.016 A 
HETATM   26  C5  LIG X 999      45.845 130.540  18.081  1.00  0.00     0.015 A 
HETATM   27  C6  LIG X 999      45.922 130.448  16.687  1.00  0.00     0.008 A 
HETATM   28  C7  LIG X 999      44.843 131.022  16.028  1.00  0.00     0.050 A 
HETATM   29  S1  LIG X 999      43.789 131.644  17.181  1.00  0.00    -0.106 SA
ENDBRANCH  24  25
ENDBRANCH  22  24
ENDBRANCH  18  22
ENDBRANCH   1  16
TORSDOF 4
ENDMDL
MODEL 3
REMARK VINA RESULT:      -5.6      3.410      6.788
REMARK  4 active torsions:
REMARK  status: ('A' for Active; 'I' for Inactive)
REMARK    1  A    between atoms: C2_2  and  C3_3 
REMARK    2  A    between atoms: C2_2  and  N1_9 
REMARK    3  A    between atoms: C3_3  and  C4_4 
REMARK       I    between atoms: N1_9  and  C8_10 
REMARK       I    between atoms: C8_10  and  N2_12 
REMARK    4  A    between atoms: N2_12  and  C9_13 
ROOT
HETATM    1  C9  LIG X 999      44.063 126.514  22.944  1.00  0.00     0.056 A 
HETATM    2  C10 LIG X 999      43.154 125.539  23.380  1.00  0.00     0.003 A 
HETATM    3  C11 LIG X 999      41.989 125.876  24.004  1.00  0.00    -0.021 A 
HETATM    4  C12 LIG X 999      41.648 127.203  24.253  1.00  0.00     0.022 A 
HETATM    5  C13 LIG X 999      42.527 128.218  23.832  1.00  0.00    -0.023 A 
HETATM    6  C14 LIG X 999      42.209 129.565  24.060  1.00  0.00     0.012 A 
HETATM    7  C15 LIG X 999      43.080 130.573  23.643  1.00  0.00     0.001 A 
HETATM    8  C16 LIG X 999      44.274 130.249  22.998  1.00  0.00     0.001 A 
HETATM    9  C17 LIG X 999      44.609 128.913  22.761  1.00  0.00     0.014 A 
HETATM   10  C18 LIG X 999      43.744 127.879  23.167  1.00  0.00     0.002 A 
HETATM   11  C19 LIG X 999      41.200 124.669  24.327  1.00  0.00     0.276 C 
HETATM   12  N3  LIG X 999      41.893 123.541  23.630  1.00  0.00    -0.067 N 
HETATM   13  C20 LIG X 999      41.122 123.134  22.431  1.00  0.00     0.272 C 
HETATM   14  C21 LIG X 999      42.031 122.375  24.532  1.00  0.00     0.272 C 
HETATM   15  C22 LIG X 999      43.233 124.065  23.221  1.00  0.00     0.278 C 
ENDROOT
BRANCH   1  16
HETATM   16  N2  LIG X 999      45.252 126.135  22.238  1.00  0.00    -0.307 N 
HETATM   17  C8  LIG X 999      46.429 125.671  22.911  1.00  0.00     0.321 C 
HETATM   18  N1  LIG X 999      47.567 125.255  22.143  1.00  0.00    -0.338 N 
HETATM   19  O1  LIG X 999      46.470 125.651  24.172  1.00  0.00    -0.247 OA
HETATM   20  H10 LIG X 999      47.485 125.248  21.101  1.00  0.00     0.164 HD
HETATM   21  H11 LIG X 999      45.298 126.311  21.209  1.00  0.00     0.170 HD
BRANCH  18  22
HETATM   22  C2  LIG X 999      48.797 124.735  22.749  1.00  0.00     0.086 C 
HETATM   23  C1  LIG X 999      49.948 125.705  22.473  1.00  0.00     0.032 C 
BRANCH  22  24
HETATM   24  C3  LIG X 999      49.117 123.342  22.182  1.00  0.00     0.071 C 
BRANCH  24  25
HETATM   25  C4  LIG X 999      49.922 123.438  20.922  1.00  0.00    -0.016 A 
HETATM   26  C5  LIG X 999      49.412 123.481  19.630  1.00  0.00     0.015 A 
HETATM   27  C6  LIG X 999      50.409 123.525  18.649  1.00  0.00     0.008 A 
HETATM   28  C7  LIG X 999      51.700 123.499  19.162  1.00  0.00     0.050 A 
HETATM   29  S1  LIG X 999      51.601 123.423  20.839  1.00  0.00    -0.106 SA
ENDBRANCH  24  25
ENDBRANCH  22  24
ENDBRANCH  18  22
ENDBRANCH   1  16
TORSDOF 4
ENDMDL
MODEL 4
REMARK VINA RESULT:      -5.2      3.257      6.535
REMARK  4 active torsions:
REMARK  status: ('A' for Active; 'I' for Inactive)
REMARK    1  A    between atoms: C2_2  and  C3_3 
REMARK    2  A    between atoms: C2_2  and  N1_9 
REMARK    3  A    between atoms: C3_3  and  C4_4 
REMARK       I    between atoms: N1_9  and  C8_10 
REMARK       I    between atoms: C8_10  and  N2_12 
REMARK    4  A    between atoms: N2_12  and  C9_13 
ROOT
HETATM    1  C9  LIG X 999      44.133 126.557  22.927  1.00  0.00     0.056 A 
HETATM    2  C10 LIG X 999      43.267 125.561  23.404  1.00  0.00     0.003 A 
HETATM    3  C11 LIG X 999      42.123 125.873  24.078  1.00  0.00    -0.021 A 
HETATM    4  C12 LIG X 999      41.762 127.191  24.339  1.00  0.00     0.022 A 
HETATM    5  C13 LIG X 999      42.597 128.226  23.878  1.00  0.00    -0.023 A 
HETATM    6  C14 LIG X 999      42.257 129.566  24.117  1.00  0.00     0.012 A 
HETATM    7  C15 LIG X 999      43.084 130.593  23.661  1.00  0.00     0.001 A 
HETATM    8  C16 LIG X 999      44.257 130.295  22.965  1.00  0.00     0.001 A 
HETATM    9  C17 LIG X 999      44.613 128.967  22.715  1.00  0.00     0.014 A 
HETATM   10  C18 LIG X 999      43.791 127.914  23.161  1.00  0.00     0.002 A 
HETATM   11  C19 LIG X 999      41.377 124.648  24.437  1.00  0.00     0.276 C 
HETATM   12  N3  LIG X 999      42.066 123.535  23.713  1.00  0.00    -0.067 N 
HETATM   13  C20 LIG X 999      41.253 123.106  22.549  1.00  0.00     0.272 C 
HETATM   14  C21 LIG X 999      42.271 122.375  24.610  1.00  0.00     0.272 C 
HETATM   15  C22 LIG X 999      43.374 124.089  23.244  1.00  0.00     0.278 C 
ENDROOT
BRANCH   1  16
HETATM   16  N2  LIG X 999      45.298 126.204  22.171  1.00  0.00    -0.307 N 
HETATM   17  C8  LIG X 999      46.510 125.757  22.792  1.00  0.00     0.321 C 
HETATM   18  N1  LIG X 999      47.623 125.367  21.975  1.00  0.00    -0.338 N 
HETATM   19  O1  LIG X 999      46.603 125.729  24.050  1.00  0.00    -0.247 OA
HETATM   20  H10 LIG X 999      47.498 125.364  20.937  1.00  0.00     0.164 HD
HETATM   21  H11 LIG X 999      45.299 126.387  21.142  1.00  0.00     0.170 HD
BRANCH  18  22
HETATM   22  C2  LIG X 999      48.886 124.865  22.526  1.00  0.00     0.086 C 
HETATM   23  C1  LIG X 999      48.681 123.443  23.050  1.00  0.00     0.032 C 
BRANCH  22  24
HETATM   24  C3  LIG X 999      49.376 125.791  23.651  1.00  0.00     0.071 C 
BRANCH  24  25
HETATM   25  C4  LIG X 999      50.735 126.344  23.348  1.00  0.00    -0.016 A 
HETATM   26  C5  LIG X 999      51.597 125.893  22.356  1.00  0.00     0.015 A 
HETATM   27  C6  LIG X 999      52.818 126.576  22.339  1.00  0.00     0.008 A 
HETATM   28  C7  LIG X 999      52.928 127.549  23.324  1.00  0.00     0.050 A 
HETATM   29  S1  LIG X 999      51.503 127.563  24.216  1.00  0.00    -0.106 SA
ENDBRANCH  24  25
ENDBRANCH  22  24
ENDBRANCH  18  22
ENDBRANCH   1  16
TORSDOF 4
ENDMDL
MODEL 5
REMARK VINA RESULT:      -5.1      3.137      6.908
REMARK  4 active torsions:
REMARK  status: ('A' for Active; 'I' for Inactive)
REMARK    1  A    between atoms: C2_2  and  C3_3 
REMARK    2  A    between atoms: C2_2  and  N1_9 
REMARK    3  A    between atoms: C3_3  and  C4_4 
REMARK       I    between atoms: N1_9  and  C8_10 
REMARK       I    between atoms: C8_10  and  N2_12 
REMARK    4  A    between atoms: N2_12  and  C9_13 
ROOT
HETATM    1  C9  LIG X 999      43.038 126.193  24.255  1.00  0.00     0.056 A 
HETATM    2  C10 LIG X 999      41.777 125.593  24.125  1.00  0.00     0.003 A 
HETATM    3  C11 LIG X 999      40.660 126.328  23.859  1.00  0.00    -0.021 A 
HETATM    4  C12 LIG X 999      40.710 127.712  23.718  1.00  0.00     0.022 A 
HETATM    5  C13 LIG X 999      41.953 128.361  23.838  1.00  0.00    -0.023 A 
HETATM    6  C14 LIG X 999      42.039 129.753  23.693  1.00  0.00     0.012 A 
HETATM    7  C15 LIG X 999      43.271 130.398  23.812  1.00  0.00     0.001 A 
HETATM    8  C16 LIG X 999      44.427 129.663  24.078  1.00  0.00     0.001 A 
HETATM    9  C17 LIG X 999      44.363 128.274  24.225  1.00  0.00     0.014 A 
HETATM   10  C18 LIG X 999      43.132 127.601  24.104  1.00  0.00     0.002 A 
HETATM   11  C19 LIG X 999      39.475 125.454  23.736  1.00  0.00     0.276 C 
HETATM   12  N3  LIG X 999      40.009 124.057  23.726  1.00  0.00    -0.067 N 
HETATM   13  C20 LIG X 999      39.959 123.503  22.352  1.00  0.00     0.272 C 
HETATM   14  C21 LIG X 999      39.216 123.187  24.625  1.00  0.00     0.272 C 
HETATM   15  C22 LIG X 999      41.430 124.151  24.187  1.00  0.00     0.278 C 
ENDROOT
BRANCH   1  16
HETATM   16  N2  LIG X 999      44.206 125.390  24.476  1.00  0.00    -0.307 N 
HETATM   17  C8  LIG X 999      45.007 124.890  23.398  1.00  0.00     0.321 C 
HETATM   18  N1  LIG X 999      46.195 124.139  23.688  1.00  0.00    -0.338 N 
HETATM   19  O1  LIG X 999      44.657 125.091  22.203  1.00  0.00    -0.247 OA
HETATM   20  H10 LIG X 999      46.476 124.024  24.689  1.00  0.00     0.164 HD
HETATM   21  H11 LIG X 999      44.412 125.067  25.447  1.00  0.00     0.170 HD
BRANCH  18  22
HETATM   22  C2  LIG X 999      47.090 123.621  22.649  1.00  0.00     0.086 C 
HETATM   23  C1  LIG X 999      46.464 122.379  22.013  1.00  0.00     0.032 C 
BRANCH  22  24
HETATM   24  C3  LIG X 999      48.463 123.285  23.253  1.00  0.00     0.071 C 
BRANCH  24  25
HETATM   25  C4  LIG X 999      49.562 124.022  22.552  1.00  0.00    -0.016 A 
HETATM   26  C5  LIG X 999      50.095 125.248  22.933  1.00  0.00     0.015 A 
HETATM   27  C6  LIG X 999      51.083 125.712  22.057  1.00  0.00     0.008 A 
HETATM   28  C7  LIG X 999      51.317 124.867  20.980  1.00  0.00     0.050 A 
HETATM   29  S1  LIG X 999      50.296 123.538  21.118  1.00  0.00    -0.106 SA
ENDBRANCH  24  25
ENDBRANCH  22  24
ENDBRANCH  18  22
ENDBRANCH   1  16
TORSDOF 4
ENDMDL
MODEL 6
REMARK VINA RESULT:      -4.3      3.296      5.553
REMARK  4 active torsions:
REMARK  status: ('A' for Active; 'I' for Inactive)
REMARK    1  A    between atoms: C2_2  and  C3_3 
REMARK    2  A    between atoms: C2_2  and  N1_9 
REMARK    3  A    between atoms: C3_3  and  C4_4 
REMARK       I    between atoms: N1_9  and  C8_10 
REMARK       I    between atoms: C8_10  and  N2_12 
REMARK    4  A    between atoms: N2_12  and  C9_13 
ROOT
HETATM    1  C9  LIG X 999      44.982 129.121  22.261  1.00  0.00     0.056 A 
HETATM    2  C10 LIG X 999      44.878 127.802  22.728  1.00  0.00     0.003 A 
HETATM    3  C11 LIG X 999      44.056 127.475  23.765  1.00  0.00    -0.021 A 
HETATM    4  C12 LIG X 999      43.288 128.432  24.423  1.00  0.00     0.022 A 
HETATM    5  C13 LIG X 999      43.356 129.769  23.989  1.00  0.00    -0.023 A 
HETATM    6  C14 LIG X 999      42.589 130.756  24.625  1.00  0.00     0.012 A 
HETATM    7  C15 LIG X 999      42.656 132.083  24.196  1.00  0.00     0.001 A 
HETATM    8  C16 LIG X 999      43.487 132.438  23.133  1.00  0.00     0.001 A 
HETATM    9  C17 LIG X 999      44.259 131.469  22.485  1.00  0.00     0.014 A 
HETATM   10  C18 LIG X 999      44.204 130.123  22.897  1.00  0.00     0.002 A 
HETATM   11  C19 LIG X 999      44.105 126.022  24.033  1.00  0.00     0.276 C 
HETATM   12  N3  LIG X 999      44.880 125.433  22.898  1.00  0.00    -0.067 N 
HETATM   13  C20 LIG X 999      43.963 124.738  21.963  1.00  0.00     0.272 C 
HETATM   14  C21 LIG X 999      45.884 124.465  23.396  1.00  0.00     0.272 C 
HETATM   15  C22 LIG X 999      45.541 126.582  22.204  1.00  0.00     0.278 C 
ENDROOT
BRANCH   1  16
HETATM   16  N2  LIG X 999      45.810 129.429  21.131  1.00  0.00    -0.307 N 
HETATM   17  C8  LIG X 999      45.286 130.020  19.935  1.00  0.00     0.321 C 
HETATM   18  N1  LIG X 999      46.177 130.354  18.861  1.00  0.00    -0.338 N 
HETATM   19  O1  LIG X 999      44.046 130.225  19.821  1.00  0.00    -0.247 OA
HETATM   20  H10 LIG X 999      47.202 130.207  19.004  1.00  0.00     0.164 HD
HETATM   21  H11 LIG X 999      46.804 129.107  21.138  1.00  0.00     0.170 HD
BRANCH  18  22
HETATM   22  C2  LIG X 999      45.731 130.993  17.619  1.00  0.00     0.086 C 
HETATM   23  C1  LIG X 999      44.439 131.768  17.882  1.00  0.00     0.032 C 
BRANCH  22  24
HETATM   24  C3  LIG X 999      45.513 129.932  16.528  1.00  0.00     0.071 C 
BRANCH  24  25
HETATM   25  C4  LIG X 999      46.344 130.220  15.314  1.00  0.00    -0.016 A 
HETATM   26  C5  LIG X 999      47.203 129.329  14.684  1.00  0.00     0.015 A 
HETATM   27  C6  LIG X 999      47.880 129.895  13.598  1.00  0.00     0.008 A 
HETATM   28  C7  LIG X 999      47.571 131.232  13.382  1.00  0.00     0.050 A 
HETATM   29  S1  LIG X 999      46.452 131.710  14.542  1.00  0.00    -0.106 SA
ENDBRANCH  24  25
ENDBRANCH  22  24
ENDBRANCH  18  22
ENDBRANCH   1  16
TORSDOF 4
ENDMDL
MODEL 7
REMARK VINA RESULT:      -4.1      5.299      8.285
REMARK  4 active torsions:
REMARK  status: ('A' for Active; 'I' for Inactive)
REMARK    1  A    between atoms: C2_2  and  C3_3 
REMARK    2  A    between atoms: C2_2  and  N1_9 
REMARK    3  A    between atoms: C3_3  and  C4_4 
REMARK       I    between atoms: N1_9  and  C8_10 
REMARK       I    between atoms: C8_10  and  N2_12 
REMARK    4  A    between atoms: N2_12  and  C9_13 
ROOT
HETATM    1  C9  LIG X 999      45.183 131.856  20.521  1.00  0.00     0.056 A 
HETATM    2  C10 LIG X 999      44.180 131.827  21.501  1.00  0.00     0.003 A 
HETATM    3  C11 LIG X 999      42.862 131.723  21.171  1.00  0.00    -0.021 A 
HETATM    4  C12 LIG X 999      42.441 131.654  19.845  1.00  0.00     0.022 A 
HETATM    5  C13 LIG X 999      43.410 131.676  18.826  1.00  0.00    -0.023 A 
HETATM    6  C14 LIG X 999      43.020 131.599  17.480  1.00  0.00     0.012 A 
HETATM    7  C15 LIG X 999      43.980 131.621  16.467  1.00  0.00     0.001 A 
HETATM    8  C16 LIG X 999      45.335 131.722  16.785  1.00  0.00     0.001 A 
HETATM    9  C17 LIG X 999      45.745 131.798  18.119  1.00  0.00     0.014 A 
HETATM   10  C18 LIG X 999      44.795 131.772  19.158  1.00  0.00     0.002 A 
HETATM   11  C19 LIG X 999      42.020 131.680  22.385  1.00  0.00     0.276 C 
HETATM   12  N3  LIG X 999      42.975 131.537  23.528  1.00  0.00    -0.067 N 
HETATM   13  C20 LIG X 999      42.945 130.147  24.043  1.00  0.00     0.272 C 
HETATM   14  C21 LIG X 999      42.621 132.466  24.624  1.00  0.00     0.272 C 
HETATM   15  C22 LIG X 999      44.331 131.847  22.978  1.00  0.00     0.278 C 
ENDROOT
BRANCH   1  16
HETATM   16  N2  LIG X 999      46.566 131.905  20.897  1.00  0.00    -0.307 N 
HETATM   17  C8  LIG X 999      47.164 133.075  21.470  1.00  0.00     0.321 C 
HETATM   18  N1  LIG X 999      48.539 133.042  21.875  1.00  0.00    -0.338 N 
HETATM   19  O1  LIG X 999      46.489 134.134  21.594  1.00  0.00    -0.247 OA
HETATM   20  H10 LIG X 999      49.058 132.137  21.794  1.00  0.00     0.164 HD
HETATM   21  H11 LIG X 999      47.182 131.101  20.640  1.00  0.00     0.170 HD
BRANCH  18  22
HETATM   22  C2  LIG X 999      49.219 134.180  22.501  1.00  0.00     0.086 C 
HETATM   23  C1  LIG X 999      48.605 134.445  23.877  1.00  0.00     0.032 C 
BRANCH  22  24
HETATM   24  C3  LIG X 999      49.098 135.425  21.607  1.00  0.00     0.071 C 
BRANCH  24  25
HETATM   25  C4  LIG X 999      50.180 136.417  21.904  1.00  0.00    -0.016 A 
HETATM   26  C5  LIG X 999      50.190 137.753  21.519  1.00  0.00     0.015 A 
HETATM   27  C6  LIG X 999      51.357 138.424  21.902  1.00  0.00     0.008 A 
HETATM   28  C7  LIG X 999      52.271 137.620  22.569  1.00  0.00     0.050 A 
HETATM   29  S1  LIG X 999      51.628 136.071  22.686  1.00  0.00    -0.106 SA
ENDBRANCH  24  25
ENDBRANCH  22  24
ENDBRANCH  18  22
ENDBRANCH   1  16
TORSDOF 4
ENDMDL
MODEL 8
REMARK VINA RESULT:      -3.9      5.031      7.731
REMARK  4 active torsions:
REMARK  status: ('A' for Active; 'I' for Inactive)
REMARK    1  A    between atoms: C2_2  and  C3_3 
REMARK    2  A    between atoms: C2_2  and  N1_9 
REMARK    3  A    between atoms: C3_3  and  C4_4 
REMARK       I    between atoms: N1_9  and  C8_10 
REMARK       I    between atoms: C8_10  and  N2_12 
REMARK    4  A    between atoms: N2_12  and  C9_13 
ROOT
HETATM    1  C9  LIG X 999      45.590 131.725  21.821  1.00  0.00     0.056 A 
HETATM    2  C10 LIG X 999      46.403 132.788  22.241  1.00  0.00     0.003 A 
HETATM    3  C11 LIG X 999      46.146 133.473  23.391  1.00  0.00    -0.021 A 
HETATM    4  C12 LIG X 999      45.057 133.164  24.201  1.00  0.00     0.022 A 
HETATM    5  C13 LIG X 999      44.213 132.103  23.824  1.00  0.00    -0.023 A 
HETATM    6  C14 LIG X 999      43.112 131.759  24.622  1.00  0.00     0.012 A 
HETATM    7  C15 LIG X 999      42.274 130.707  24.249  1.00  0.00     0.001 A 
HETATM    8  C16 LIG X 999      42.523 129.990  23.079  1.00  0.00     0.001 A 
HETATM    9  C17 LIG X 999      43.615 130.315  22.270  1.00  0.00     0.014 A 
HETATM   10  C18 LIG X 999      44.478 131.369  22.628  1.00  0.00     0.002 A 
HETATM   11  C19 LIG X 999      47.168 134.516  23.619  1.00  0.00     0.276 C 
HETATM   12  N3  LIG X 999      48.233 134.261  22.600  1.00  0.00    -0.067 N 
HETATM   13  C20 LIG X 999      49.416 133.643  23.244  1.00  0.00     0.272 C 
HETATM   14  C21 LIG X 999      48.645 135.524  21.946  1.00  0.00     0.272 C 
HETATM   15  C22 LIG X 999      47.639 133.312  21.607  1.00  0.00     0.278 C 
ENDROOT
BRANCH   1  16
HETATM   16  N2  LIG X 999      45.917 130.982  20.639  1.00  0.00    -0.307 N 
HETATM   17  C8  LIG X 999      45.390 131.320  19.350  1.00  0.00     0.321 C 
HETATM   18  N1  LIG X 999      45.800 130.571  18.198  1.00  0.00    -0.338 N 
HETATM   19  O1  LIG X 999      44.553 132.258  19.235  1.00  0.00    -0.247 OA
HETATM   20  H10 LIG X 999      46.525 129.827  18.323  1.00  0.00     0.164 HD
HETATM   21  H11 LIG X 999      46.467 130.100  20.741  1.00  0.00     0.170 HD
BRANCH  18  22
HETATM   22  C2  LIG X 999      45.338 130.871  16.839  1.00  0.00     0.086 C 
HETATM   23  C1  LIG X 999      43.864 131.279  16.883  1.00  0.00     0.032 C 
BRANCH  22  24
HETATM   24  C3  LIG X 999      45.533 129.646  15.932  1.00  0.00     0.071 C 
BRANCH  24  25
HETATM   25  C4  LIG X 999      46.487 129.941  14.815  1.00  0.00    -0.016 A 
HETATM   26  C5  LIG X 999      47.550 129.139  14.417  1.00  0.00     0.015 A 
HETATM   27  C6  LIG X 999      48.295 129.696  13.372  1.00  0.00     0.008 A 
HETATM   28  C7  LIG X 999      47.835 130.939  12.958  1.00  0.00     0.050 A 
HETATM   29  S1  LIG X 999      46.497 131.346  13.892  1.00  0.00    -0.106 SA
ENDBRANCH  24  25
ENDBRANCH  22  24
ENDBRANCH  18  22
ENDBRANCH   1  16
TORSDOF 4
ENDMDL
MODEL 9
REMARK VINA RESULT:      -3.8      3.349      6.192
REMARK  4 active torsions:
REMARK  status: ('A' for Active; 'I' for Inactive)
REMARK    1  A    between atoms: C2_2  and  C3_3 
REMARK    2  A    between atoms: C2_2  and  N1_9 
REMARK    3  A    between atoms: C3_3  and  C4_4 
REMARK       I    between atoms: N1_9  and  C8_10 
REMARK       I    between atoms: C8_10  and  N2_12 
REMARK    4  A    between atoms: N2_12  and  C9_13 
ROOT
HETATM    1  C9  LIG X 999      44.997 129.043  22.132  1.00  0.00     0.056 A 
HETATM    2  C10 LIG X 999      44.076 129.888  22.768  1.00  0.00     0.003 A 
HETATM    3  C11 LIG X 999      43.282 129.443  23.784  1.00  0.00    -0.021 A 
HETATM    4  C12 LIG X 999      43.334 128.127  24.232  1.00  0.00     0.022 A 
HETATM    5  C13 LIG X 999      44.243 127.241  23.627  1.00  0.00    -0.023 A 
HETATM    6  C14 LIG X 999      44.327 125.909  24.062  1.00  0.00     0.012 A 
HETATM    7  C15 LIG X 999      45.229 125.029  23.462  1.00  0.00     0.001 A 
HETATM    8  C16 LIG X 999      46.054 125.466  22.425  1.00  0.00     0.001 A 
HETATM    9  C17 LIG X 999      45.988 126.788  21.978  1.00  0.00     0.014 A 
HETATM   10  C18 LIG X 999      45.089 127.696  22.571  1.00  0.00     0.002 A 
HETATM   11  C19 LIG X 999      42.432 130.537  24.300  1.00  0.00     0.276 C 
HETATM   12  N3  LIG X 999      42.943 131.782  23.648  1.00  0.00    -0.067 N 
HETATM   13  C20 LIG X 999      43.725 132.581  24.622  1.00  0.00     0.272 C 
HETATM   14  C21 LIG X 999      41.823 132.605  23.139  1.00  0.00     0.272 C 
HETATM   15  C22 LIG X 999      43.830 131.332  22.530  1.00  0.00     0.278 C 
ENDROOT
BRANCH   1  16
HETATM   16  N2  LIG X 999      45.861 129.550  21.107  1.00  0.00    -0.307 N 
HETATM   17  C8  LIG X 999      45.362 130.047  19.859  1.00  0.00     0.321 C 
HETATM   18  N1  LIG X 999      46.277 130.592  18.897  1.00  0.00    -0.338 N 
HETATM   19  O1  LIG X 999      44.129 129.983  19.600  1.00  0.00    -0.247 OA
HETATM   20  H10 LIG X 999      47.286 130.666  19.159  1.00  0.00     0.164 HD
HETATM   21  H11 LIG X 999      46.894 129.450  21.230  1.00  0.00     0.170 HD
BRANCH  18  22
HETATM   22  C2  LIG X 999      45.848 131.153  17.611  1.00  0.00     0.086 C 
HETATM   23  C1  LIG X 999      44.530 131.906  17.800  1.00  0.00     0.032 C 
BRANCH  22  24
HETATM   24  C3  LIG X 999      45.686 130.031  16.573  1.00  0.00     0.071 C 
BRANCH  24  25
HETATM   25  C4  LIG X 999      46.493 130.308  15.341  1.00  0.00    -0.016 A 
HETATM   26  C5  LIG X 999      46.535 131.512  14.648  1.00  0.00     0.015 A 
HETATM   27  C6  LIG X 999      47.344 131.458  13.507  1.00  0.00     0.008 A 
HETATM   28  C7  LIG X 999      47.924 130.215  13.290  1.00  0.00     0.050 A 
HETATM   29  S1  LIG X 999      47.431 129.180  14.520  1.00  0.00    -0.106 SA
ENDBRANCH  24  25
ENDBRANCH  22  24
ENDBRANCH  18  22
ENDBRANCH   1  16
TORSDOF 4
ENDMDL
