REMARK VINA RESULT:      -6.6      1.294      1.772
REMARK  4 active torsions:
REMARK  status: ('A' for Active; 'I' for Inactive)
REMARK    1  A    between atoms: C1_1  and  C2_6 
REMARK    2  A    between atoms: N1_2  and  N2_3 
REMARK    3  A    between atoms: C2_6  and  C3_8 
REMARK    4  A    between atoms: C11_16  and  N4_17 
ROOT
HETATM    1  N4  LIG X 999      43.161 131.858  16.951  1.00  0.00    -0.105 NA
HETATM    2  N5  LIG X 999      42.349 132.025  17.862  1.00  0.00    -0.167 NA
HETATM    3  N6  LIG X 999      41.537 132.192  18.771  1.00  0.00     0.068 N 
ENDROOT
BRANCH   1   4
HETATM    4  C11 LIG X 999      44.568 132.221  17.107  1.00  0.00     0.179 C 
HETATM    5  C10 LIG X 999      45.430 131.380  16.182  1.00  0.00    -0.024 A 
HETATM    6  C5  LIG X 999      46.123 130.233  16.648  1.00  0.00    -0.049 A 
HETATM    7  C9  LIG X 999      45.478 131.700  14.814  1.00  0.00     0.010 A 
HETATM    8  C4  LIG X 999      46.214 129.907  18.121  1.00  0.00     0.051 C 
HETATM    9  C6  LIG X 999      46.855 129.452  15.740  1.00  0.00     0.007 A 
HETATM   10  C3  LIG X 999      45.088 130.560  18.942  1.00  0.00     0.068 C 
HETATM   11  C12 LIG X 999      44.972 132.049  18.579  1.00  0.00     0.048 C 
HETATM   12  C7  LIG X 999      46.884 129.781  14.384  1.00  0.00     0.001 A 
HETATM   13  C8  LIG X 999      46.199 130.904  13.922  1.00  0.00     0.001 A 
BRANCH  10  14
HETATM   14  C2  LIG X 999      45.321 130.402  20.429  1.00  0.00     0.172 C 
HETATM   15  O1  LIG X 999      46.193 129.591  20.845  1.00  0.00    -0.291 OA
BRANCH  14  16
HETATM   16  C1  LIG X 999      44.603 131.225  21.418  1.00  0.00     0.190 C 
HETATM   17  N1  LIG X 999      43.337 131.052  21.637  1.00  0.00    -0.165 NA
BRANCH  17  18
HETATM   18  N2  LIG X 999      42.636 131.835  22.567  1.00  0.00    -0.177 N 
HETATM   19  H2  LIG X 999      41.941 132.548  22.254  1.00  0.00     0.214 HD
HETATM   20  N3  LIG X 999      42.838 131.665  23.808  1.00  0.00    -0.031 N 
ENDBRANCH  17  18
ENDBRANCH  14  16
ENDBRANCH  10  14
ENDBRANCH   1   4
TORSDOF 4
