REMARK VINA RESULT:      -7.3      1.222      2.338
REMARK  2 active torsions:
REMARK  status: ('A' for Active; 'I' for Inactive)
REMARK    1  A    between atoms: O1_2  and  C2_3 
REMARK    2  A    between atoms: C11_12  and  N1_13 
ROOT
HETATM    1  C2  LIG X 999      45.610 130.962  16.754  1.00  0.00     0.095 A 
HETATM    2  C3  LIG X 999      45.952 130.651  18.084  1.00  0.00     0.051 A 
HETATM    3  C4  LIG X 999      45.069 130.937  19.134  1.00  0.00    -0.023 A 
HETATM    4  C5  LIG X 999      45.411 130.623  20.464  1.00  0.00     0.021 A 
HETATM    5  C6  LIG X 999      44.503 130.931  21.479  1.00  0.00    -0.024 A 
HETATM    6  C7  LIG X 999      43.304 131.516  21.208  1.00  0.00    -0.024 A 
HETATM    7  C8  LIG X 999      42.924 131.837  19.903  1.00  0.00     0.021 A 
HETATM    8  C9  LIG X 999      43.817 131.549  18.852  1.00  0.00    -0.023 A 
HETATM    9  C10 LIG X 999      43.481 131.856  17.528  1.00  0.00     0.044 A 
HETATM   10  C11 LIG X 999      44.368 131.568  16.481  1.00  0.00     0.060 A 
HETATM   11  C12 LIG X 999      42.526 131.705  22.451  1.00  0.00     0.276 C 
HETATM   12  N2  LIG X 999      43.446 131.316  23.566  1.00  0.00    -0.067 N 
HETATM   13  C13 LIG X 999      43.863 132.520  24.323  1.00  0.00     0.272 C 
HETATM   14  C14 LIG X 999      42.777 130.372  24.491  1.00  0.00     0.272 C 
HETATM   15  C15 LIG X 999      44.640 130.674  22.928  1.00  0.00     0.276 C 
ENDROOT
BRANCH  10  16
HETATM   16  N1  LIG X 999      43.997 131.895  15.136  1.00  0.00    -0.397 N 
HETATM   17  H8  LIG X 999      43.186 131.437  14.667  1.00  0.00     0.156 HD
HETATM   18  H9  LIG X 999      44.536 132.608  14.594  1.00  0.00     0.156 HD
ENDBRANCH  10  16
BRANCH   1  19
HETATM   19  O1  LIG X 999      46.477 130.686  15.683  1.00  0.00    -0.354 OA
HETATM   20  C1  LIG X 999      46.441 129.498  14.898  1.00  0.00     0.210 C 
ENDBRANCH   1  19
TORSDOF 2
