REMARK VINA RESULT:      -9.0      0.000      0.000
REMARK  3 active torsions:
REMARK  status: ('A' for Active; 'I' for Inactive)
REMARK    1  A    between atoms: C3_3  and  O1_4 
REMARK    2  A    between atoms: O1_4  and  C4_5 
REMARK    3  A    between atoms: C5_7  and  C6_8 
ROOT
HETATM    1  C1  LIG X 999      47.622 131.002  13.002  1.00  0.00     0.014 C 
HETATM    2  C2  LIG X 999      47.017 130.433  13.876  1.00  0.00    -0.091 C 
HETATM    3  C3  LIG X 999      46.285 129.743  14.938  1.00  0.00     0.270 C 
ENDROOT
BRANCH   3   4
HETATM    4  O1  LIG X 999      45.847 130.695  15.898  1.00  0.00    -0.317 OA
BRANCH   4   5
HETATM    5  C4  LIG X 999      44.615 131.348  15.798  1.00  0.00     0.217 C 
HETATM    6  O2  LIG X 999      44.088 131.655  14.547  1.00  0.00    -0.164 OA
HETATM    7  C5  LIG X 999      43.940 131.704  16.895  1.00  0.00     0.079 C 
BRANCH   7   8
HETATM    8  C6  LIG X 999      44.410 131.412  18.271  1.00  0.00    -0.020 A 
HETATM    9  C7  LIG X 999      45.624 130.722  18.449  1.00  0.00     0.012 A 
HETATM   10  C8  LIG X 999      46.076 130.388  19.725  1.00  0.00     0.002 A 
HETATM   11  C9  LIG X 999      45.324 130.723  20.849  1.00  0.00     0.012 A 
HETATM   12  C10 LIG X 999      44.105 131.400  20.706  1.00  0.00    -0.025 A 
HETATM   13  C11 LIG X 999      43.352 131.732  21.842  1.00  0.00     0.012 A 
HETATM   14  C15 LIG X 999      43.634 131.752  19.411  1.00  0.00    -0.015 A 
HETATM   15  C12 LIG X 999      42.142 132.415  21.710  1.00  0.00     0.001 A 
HETATM   16  C13 LIG X 999      41.677 132.777  20.447  1.00  0.00     0.001 A 
HETATM   17  C14 LIG X 999      42.413 132.453  19.304  1.00  0.00     0.013 A 
ENDBRANCH   7   8
ENDBRANCH   4   5
ENDBRANCH   3   4
TORSDOF 3
