MODEL 1
REMARK VINA RESULT:      -8.2      0.000      0.000
REMARK  6 active torsions:
REMARK  status: ('A' for Active; 'I' for Inactive)
REMARK    1  A    between atoms: C2_2  and  C3_3 
REMARK    2  A    between atoms: C3_3  and  O1_4 
REMARK    3  A    between atoms: O1_4  and  C4_5 
REMARK    4  A    between atoms: C4_5  and  C6_7 
REMARK    5  A    between atoms: C6_7  and  C7_8 
REMARK       I    between atoms: N1_10  and  C9_11 
REMARK    6  A    between atoms: C9_11  and  C10_13 
ROOT
HETATM    1  C7  LIG X 999      44.650 131.315  21.440  1.00  0.00     0.043 A 
HETATM    2  C8  LIG X 999      43.823 131.614  20.377  1.00  0.00     0.144 A 
HETATM    3  N1  LIG X 999      44.534 131.359  19.260  1.00  0.00    -0.213 N 
HETATM    4  C9  LIG X 999      44.065 131.467  17.907  1.00  0.00     0.274 C 
HETATM    5  O2  LIG X 999      42.827 131.585  17.692  1.00  0.00    -0.266 OA
HETATM    6  N2  LIG X 999      45.730 130.910  19.616  1.00  0.00    -0.013 NA
HETATM    7  N3  LIG X 999      45.820 130.881  20.936  1.00  0.00    -0.286 N 
HETATM    8  H20 LIG X 999      46.661 130.572  21.470  1.00  0.00     0.184 HD
ENDROOT
BRANCH   4   9
HETATM    9  C10 LIG X 999      44.995 131.424  16.756  1.00  0.00     0.034 A 
HETATM   10  C11 LIG X 999      45.337 132.611  16.089  1.00  0.00     0.018 A 
HETATM   11  C12 LIG X 999      46.220 132.591  15.007  1.00  0.00     0.013 A 
HETATM   12  C13 LIG X 999      46.788 131.383  14.581  1.00  0.00    -0.026 A 
HETATM   13  C14 LIG X 999      47.676 131.352  13.495  1.00  0.00     0.012 A 
HETATM   14  C18 LIG X 999      46.463 130.182  15.256  1.00  0.00    -0.025 A 
HETATM   15  C15 LIG X 999      48.239 130.141  13.083  1.00  0.00     0.001 A 
HETATM   16  C16 LIG X 999      47.920 128.955  13.750  1.00  0.00     0.001 A 
HETATM   17  C17 LIG X 999      47.037 128.972  14.833  1.00  0.00     0.012 A 
HETATM   18  C19 LIG X 999      45.574 130.211  16.341  1.00  0.00     0.029 A 
ENDBRANCH   4   9
BRANCH   1  19
HETATM   19  C6  LIG X 999      44.314 131.390  22.901  1.00  0.00     0.091 C 
BRANCH  19  20
HETATM   20  C4  LIG X 999      44.152 130.000  23.551  1.00  0.00     0.123 C 
HETATM   21  C5  LIG X 999      42.696 129.727  23.936  1.00  0.00     0.040 C 
BRANCH  20  22
HETATM   22  O1  LIG X 999      44.583 128.978  22.664  1.00  0.00    -0.382 OA
BRANCH  22  23
HETATM   23  C3  LIG X 999      44.926 127.805  23.375  1.00  0.00     0.194 C 
BRANCH  23  24
HETATM   24  C2  LIG X 999      45.194 126.696  22.403  1.00  0.00    -0.011 C 
HETATM   25  C1  LIG X 999      46.341 126.012  22.420  1.00  0.00     0.009 C 
ENDBRANCH  23  24
ENDBRANCH  22  23
ENDBRANCH  20  22
ENDBRANCH  19  20
ENDBRANCH   1  19
TORSDOF 6
ENDMDL
MODEL 2
REMARK VINA RESULT:      -7.4      1.640      2.310
REMARK  6 active torsions:
REMARK  status: ('A' for Active; 'I' for Inactive)
REMARK    1  A    between atoms: C2_2  and  C3_3 
REMARK    2  A    between atoms: C3_3  and  O1_4 
REMARK    3  A    between atoms: O1_4  and  C4_5 
REMARK    4  A    between atoms: C4_5  and  C6_7 
REMARK    5  A    between atoms: C6_7  and  C7_8 
REMARK       I    between atoms: N1_10  and  C9_11 
REMARK    6  A    between atoms: C9_11  and  C10_13 
ROOT
HETATM    1  C7  LIG X 999      43.065 131.267  22.627  1.00  0.00     0.043 A 
HETATM    2  C8  LIG X 999      44.287 130.853  22.140  1.00  0.00     0.144 A 
HETATM    3  N1  LIG X 999      44.286 131.134  20.821  1.00  0.00    -0.213 N 
HETATM    4  C9  LIG X 999      45.374 130.933  19.905  1.00  0.00     0.274 C 
HETATM    5  O2  LIG X 999      46.525 130.690  20.360  1.00  0.00    -0.266 OA
HETATM    6  N2  LIG X 999      43.130 131.707  20.515  1.00  0.00    -0.013 NA
HETATM    7  N3  LIG X 999      42.374 131.792  21.598  1.00  0.00    -0.286 N 
HETATM    8  H20 LIG X 999      41.414 132.199  21.625  1.00  0.00     0.184 HD
ENDROOT
BRANCH   4   9
HETATM    9  C10 LIG X 999      45.181 131.023  18.440  1.00  0.00     0.034 A 
HETATM   10  C11 LIG X 999      44.021 131.623  17.923  1.00  0.00     0.018 A 
HETATM   11  C12 LIG X 999      43.827 131.725  16.543  1.00  0.00     0.013 A 
HETATM   12  C13 LIG X 999      44.796 131.240  15.655  1.00  0.00    -0.026 A 
HETATM   13  C14 LIG X 999      44.611 131.338  14.268  1.00  0.00     0.012 A 
HETATM   14  C18 LIG X 999      45.977 130.648  16.165  1.00  0.00    -0.025 A 
HETATM   15  C15 LIG X 999      45.588 130.854  13.393  1.00  0.00     0.001 A 
HETATM   16  C16 LIG X 999      46.754 130.271  13.896  1.00  0.00     0.001 A 
HETATM   17  C17 LIG X 999      46.952 130.168  15.276  1.00  0.00     0.012 A 
HETATM   18  C19 LIG X 999      46.163 130.549  17.552  1.00  0.00     0.029 A 
ENDBRANCH   4   9
BRANCH   1  19
HETATM   19  C6  LIG X 999      42.588 131.214  24.049  1.00  0.00     0.091 C 
BRANCH  19  20
HETATM   20  C4  LIG X 999      42.490 129.774  24.595  1.00  0.00     0.123 C 
HETATM   21  C5  LIG X 999      41.557 128.913  23.740  1.00  0.00     0.040 C 
BRANCH  20  22
HETATM   22  O1  LIG X 999      43.770 129.161  24.625  1.00  0.00    -0.382 OA
BRANCH  22  23
HETATM   23  C3  LIG X 999      43.734 127.891  24.004  1.00  0.00     0.194 C 
BRANCH  23  24
HETATM   24  C2  LIG X 999      45.093 127.565  23.461  1.00  0.00    -0.011 C 
HETATM   25  C1  LIG X 999      45.260 126.679  22.475  1.00  0.00     0.009 C 
ENDBRANCH  23  24
ENDBRANCH  22  23
ENDBRANCH  20  22
ENDBRANCH  19  20
ENDBRANCH   1  19
TORSDOF 6
ENDMDL
MODEL 3
REMARK VINA RESULT:      -7.2      1.727      7.845
REMARK  6 active torsions:
REMARK  status: ('A' for Active; 'I' for Inactive)
REMARK    1  A    between atoms: C2_2  and  C3_3 
REMARK    2  A    between atoms: C3_3  and  O1_4 
REMARK    3  A    between atoms: O1_4  and  C4_5 
REMARK    4  A    between atoms: C4_5  and  C6_7 
REMARK    5  A    between atoms: C6_7  and  C7_8 
REMARK       I    between atoms: N1_10  and  C9_11 
REMARK    6  A    between atoms: C9_11  and  C10_13 
ROOT
HETATM    1  C7  LIG X 999      45.464 131.427  17.101  1.00  0.00     0.043 A 
HETATM    2  C8  LIG X 999      44.647 131.950  18.081  1.00  0.00     0.144 A 
HETATM    3  N1  LIG X 999      44.863 131.212  19.189  1.00  0.00    -0.213 N 
HETATM    4  C9  LIG X 999      44.275 131.424  20.482  1.00  0.00     0.274 C 
HETATM    5  O2  LIG X 999      43.678 132.510  20.717  1.00  0.00    -0.266 OA
HETATM    6  N2  LIG X 999      45.778 130.294  18.911  1.00  0.00    -0.013 NA
HETATM    7  N3  LIG X 999      46.151 130.405  17.646  1.00  0.00    -0.286 N 
HETATM    8  H20 LIG X 999      46.857 129.797  17.176  1.00  0.00     0.184 HD
ENDROOT
BRANCH   4   9
HETATM    9  C10 LIG X 999      44.369 130.407  21.554  1.00  0.00     0.034 A 
HETATM   10  C11 LIG X 999      43.743 130.634  22.790  1.00  0.00     0.018 A 
HETATM   11  C12 LIG X 999      43.813 129.682  23.810  1.00  0.00     0.013 A 
HETATM   12  C13 LIG X 999      44.502 128.479  23.607  1.00  0.00    -0.026 A 
HETATM   13  C14 LIG X 999      44.578 127.516  24.624  1.00  0.00     0.012 A 
HETATM   14  C18 LIG X 999      45.124 128.232  22.359  1.00  0.00    -0.025 A 
HETATM   15  C15 LIG X 999      45.264 126.318  24.407  1.00  0.00     0.001 A 
HETATM   16  C16 LIG X 999      45.877 126.073  23.175  1.00  0.00     0.001 A 
HETATM   17  C17 LIG X 999      45.808 127.023  22.153  1.00  0.00     0.012 A 
HETATM   18  C19 LIG X 999      45.049 129.194  21.341  1.00  0.00     0.029 A 
ENDBRANCH   4   9
BRANCH   1  19
HETATM   19  C6  LIG X 999      45.627 131.922  15.693  1.00  0.00     0.091 C 
BRANCH  19  20
HETATM   20  C4  LIG X 999      44.974 130.991  14.651  1.00  0.00     0.123 C 
HETATM   21  C5  LIG X 999      43.534 131.411  14.347  1.00  0.00     0.040 C 
BRANCH  20  22
HETATM   22  O1  LIG X 999      45.712 131.001  13.437  1.00  0.00    -0.382 OA
BRANCH  22  23
HETATM   23  C3  LIG X 999      47.055 131.377  13.667  1.00  0.00     0.194 C 
BRANCH  23  24
HETATM   24  C2  LIG X 999      47.957 130.228  13.330  1.00  0.00    -0.011 C 
HETATM   25  C1  LIG X 999      47.965 129.106  14.056  1.00  0.00     0.009 C 
ENDBRANCH  23  24
ENDBRANCH  22  23
ENDBRANCH  20  22
ENDBRANCH  19  20
ENDBRANCH   1  19
TORSDOF 6
ENDMDL
MODEL 4
REMARK VINA RESULT:      -5.4      1.714      2.107
REMARK  6 active torsions:
REMARK  status: ('A' for Active; 'I' for Inactive)
REMARK    1  A    between atoms: C2_2  and  C3_3 
REMARK    2  A    between atoms: C3_3  and  O1_4 
REMARK    3  A    between atoms: O1_4  and  C4_5 
REMARK    4  A    between atoms: C4_5  and  C6_7 
REMARK    5  A    between atoms: C6_7  and  C7_8 
REMARK       I    between atoms: N1_10  and  C9_11 
REMARK    6  A    between atoms: C9_11  and  C10_13 
ROOT
HETATM    1  C7  LIG X 999      42.898 131.936  20.903  1.00  0.00     0.043 A 
HETATM    2  C8  LIG X 999      43.864 130.981  20.660  1.00  0.00     0.144 A 
HETATM    3  N1  LIG X 999      44.370 131.255  19.441  1.00  0.00    -0.213 N 
HETATM    4  C9  LIG X 999      45.445 130.562  18.789  1.00  0.00     0.274 C 
HETATM    5  O2  LIG X 999      46.165 129.771  19.459  1.00  0.00    -0.266 OA
HETATM    6  N2  LIG X 999      43.760 132.332  18.965  1.00  0.00    -0.013 NA
HETATM    7  N3  LIG X 999      42.859 132.756  19.837  1.00  0.00    -0.286 N 
HETATM    8  H20 LIG X 999      42.241 133.585  19.700  1.00  0.00     0.184 HD
ENDROOT
BRANCH   4   9
HETATM    9  C10 LIG X 999      45.744 130.767  17.353  1.00  0.00     0.034 A 
HETATM   10  C11 LIG X 999      45.107 131.801  16.648  1.00  0.00     0.018 A 
HETATM   11  C12 LIG X 999      45.383 132.015  15.295  1.00  0.00     0.013 A 
HETATM   12  C13 LIG X 999      46.311 131.206  14.627  1.00  0.00    -0.026 A 
HETATM   13  C14 LIG X 999      46.596 131.413  13.269  1.00  0.00     0.012 A 
HETATM   14  C18 LIG X 999      46.971 130.170  15.332  1.00  0.00    -0.025 A 
HETATM   15  C15 LIG X 999      47.527 130.602  12.615  1.00  0.00     0.001 A 
HETATM   16  C16 LIG X 999      48.180 129.580  13.310  1.00  0.00     0.001 A 
HETATM   17  C17 LIG X 999      47.906 129.364  14.664  1.00  0.00     0.012 A 
HETATM   18  C19 LIG X 999      46.687 129.962  16.690  1.00  0.00     0.029 A 
ENDBRANCH   4   9
BRANCH   1  19
HETATM   19  C6  LIG X 999      42.069 132.095  22.145  1.00  0.00     0.091 C 
BRANCH  19  20
HETATM   20  C4  LIG X 999      42.916 132.105  23.434  1.00  0.00     0.123 C 
HETATM   21  C5  LIG X 999      42.131 131.548  24.625  1.00  0.00     0.040 C 
BRANCH  20  22
HETATM   22  O1  LIG X 999      44.093 131.328  23.267  1.00  0.00    -0.382 OA
BRANCH  22  23
HETATM   23  C3  LIG X 999      44.256 130.422  24.340  1.00  0.00     0.194 C 
BRANCH  23  24
HETATM   24  C2  LIG X 999      44.542 129.055  23.797  1.00  0.00    -0.011 C 
HETATM   25  C1  LIG X 999      43.559 128.209  23.474  1.00  0.00     0.009 C 
ENDBRANCH  23  24
ENDBRANCH  22  23
ENDBRANCH  20  22
ENDBRANCH  19  20
ENDBRANCH   1  19
TORSDOF 6
ENDMDL
MODEL 5
REMARK VINA RESULT:      -5.2      2.089      8.505
REMARK  6 active torsions:
REMARK  status: ('A' for Active; 'I' for Inactive)
REMARK    1  A    between atoms: C2_2  and  C3_3 
REMARK    2  A    between atoms: C3_3  and  O1_4 
REMARK    3  A    between atoms: O1_4  and  C4_5 
REMARK    4  A    between atoms: C4_5  and  C6_7 
REMARK    5  A    between atoms: C6_7  and  C7_8 
REMARK       I    between atoms: N1_10  and  C9_11 
REMARK    6  A    between atoms: C9_11  and  C10_13 
ROOT
HETATM    1  C7  LIG X 999      44.918 130.660  20.679  1.00  0.00     0.043 A 
HETATM    2  C8  LIG X 999      44.257 130.431  21.868  1.00  0.00     0.144 A 
HETATM    3  N1  LIG X 999      44.695 129.239  22.321  1.00  0.00    -0.213 N 
HETATM    4  C9  LIG X 999      44.329 128.611  23.560  1.00  0.00     0.274 C 
HETATM    5  O2  LIG X 999      43.731 129.288  24.441  1.00  0.00    -0.266 OA
HETATM    6  N2  LIG X 999      45.591 128.767  21.465  1.00  0.00    -0.013 NA
HETATM    7  N3  LIG X 999      45.736 129.614  20.459  1.00  0.00    -0.286 N 
HETATM    8  H20 LIG X 999      46.378 129.473  19.649  1.00  0.00     0.184 HD
ENDROOT
BRANCH   4   9
HETATM    9  C10 LIG X 999      44.653 127.193  23.838  1.00  0.00     0.034 A 
HETATM   10  C11 LIG X 999      43.618 126.268  24.048  1.00  0.00     0.018 A 
HETATM   11  C12 LIG X 999      43.905 124.924  24.303  1.00  0.00     0.013 A 
HETATM   12  C13 LIG X 999      45.233 124.481  24.340  1.00  0.00    -0.026 A 
HETATM   13  C14 LIG X 999      45.532 123.133  24.595  1.00  0.00     0.012 A 
HETATM   14  C18 LIG X 999      46.284 125.402  24.114  1.00  0.00    -0.025 A 
HETATM   15  C15 LIG X 999      46.861 122.703  24.624  1.00  0.00     0.001 A 
HETATM   16  C16 LIG X 999      47.899 123.611  24.400  1.00  0.00     0.001 A 
HETATM   17  C17 LIG X 999      47.616 124.956  24.145  1.00  0.00     0.012 A 
HETATM   18  C19 LIG X 999      45.987 126.749  23.860  1.00  0.00     0.029 A 
ENDBRANCH   4   9
BRANCH   1  19
HETATM   19  C6  LIG X 999      44.813 131.873  19.800  1.00  0.00     0.091 C 
BRANCH  19  20
HETATM   20  C4  LIG X 999      44.232 131.555  18.407  1.00  0.00     0.123 C 
HETATM   21  C5  LIG X 999      42.810 132.102  18.255  1.00  0.00     0.040 C 
BRANCH  20  22
HETATM   22  O1  LIG X 999      45.043 132.116  17.385  1.00  0.00    -0.382 OA
BRANCH  22  23
HETATM   23  C3  LIG X 999      45.509 131.114  16.504  1.00  0.00     0.194 C 
BRANCH  23  24
HETATM   24  C2  LIG X 999      45.981 131.751  15.232  1.00  0.00    -0.011 C 
HETATM   25  C1  LIG X 999      46.343 131.019  14.175  1.00  0.00     0.009 C 
ENDBRANCH  23  24
ENDBRANCH  22  23
ENDBRANCH  20  22
ENDBRANCH  19  20
ENDBRANCH   1  19
TORSDOF 6
ENDMDL
