REMARK VINA RESULT:      -5.7      1.808      2.579
REMARK  3 active torsions:
REMARK  status: ('A' for Active; 'I' for Inactive)
REMARK    1  A    between atoms: C3_3  and  S1_4 
REMARK    2  A    between atoms: S1_4  and  C4_7 
REMARK    3  A    between atoms: C6_9  and  N1_10 
ROOT
HETATM    1  C1  LIG X 999      43.178 131.576  21.850  1.00  0.00     0.013 C 
HETATM    2  C2  LIG X 999      42.975 130.630  22.570  1.00  0.00    -0.102 C 
HETATM    3  C3  LIG X 999      42.734 129.482  23.446  1.00  0.00     0.238 C 
ENDROOT
BRANCH   3   4
HETATM    4  S1  LIG X 999      44.116 128.357  23.370  1.00  0.00     0.186 S 
HETATM    5  O1  LIG X 999      44.997 128.698  22.200  1.00  0.00    -0.222 OA
HETATM    6  O2  LIG X 999      44.930 128.519  24.625  1.00  0.00    -0.222 OA
BRANCH   4   7
HETATM    7  C4  LIG X 999      43.541 126.681  23.229  1.00  0.00     0.073 A 
HETATM    8  C5  LIG X 999      42.183 126.429  23.479  1.00  0.00     0.058 A 
HETATM    9  C6  LIG X 999      41.651 125.133  23.378  1.00  0.00     0.095 A 
HETATM   10  C7  LIG X 999      42.485 124.074  23.020  1.00  0.00     0.046 A 
HETATM   11  C8  LIG X 999      43.842 124.291  22.754  1.00  0.00    -0.021 A 
HETATM   12  C9  LIG X 999      44.661 123.206  22.382  1.00  0.00     0.022 A 
HETATM   13  C13 LIG X 999      44.390 125.607  22.853  1.00  0.00    -0.004 A 
HETATM   14  C10 LIG X 999      46.008 123.442  22.119  1.00  0.00    -0.024 A 
HETATM   15  C11 LIG X 999      46.539 124.689  22.204  1.00  0.00    -0.024 A 
HETATM   16  C17 LIG X 999      47.033 122.467  21.691  1.00  0.00     0.276 C 
HETATM   17  C12 LIG X 999      45.765 125.792  22.563  1.00  0.00     0.023 A 
HETATM   18  C14 LIG X 999      47.973 124.669  21.842  1.00  0.00     0.276 C 
HETATM   19  N4  LIG X 999      48.326 123.224  21.670  1.00  0.00    -0.067 N 
HETATM   20  C15 LIG X 999      49.192 122.776  22.787  1.00  0.00     0.272 C 
HETATM   21  C16 LIG X 999      49.039 123.007  20.391  1.00  0.00     0.272 C 
BRANCH   9  22
HETATM   22  N1  LIG X 999      40.266 124.862  23.631  1.00  0.00    -0.073 NA
HETATM   23  N2  LIG X 999      39.765 123.753  23.440  1.00  0.00    -0.162 NA
HETATM   24  N3  LIG X 999      39.262 122.647  23.248  1.00  0.00     0.068 N 
ENDBRANCH   9  22
ENDBRANCH   4   7
ENDBRANCH   3   4
TORSDOF 3
