REMARK VINA RESULT:      -5.6      4.360      6.149
REMARK  3 active torsions:
REMARK  status: ('A' for Active; 'I' for Inactive)
REMARK    1  A    between atoms: C3_3  and  S1_4 
REMARK    2  A    between atoms: S1_4  and  C4_5 
REMARK    3  A    between atoms: C8_9  and  N1_10 
ROOT
HETATM    1  C1  LIG X 999      44.839 131.520  18.203  1.00  0.00     0.013 C 
HETATM    2  C2  LIG X 999      45.208 131.144  19.288  1.00  0.00    -0.107 C 
HETATM    3  C3  LIG X 999      45.657 130.682  20.604  1.00  0.00     0.172 C 
ENDROOT
BRANCH   3   4
HETATM    4  S1  LIG X 999      44.366 130.980  21.858  1.00  0.00    -0.117 SA
BRANCH   4   5
HETATM    5  C4  LIG X 999      44.356 129.292  22.484  1.00  0.00     0.015 A 
HETATM    6  C5  LIG X 999      45.415 128.440  22.055  1.00  0.00     0.020 A 
HETATM    7  C6  LIG X 999      45.414 127.060  22.351  1.00  0.00     0.018 A 
HETATM    8  C7  LIG X 999      44.340 126.563  23.080  1.00  0.00     0.026 A 
HETATM    9  C8  LIG X 999      43.946 125.288  23.450  1.00  0.00     0.175 A 
HETATM   10  C10 LIG X 999      43.357 127.389  23.517  1.00  0.00     0.019 A 
HETATM   11  N4  LIG X 999      42.739 125.331  24.080  1.00  0.00    -0.337 N 
HETATM   12  H6  LIG X 999      42.176 124.526  24.434  1.00  0.00     0.167 HD
HETATM   13  C9  LIG X 999      42.394 126.637  24.110  1.00  0.00     0.046 A 
HETATM   14  C14 LIG X 999      41.140 127.249  24.570  1.00  0.00     0.033 C 
HETATM   15  C13 LIG X 999      41.000 128.584  24.448  1.00  0.00     0.034 C 
HETATM   16  C12 LIG X 999      42.101 129.437  23.889  1.00  0.00     0.060 C 
HETATM   17  C11 LIG X 999      43.305 128.755  23.291  1.00  0.00     0.022 A 
HETATM   18  N5  LIG X 999      42.031 130.716  24.084  1.00  0.00    -0.299 NA
HETATM   19  H7  LIG X 999      42.778 131.397  23.844  1.00  0.00     0.187 HD
BRANCH   9  20
HETATM   20  N1  LIG X 999      44.665 124.088  23.157  1.00  0.00    -0.053 NA
HETATM   21  N2  LIG X 999      45.819 123.923  23.554  1.00  0.00    -0.160 NA
HETATM   22  N3  LIG X 999      46.971 123.759  23.949  1.00  0.00     0.068 N 
ENDBRANCH   9  20
ENDBRANCH   4   5
ENDBRANCH   3   4
TORSDOF 3
