REMARK VINA RESULT:      -7.7      4.413      6.538
REMARK  3 active torsions:
REMARK  status: ('A' for Active; 'I' for Inactive)
REMARK    1  A    between atoms: C6_6  and  C7_7 
REMARK    2  A    between atoms: C7_7  and  C8_9 
REMARK    3  A    between atoms: C8_9  and  N1_10 
ROOT
HETATM    1  N1  LIG X 999      43.119 130.807  22.040  1.00  0.00    -0.108 NA
HETATM    2  N2  LIG X 999      43.055 131.251  23.187  1.00  0.00    -0.167 NA
HETATM    3  N3  LIG X 999      42.992 131.695  24.332  1.00  0.00     0.068 N 
ENDROOT
BRANCH   1   4
HETATM    4  C8  LIG X 999      43.389 131.685  20.908  1.00  0.00     0.272 C 
BRANCH   4   5
HETATM    5  C7  LIG X 999      44.628 131.258  20.159  1.00  0.00     0.181 C 
HETATM    6  O1  LIG X 999      45.634 130.868  20.813  1.00  0.00    -0.290 OA
BRANCH   5   7
HETATM    7  C6  LIG X 999      44.672 131.236  18.673  1.00  0.00     0.012 A 
HETATM    8  C5  LIG X 999      45.776 130.664  18.012  1.00  0.00     0.027 A 
HETATM    9  C4  LIG X 999      45.834 130.632  16.610  1.00  0.00    -0.025 A 
HETATM   10  C3  LIG X 999      46.938 130.067  15.953  1.00  0.00     0.012 A 
HETATM   11  C11 LIG X 999      44.771 131.177  15.851  1.00  0.00    -0.026 A 
HETATM   12  C2  LIG X 999      46.986 130.041  14.556  1.00  0.00     0.001 A 
HETATM   13  C1  LIG X 999      45.935 130.577  13.807  1.00  0.00     0.001 A 
HETATM   14  C12 LIG X 999      44.830 131.143  14.449  1.00  0.00     0.012 A 
HETATM   15  C10 LIG X 999      43.669 131.739  16.508  1.00  0.00     0.013 A 
HETATM   16  C9  LIG X 999      43.619 131.768  17.903  1.00  0.00     0.016 A 
ENDBRANCH   5   7
ENDBRANCH   4   5
ENDBRANCH   1   4
TORSDOF 3
