REMARK VINA RESULT:      -7.8      3.929      6.597
REMARK  3 active torsions:
REMARK  status: ('A' for Active; 'I' for Inactive)
REMARK    1  A    between atoms: C6_6  and  C7_7 
REMARK    2  A    between atoms: C7_7  and  C8_9 
REMARK    3  A    between atoms: C8_9  and  N1_10 
ROOT
HETATM    1  N1  LIG X 999      44.786 131.123  21.047  1.00  0.00    -0.108 NA
HETATM    2  N2  LIG X 999      44.549 130.318  21.948  1.00  0.00    -0.167 NA
HETATM    3  N3  LIG X 999      44.312 129.513  22.847  1.00  0.00     0.068 N 
ENDROOT
BRANCH   1   4
HETATM    4  C8  LIG X 999      45.463 130.705  19.825  1.00  0.00     0.272 C 
BRANCH   4   5
HETATM    5  C7  LIG X 999      44.710 131.149  18.595  1.00  0.00     0.181 C 
HETATM    6  O1  LIG X 999      43.502 131.494  18.709  1.00  0.00    -0.290 OA
BRANCH   5   7
HETATM    7  C6  LIG X 999      45.371 131.241  17.266  1.00  0.00     0.012 A 
HETATM    8  C5  LIG X 999      46.098 130.144  16.766  1.00  0.00     0.027 A 
HETATM    9  C4  LIG X 999      46.727 130.211  15.514  1.00  0.00    -0.025 A 
HETATM   10  C3  LIG X 999      47.455 129.118  15.019  1.00  0.00     0.012 A 
HETATM   11  C11 LIG X 999      46.628 131.392  14.742  1.00  0.00    -0.026 A 
HETATM   12  C2  LIG X 999      48.078 129.196  13.770  1.00  0.00     0.001 A 
HETATM   13  C1  LIG X 999      47.979 130.363  13.008  1.00  0.00     0.001 A 
HETATM   14  C12 LIG X 999      47.257 131.459  13.489  1.00  0.00     0.012 A 
HETATM   15  C10 LIG X 999      45.900 132.483  15.235  1.00  0.00     0.013 A 
HETATM   16  C9  LIG X 999      45.277 132.408  16.483  1.00  0.00     0.016 A 
ENDBRANCH   5   7
ENDBRANCH   4   5
ENDBRANCH   1   4
TORSDOF 3
