MODEL 1
REMARK VINA RESULT:      -7.2      0.000      0.000
REMARK  1 active torsions:
REMARK  status: ('A' for Active; 'I' for Inactive)
REMARK    1  A    between atoms: C4_4  and  N1_5 
ROOT
HETATM    1  C1  LIG X 999      45.765 129.664  20.892  1.00  0.00     0.049 C 
HETATM    2  C2  LIG X 999      44.729 130.739  21.114  1.00  0.00    -0.045 C 
HETATM    3  C3  LIG X 999      44.412 131.022  22.453  1.00  0.00     0.057 C 
HETATM    4  C4  LIG X 999      43.293 131.790  22.763  1.00  0.00     0.122 C 
HETATM    5  N2  LIG X 999      42.490 132.236  21.768  1.00  0.00    -0.231 NA
HETATM    6  C5  LIG X 999      42.775 132.030  20.456  1.00  0.00     0.070 C 
HETATM    7  C6  LIG X 999      41.857 132.466  19.502  1.00  0.00     0.033 C 
HETATM    8  C7  LIG X 999      42.099 132.272  18.150  1.00  0.00     0.014 C 
HETATM    9  C8  LIG X 999      43.316 131.735  17.720  1.00  0.00    -0.025 C 
HETATM   10  C9  LIG X 999      43.578 131.648  16.344  1.00  0.00     0.012 C 
HETATM   11  C10 LIG X 999      44.831 131.242  15.891  1.00  0.00     0.001 C 
HETATM   12  C11 LIG X 999      45.841 130.960  16.805  1.00  0.00     0.001 C 
HETATM   13  C12 LIG X 999      45.591 131.029  18.178  1.00  0.00     0.013 C 
HETATM   14  C13 LIG X 999      44.300 131.333  18.671  1.00  0.00    -0.013 C 
HETATM   15  C14 LIG X 999      43.972 131.362  20.069  1.00  0.00     0.010 C 
ENDROOT
BRANCH   4  16
HETATM   16  N1  LIG X 999      42.949 132.057  24.123  1.00  0.00    -0.384 N 
HETATM   17  H5  LIG X 999      42.750 131.279  24.790  1.00  0.00     0.157 HD
HETATM   18  H6  LIG X 999      42.896 133.041  24.469  1.00  0.00     0.157 HD
ENDBRANCH   4  16
TORSDOF 1
ENDMDL
MODEL 2
REMARK VINA RESULT:      -7.0      0.885      2.749
REMARK  1 active torsions:
REMARK  status: ('A' for Active; 'I' for Inactive)
REMARK    1  A    between atoms: C4_4  and  N1_5 
ROOT
HETATM    1  C1  LIG X 999      41.762 133.282  19.987  1.00  0.00     0.049 C 
HETATM    2  C2  LIG X 999      42.576 132.257  20.738  1.00  0.00    -0.045 C 
HETATM    3  C3  LIG X 999      42.261 132.096  22.097  1.00  0.00     0.057 C 
HETATM    4  C4  LIG X 999      43.115 131.386  22.937  1.00  0.00     0.122 C 
HETATM    5  N2  LIG X 999      44.269 130.879  22.445  1.00  0.00    -0.231 NA
HETATM    6  C5  LIG X 999      44.600 130.967  21.130  1.00  0.00     0.070 C 
HETATM    7  C6  LIG X 999      45.840 130.475  20.725  1.00  0.00     0.033 C 
HETATM    8  C7  LIG X 999      46.227 130.549  19.394  1.00  0.00     0.014 C 
HETATM    9  C8  LIG X 999      45.335 131.016  18.424  1.00  0.00    -0.025 C 
HETATM   10  C9  LIG X 999      45.713 130.981  17.073  1.00  0.00     0.012 C 
HETATM   11  C10 LIG X 999      44.798 131.315  16.077  1.00  0.00     0.001 C 
HETATM   12  C11 LIG X 999      43.491 131.646  16.420  1.00  0.00     0.001 C 
HETATM   13  C12 LIG X 999      43.104 131.699  17.762  1.00  0.00     0.013 C 
HETATM   14  C13 LIG X 999      44.037 131.471  18.801  1.00  0.00    -0.013 C 
HETATM   15  C14 LIG X 999      43.710 131.569  20.196  1.00  0.00     0.010 C 
ENDROOT
BRANCH   4  16
HETATM   16  N1  LIG X 999      42.814 131.243  24.326  1.00  0.00    -0.384 N 
HETATM   17  H5  LIG X 999      42.201 130.469  24.666  1.00  0.00     0.157 HD
HETATM   18  H6  LIG X 999      43.211 131.913  25.022  1.00  0.00     0.157 HD
ENDBRANCH   4  16
TORSDOF 1
ENDMDL
MODEL 3
REMARK VINA RESULT:      -6.9      2.184      4.825
REMARK  1 active torsions:
REMARK  status: ('A' for Active; 'I' for Inactive)
REMARK    1  A    between atoms: C4_4  and  N1_5 
ROOT
HETATM    1  C1  LIG X 999      46.475 130.794  20.125  1.00  0.00     0.049 C 
HETATM    2  C2  LIG X 999      45.207 131.018  19.338  1.00  0.00    -0.045 C 
HETATM    3  C3  LIG X 999      45.323 130.918  17.942  1.00  0.00     0.057 C 
HETATM    4  C4  LIG X 999      44.294 131.366  17.117  1.00  0.00     0.122 C 
HETATM    5  N2  LIG X 999      43.194 131.931  17.667  1.00  0.00    -0.231 NA
HETATM    6  C5  LIG X 999      43.011 132.011  19.010  1.00  0.00     0.070 C 
HETATM    7  C6  LIG X 999      41.879 132.669  19.487  1.00  0.00     0.033 C 
HETATM    8  C7  LIG X 999      41.652 132.785  20.851  1.00  0.00     0.014 C 
HETATM    9  C8  LIG X 999      42.497 132.148  21.764  1.00  0.00    -0.025 C 
HETATM   10  C9  LIG X 999      42.185 132.191  23.132  1.00  0.00     0.012 C 
HETATM   11  C10 LIG X 999      42.934 131.456  24.048  1.00  0.00     0.001 C 
HETATM   12  C11 LIG X 999      43.970 130.642  23.602  1.00  0.00     0.001 C 
HETATM   13  C12 LIG X 999      44.301 130.600  22.245  1.00  0.00     0.013 C 
HETATM   14  C13 LIG X 999      43.631 131.416  21.304  1.00  0.00    -0.013 C 
HETATM   15  C14 LIG X 999      43.968 131.456  19.908  1.00  0.00     0.010 C 
ENDROOT
BRANCH   4  16
HETATM   16  N1  LIG X 999      44.418 131.292  15.696  1.00  0.00    -0.384 N 
HETATM   17  H5  LIG X 999      43.795 130.670  15.134  1.00  0.00     0.157 HD
HETATM   18  H6  LIG X 999      45.135 131.866  15.200  1.00  0.00     0.157 HD
ENDBRANCH   4  16
TORSDOF 1
ENDMDL
MODEL 4
REMARK VINA RESULT:      -6.3      2.358      5.480
REMARK  1 active torsions:
REMARK  status: ('A' for Active; 'I' for Inactive)
REMARK    1  A    between atoms: C4_4  and  N1_5 
ROOT
HETATM    1  C1  LIG X 999      41.637 131.933  18.264  1.00  0.00     0.049 C 
HETATM    2  C2  LIG X 999      43.134 131.775  18.160  1.00  0.00    -0.045 C 
HETATM    3  C3  LIG X 999      43.675 131.864  16.867  1.00  0.00     0.057 C 
HETATM    4  C4  LIG X 999      44.988 131.470  16.626  1.00  0.00     0.122 C 
HETATM    5  N2  LIG X 999      45.733 130.968  17.639  1.00  0.00    -0.231 NA
HETATM    6  C5  LIG X 999      45.275 130.903  18.916  1.00  0.00     0.070 C 
HETATM    7  C6  LIG X 999      46.086 130.309  19.882  1.00  0.00     0.033 C 
HETATM    8  C7  LIG X 999      45.659 130.212  21.198  1.00  0.00     0.014 C 
HETATM    9  C8  LIG X 999      44.458 130.805  21.597  1.00  0.00    -0.025 C 
HETATM   10  C9  LIG X 999      44.101 130.785  22.955  1.00  0.00     0.012 C 
HETATM   11  C10 LIG X 999      42.980 131.481  23.398  1.00  0.00     0.001 C 
HETATM   12  C11 LIG X 999      42.232 132.235  22.500  1.00  0.00     0.001 C 
HETATM   13  C12 LIG X 999      42.567 132.254  21.143  1.00  0.00     0.013 C 
HETATM   14  C13 LIG X 999      43.634 131.472  20.643  1.00  0.00    -0.013 C 
HETATM   15  C14 LIG X 999      43.986 131.408  19.252  1.00  0.00     0.010 C 
ENDROOT
BRANCH   4  16
HETATM   16  N1  LIG X 999      45.535 131.531  15.308  1.00  0.00    -0.384 N 
HETATM   17  H5  LIG X 999      44.977 131.911  14.511  1.00  0.00     0.157 HD
HETATM   18  H6  LIG X 999      46.508 131.197  15.126  1.00  0.00     0.157 HD
ENDBRANCH   4  16
TORSDOF 1
ENDMDL
MODEL 5
REMARK VINA RESULT:      -5.2      3.412      6.178
REMARK  1 active torsions:
REMARK  status: ('A' for Active; 'I' for Inactive)
REMARK    1  A    between atoms: C4_4  and  N1_5 
ROOT
HETATM    1  C1  LIG X 999      43.058 131.358  14.350  1.00  0.00     0.049 C 
HETATM    2  C2  LIG X 999      44.468 131.225  14.872  1.00  0.00    -0.045 C 
HETATM    3  C3  LIG X 999      45.468 131.036  13.904  1.00  0.00     0.057 C 
HETATM    4  C4  LIG X 999      46.746 130.637  14.284  1.00  0.00     0.122 C 
HETATM    5  N2  LIG X 999      47.013 130.398  15.589  1.00  0.00    -0.231 NA
HETATM    6  C5  LIG X 999      46.097 130.609  16.569  1.00  0.00     0.070 C 
HETATM    7  C6  LIG X 999      46.437 130.272  17.879  1.00  0.00     0.033 C 
HETATM    8  C7  LIG X 999      45.532 130.461  18.914  1.00  0.00     0.014 C 
HETATM    9  C8  LIG X 999      44.309 131.094  18.675  1.00  0.00    -0.025 C 
HETATM   10  C9  LIG X 999      43.458 131.369  19.757  1.00  0.00     0.012 C 
HETATM   11  C10 LIG X 999      42.297 132.114  19.567  1.00  0.00     0.001 C 
HETATM   12  C11 LIG X 999      41.998 132.623  18.308  1.00  0.00     0.001 C 
HETATM   13  C12 LIG X 999      42.829 132.346  17.219  1.00  0.00     0.013 C 
HETATM   14  C13 LIG X 999      43.957 131.503  17.355  1.00  0.00    -0.013 C 
HETATM   15  C14 LIG X 999      44.811 131.138  16.260  1.00  0.00     0.010 C 
ENDROOT
BRANCH   4  16
HETATM   16  N1  LIG X 999      47.760 130.416  13.302  1.00  0.00    -0.384 N 
HETATM   17  H5  LIG X 999      48.491 129.682  13.440  1.00  0.00     0.157 HD
HETATM   18  H6  LIG X 999      47.780 130.987  12.428  1.00  0.00     0.157 HD
ENDBRANCH   4  16
TORSDOF 1
ENDMDL
MODEL 6
REMARK VINA RESULT:      -5.2      7.223      8.966
REMARK  1 active torsions:
REMARK  status: ('A' for Active; 'I' for Inactive)
REMARK    1  A    between atoms: C4_4  and  N1_5 
ROOT
HETATM    1  C1  LIG X 999      40.148 127.637  24.166  1.00  0.00     0.049 C 
HETATM    2  C2  LIG X 999      41.429 126.887  23.894  1.00  0.00    -0.045 C 
HETATM    3  C3  LIG X 999      42.604 127.656  23.885  1.00  0.00     0.057 C 
HETATM    4  C4  LIG X 999      43.789 127.124  23.386  1.00  0.00     0.122 C 
HETATM    5  N2  LIG X 999      43.797 125.870  22.875  1.00  0.00    -0.231 NA
HETATM    6  C5  LIG X 999      42.701 125.068  22.901  1.00  0.00     0.070 C 
HETATM    7  C6  LIG X 999      42.782 123.816  22.292  1.00  0.00     0.033 C 
HETATM    8  C7  LIG X 999      41.687 122.963  22.284  1.00  0.00     0.014 C 
HETATM    9  C8  LIG X 999      40.524 123.301  22.981  1.00  0.00    -0.025 C 
HETATM   10  C9  LIG X 999      39.471 122.375  23.047  1.00  0.00     0.012 C 
HETATM   11  C10 LIG X 999      38.357 122.631  23.842  1.00  0.00     0.001 C 
HETATM   12  C11 LIG X 999      38.305 123.791  24.609  1.00  0.00     0.001 C 
HETATM   13  C12 LIG X 999      39.339 124.728  24.543  1.00  0.00     0.013 C 
HETATM   14  C13 LIG X 999      40.432 124.550  23.664  1.00  0.00    -0.013 C 
HETATM   15  C14 LIG X 999      41.493 125.507  23.513  1.00  0.00     0.010 C 
ENDROOT
BRANCH   4  16
HETATM   16  N1  LIG X 999      44.980 127.911  23.348  1.00  0.00    -0.384 N 
HETATM   17  H5  LIG X 999      45.059 128.793  23.901  1.00  0.00     0.157 HD
HETATM   18  H6  LIG X 999      45.793 127.608  22.767  1.00  0.00     0.157 HD
ENDBRANCH   4  16
TORSDOF 1
ENDMDL
MODEL 7
REMARK VINA RESULT:      -4.9      1.062      2.940
REMARK  1 active torsions:
REMARK  status: ('A' for Active; 'I' for Inactive)
REMARK    1  A    between atoms: C4_4  and  N1_5 
ROOT
HETATM    1  C1  LIG X 999      41.856 133.111  18.279  1.00  0.00     0.049 C 
HETATM    2  C2  LIG X 999      42.559 132.213  19.268  1.00  0.00    -0.045 C 
HETATM    3  C3  LIG X 999      42.065 132.238  20.583  1.00  0.00     0.057 C 
HETATM    4  C4  LIG X 999      42.796 131.665  21.620  1.00  0.00     0.122 C 
HETATM    5  N2  LIG X 999      44.004 131.111  21.360  1.00  0.00    -0.231 NA
HETATM    6  C5  LIG X 999      44.507 131.019  20.102  1.00  0.00     0.070 C 
HETATM    7  C6  LIG X 999      45.788 130.494  19.937  1.00  0.00     0.033 C 
HETATM    8  C7  LIG X 999      46.349 130.387  18.672  1.00  0.00     0.014 C 
HETATM    9  C8  LIG X 999      45.596 130.701  17.538  1.00  0.00    -0.025 C 
HETATM   10  C9  LIG X 999      46.150 130.482  16.266  1.00  0.00     0.012 C 
HETATM   11  C10 LIG X 999      45.377 130.661  15.121  1.00  0.00     0.001 C 
HETATM   12  C11 LIG X 999      44.038 131.017  15.238  1.00  0.00     0.001 C 
HETATM   13  C12 LIG X 999      43.476 131.252  16.496  1.00  0.00     0.013 C 
HETATM   14  C13 LIG X 999      44.261 131.185  17.671  1.00  0.00    -0.013 C 
HETATM   15  C14 LIG X 999      43.752 131.471  18.983  1.00  0.00     0.010 C 
ENDROOT
BRANCH   4  16
HETATM   16  N1  LIG X 999      42.313 131.713  22.963  1.00  0.00    -0.384 N 
HETATM   17  H5  LIG X 999      41.408 131.262  23.225  1.00  0.00     0.157 HD
HETATM   18  H6  LIG X 999      42.865 132.199  23.704  1.00  0.00     0.157 HD
ENDBRANCH   4  16
TORSDOF 1
ENDMDL
MODEL 8
REMARK VINA RESULT:      -4.7      7.250      8.937
REMARK  1 active torsions:
REMARK  status: ('A' for Active; 'I' for Inactive)
REMARK    1  A    between atoms: C4_4  and  N1_5 
ROOT
HETATM    1  C1  LIG X 999      43.542 122.541  23.189  1.00  0.00     0.049 C 
HETATM    2  C2  LIG X 999      43.376 124.031  23.013  1.00  0.00    -0.045 C 
HETATM    3  C3  LIG X 999      44.515 124.732  22.585  1.00  0.00     0.057 C 
HETATM    4  C4  LIG X 999      44.551 126.122  22.649  1.00  0.00     0.122 C 
HETATM    5  N2  LIG X 999      43.493 126.796  23.159  1.00  0.00    -0.231 NA
HETATM    6  C5  LIG X 999      42.350 126.171  23.544  1.00  0.00     0.070 C 
HETATM    7  C6  LIG X 999      41.338 126.938  24.120  1.00  0.00     0.033 C 
HETATM    8  C7  LIG X 999      40.155 126.344  24.538  1.00  0.00     0.014 C 
HETATM    9  C8  LIG X 999      39.917 124.991  24.286  1.00  0.00    -0.025 C 
HETATM   10  C9  LIG X 999      38.670 124.440  24.623  1.00  0.00     0.012 C 
HETATM   11  C10 LIG X 999      38.359 123.131  24.264  1.00  0.00     0.001 C 
HETATM   12  C11 LIG X 999      39.271 122.377  23.533  1.00  0.00     0.001 C 
HETATM   13  C12 LIG X 999      40.521 122.907  23.203  1.00  0.00     0.013 C 
HETATM   14  C13 LIG X 999      40.910 124.193  23.645  1.00  0.00    -0.013 C 
HETATM   15  C14 LIG X 999      42.202 124.764  23.385  1.00  0.00     0.010 C 
ENDROOT
BRANCH   4  16
HETATM   16  N1  LIG X 999      45.717 126.839  22.241  1.00  0.00    -0.384 N 
HETATM   17  H5  LIG X 999      46.068 127.653  22.794  1.00  0.00     0.157 HD
HETATM   18  H6  LIG X 999      46.237 126.552  21.383  1.00  0.00     0.157 HD
ENDBRANCH   4  16
TORSDOF 1
ENDMDL
MODEL 9
REMARK VINA RESULT:      -4.6      6.246      8.135
REMARK  1 active torsions:
REMARK  status: ('A' for Active; 'I' for Inactive)
REMARK    1  A    between atoms: C4_4  and  N1_5 
ROOT
HETATM    1  C1  LIG X 999      44.390 122.512  22.905  1.00  0.00     0.049 C 
HETATM    2  C2  LIG X 999      45.116 123.765  22.481  1.00  0.00    -0.045 C 
HETATM    3  C3  LIG X 999      46.416 123.584  21.979  1.00  0.00     0.057 C 
HETATM    4  C4  LIG X 999      47.264 124.676  21.815  1.00  0.00     0.122 C 
HETATM    5  N2  LIG X 999      46.842 125.911  22.174  1.00  0.00    -0.231 NA
HETATM    6  C5  LIG X 999      45.582 126.148  22.621  1.00  0.00     0.070 C 
HETATM    7  C6  LIG X 999      45.256 127.440  23.032  1.00  0.00     0.033 C 
HETATM    8  C7  LIG X 999      43.984 127.730  23.504  1.00  0.00     0.014 C 
HETATM    9  C8  LIG X 999      42.980 126.758  23.471  1.00  0.00    -0.025 C 
HETATM   10  C9  LIG X 999      41.675 127.108  23.854  1.00  0.00     0.012 C 
HETATM   11  C10 LIG X 999      40.631 126.199  23.706  1.00  0.00     0.001 C 
HETATM   12  C11 LIG X 999      40.872 124.952  23.138  1.00  0.00     0.001 C 
HETATM   13  C12 LIG X 999      42.167 124.585  22.764  1.00  0.00     0.013 C 
HETATM   14  C13 LIG X 999      43.267 125.443  23.001  1.00  0.00    -0.013 C 
HETATM   15  C14 LIG X 999      44.626 125.095  22.691  1.00  0.00     0.010 C 
ENDROOT
BRANCH   4  16
HETATM   16  N1  LIG X 999      48.596 124.495  21.332  1.00  0.00    -0.384 N 
HETATM   17  H5  LIG X 999      49.302 125.262  21.402  1.00  0.00     0.157 HD
HETATM   18  H6  LIG X 999      48.881 123.587  20.903  1.00  0.00     0.157 HD
ENDBRANCH   4  16
TORSDOF 1
ENDMDL
