REMARK VINA RESULT:      -5.8      2.108      6.406
REMARK  1 active torsions:
REMARK  status: ('A' for Active; 'I' for Inactive)
REMARK    1  A    between atoms: C9_10  and  N2_11 
ROOT
HETATM    1  C1  LIG X 999      44.516 132.254  20.910  1.00  0.00     0.272 C 
HETATM    2  N1  LIG X 999      44.165 131.611  19.622  1.00  0.00    -0.067 N 
HETATM    3  C2  LIG X 999      42.756 131.155  19.680  1.00  0.00     0.272 C 
HETATM    4  C3  LIG X 999      44.347 132.569  18.486  1.00  0.00     0.276 C 
HETATM    5  C4  LIG X 999      45.140 131.841  17.473  1.00  0.00    -0.024 A 
HETATM    6  C5  LIG X 999      45.489 132.266  16.191  1.00  0.00     0.021 A 
HETATM    7  C6  LIG X 999      46.277 131.417  15.390  1.00  0.00    -0.025 A 
HETATM    8  C7  LIG X 999      46.648 131.800  14.093  1.00  0.00     0.014 A 
HETATM    9  C8  LIG X 999      47.433 130.951  13.307  1.00  0.00     0.030 A 
HETATM   10  C9  LIG X 999      47.858 129.710  13.805  1.00  0.00     0.026 A 
HETATM   11  C10 LIG X 999      47.493 129.317  15.101  1.00  0.00     0.041 A 
HETATM   12  C11 LIG X 999      46.706 130.158  15.900  1.00  0.00    -0.023 A 
HETATM   13  C12 LIG X 999      46.337 129.770  17.204  1.00  0.00     0.021 A 
HETATM   14  C13 LIG X 999      45.550 130.638  17.962  1.00  0.00    -0.024 A 
HETATM   15  C14 LIG X 999      45.069 130.449  19.348  1.00  0.00     0.276 C 
ENDROOT
BRANCH  10  16
HETATM   16  N2  LIG X 999      48.660 128.849  12.993  1.00  0.00    -0.399 N 
HETATM   17  H12 LIG X 999      48.253 127.990  12.560  1.00  0.00     0.156 HD
HETATM   18  H13 LIG X 999      49.667 129.064  12.819  1.00  0.00     0.156 HD
ENDBRANCH  10  16
TORSDOF 1
