REMARK VINA RESULT:      -7.8      0.000      0.000
REMARK  1 active torsions:
REMARK  status: ('A' for Active; 'I' for Inactive)
REMARK    1  A    between atoms: C3_3  and  N1_4 
ROOT
HETATM    1  N1  LIG X 999      47.187 129.863  15.456  1.00  0.00    -0.072 NA
HETATM    2  N2  LIG X 999      47.815 129.657  14.417  1.00  0.00    -0.162 NA
HETATM    3  N3  LIG X 999      48.444 129.451  13.379  1.00  0.00     0.068 N 
ENDROOT
BRANCH   1   4
HETATM    4  C3  LIG X 999      45.907 130.517  15.468  1.00  0.00     0.104 A 
HETATM    5  C2  LIG X 999      45.245 130.832  14.265  1.00  0.00     0.035 A 
HETATM    6  C1  LIG X 999      44.003 131.468  14.281  1.00  0.00     0.003 A 
HETATM    7  C10 LIG X 999      43.394 131.802  15.490  1.00  0.00     0.012 A 
HETATM    8  C9  LIG X 999      44.027 131.501  16.703  1.00  0.00    -0.023 A 
HETATM    9  C4  LIG X 999      45.298 130.851  16.699  1.00  0.00     0.006 A 
HETATM   10  C8  LIG X 999      43.413 131.841  17.924  1.00  0.00     0.021 A 
HETATM   11  C5  LIG X 999      45.925 130.557  17.932  1.00  0.00     0.024 A 
HETATM   12  C6  LIG X 999      45.278 130.905  19.118  1.00  0.00    -0.023 A 
HETATM   13  C7  LIG X 999      44.066 131.523  19.114  1.00  0.00    -0.024 A 
HETATM   14  C14 LIG X 999      45.759 130.713  20.503  1.00  0.00     0.276 C 
HETATM   15  C11 LIG X 999      43.622 131.804  20.497  1.00  0.00     0.276 C 
HETATM   16  N4  LIG X 999      44.628 131.140  21.386  1.00  0.00    -0.067 N 
HETATM   17  C12 LIG X 999      45.103 132.079  22.428  1.00  0.00     0.272 C 
HETATM   18  C13 LIG X 999      44.021 129.958  22.042  1.00  0.00     0.272 C 
ENDBRANCH   1   4
TORSDOF 1
