REMARK VINA RESULT:      -6.9      1.673      7.757
REMARK  6 active torsions:
REMARK  status: ('A' for Active; 'I' for Inactive)
REMARK    1  A    between atoms: C2_2  and  C3_3 
REMARK    2  A    between atoms: C3_3  and  O1_4 
REMARK    3  A    between atoms: O1_4  and  C4_5 
REMARK    4  A    between atoms: C4_5  and  C6_7 
REMARK    5  A    between atoms: C6_7  and  C7_8 
REMARK       I    between atoms: N1_10  and  C9_11 
REMARK    6  A    between atoms: C9_11  and  C10_13 
ROOT
HETATM    1  C7  LIG X 999      43.614 131.059  22.295  1.00  0.00     0.076 A 
HETATM    2  C8  LIG X 999      43.569 129.680  22.293  1.00  0.00     0.150 A 
HETATM    3  N1  LIG X 999      44.196 129.282  23.416  1.00  0.00    -0.213 N 
HETATM    4  C9  LIG X 999      44.432 127.935  23.856  1.00  0.00     0.277 C 
HETATM    5  O2  LIG X 999      45.405 127.701  24.624  1.00  0.00    -0.265 OA
HETATM    6  N2  LIG X 999      44.612 130.366  24.051  1.00  0.00    -0.210 N 
HETATM    7  N3  LIG X 999      44.264 131.468  23.404  1.00  0.00    -0.162 NA
HETATM    8  H20 LIG X 999      45.136 130.363  24.955  1.00  0.00     0.211 HD
ENDROOT
BRANCH   4   9
HETATM    9  C10 LIG X 999      43.561 126.814  23.433  1.00  0.00     0.035 A 
HETATM   10  C11 LIG X 999      44.062 125.823  22.572  1.00  0.00     0.018 A 
HETATM   11  C12 LIG X 999      43.254 124.756  22.171  1.00  0.00     0.013 A 
HETATM   12  C13 LIG X 999      41.935 124.656  22.634  1.00  0.00    -0.026 A 
HETATM   13  C14 LIG X 999      41.115 123.589  22.237  1.00  0.00     0.012 A 
HETATM   14  C18 LIG X 999      41.427 125.638  23.518  1.00  0.00    -0.025 A 
HETATM   15  C15 LIG X 999      39.802 123.497  22.711  1.00  0.00     0.001 A 
HETATM   16  C16 LIG X 999      39.301 124.467  23.584  1.00  0.00     0.001 A 
HETATM   17  C17 LIG X 999      40.108 125.534  23.988  1.00  0.00     0.012 A 
HETATM   18  C19 LIG X 999      42.246 126.705  23.916  1.00  0.00     0.029 A 
ENDBRANCH   4   9
BRANCH   1  19
HETATM   19  C6  LIG X 999      42.985 131.976  21.289  1.00  0.00     0.094 C 
BRANCH  19  20
HETATM   20  C4  LIG X 999      43.878 132.203  20.057  1.00  0.00     0.123 C 
HETATM   21  C5  LIG X 999      45.366 132.060  20.404  1.00  0.00     0.040 C 
BRANCH  20  22
HETATM   22  O1  LIG X 999      43.530 131.266  19.049  1.00  0.00    -0.382 OA
BRANCH  22  23
HETATM   23  C3  LIG X 999      43.136 131.923  17.862  1.00  0.00     0.194 C 
BRANCH  23  24
HETATM   24  C2  LIG X 999      43.993 131.447  16.728  1.00  0.00    -0.011 C 
HETATM   25  C1  LIG X 999      45.259 131.852  16.596  1.00  0.00     0.009 C 
ENDBRANCH  23  24
ENDBRANCH  22  23
ENDBRANCH  20  22
ENDBRANCH  19  20
ENDBRANCH   1  19
TORSDOF 6
