REMARK VINA RESULT:      -7.2      4.691      6.623
REMARK  5 active torsions:
REMARK  status: ('A' for Active; 'I' for Inactive)
REMARK    1  A    between atoms: O1_2  and  S1_3 
REMARK    2  A    between atoms: S1_3  and  C1_4 
REMARK    3  A    between atoms: S1_3  and  C11_14 
REMARK    4  A    between atoms: C11_14  and  C12_15 
REMARK    5  A    between atoms: C12_15  and  N1_16 
ROOT
HETATM    1  N1  LIG X 999      44.424 129.958  22.916  1.00  0.00    -0.115 NA
HETATM    2  N2  LIG X 999      44.474 128.747  23.137  1.00  0.00    -0.168 NA
HETATM    3  N3  LIG X 999      44.524 127.539  23.356  1.00  0.00     0.068 N 
ENDROOT
BRANCH   1   4
HETATM    4  C12 LIG X 999      43.174 130.586  22.512  1.00  0.00     0.201 C 
BRANCH   4   5
HETATM    5  C11 LIG X 999      43.375 131.389  21.230  1.00  0.00     0.121 C 
BRANCH   5   6
HETATM    6  S1  LIG X 999      44.953 131.023  20.477  1.00  0.00    -0.056 S 
BRANCH   6   7
HETATM    7  O1  LIG X 999      46.174 132.009  21.077  1.00  0.00    -0.336 OA
HETATM    8  H1  LIG X 999      46.971 131.784  20.534  1.00  0.00     0.227 HD
ENDBRANCH   6   7
BRANCH   6   9
HETATM    9  C1  LIG X 999      44.888 131.085  18.725  1.00  0.00     0.017 A 
HETATM   10  C2  LIG X 999      43.802 131.696  18.091  1.00  0.00     0.021 A 
HETATM   11  C3  LIG X 999      43.747 131.764  16.696  1.00  0.00     0.013 A 
HETATM   12  C4  LIG X 999      44.782 131.220  15.922  1.00  0.00    -0.026 A 
HETATM   13  C5  LIG X 999      44.738 131.282  14.520  1.00  0.00     0.012 A 
HETATM   14  C9  LIG X 999      45.885 130.602  16.562  1.00  0.00    -0.025 A 
HETATM   15  C6  LIG X 999      45.778 130.738  13.761  1.00  0.00     0.001 A 
HETATM   16  C7  LIG X 999      46.867 130.128  14.393  1.00  0.00     0.001 A 
HETATM   17  C8  LIG X 999      46.923 130.059  15.788  1.00  0.00     0.012 A 
HETATM   18  C10 LIG X 999      45.930 130.539  17.963  1.00  0.00     0.032 A 
ENDBRANCH   6   9
ENDBRANCH   5   6
ENDBRANCH   4   5
ENDBRANCH   1   4
TORSDOF 5
