MODEL 1
REMARK VINA RESULT:      -7.8      0.000      0.000
REMARK  5 active torsions:
REMARK  status: ('A' for Active; 'I' for Inactive)
REMARK    1  A    between atoms: C1_1  and  N1_2 
REMARK    2  A    between atoms: C2_5  and  O1_6 
REMARK    3  A    between atoms: C2_5  and  C5_12 
REMARK    4  A    between atoms: O1_6  and  C3_7 
REMARK    5  A    between atoms: C3_7  and  C4_9 
ROOT
HETATM    1  N1  LIG X 999      45.318 129.513  21.650  1.00  0.00    -0.082 NA
HETATM    2  N2  LIG X 999      45.118 128.392  22.117  1.00  0.00    -0.163 NA
HETATM    3  N3  LIG X 999      44.918 127.271  22.583  1.00  0.00     0.068 N 
ENDROOT
BRANCH   1   4
HETATM    4  C1  LIG X 999      45.592 129.682  20.260  1.00  0.00     0.193 C 
HETATM    5  C2  LIG X 999      45.168 130.774  19.615  1.00  0.00     0.101 C 
BRANCH   5   6
HETATM    6  O1  LIG X 999      44.487 131.767  20.335  1.00  0.00    -0.324 OA
BRANCH   6   7
HETATM    7  C3  LIG X 999      43.097 131.723  20.686  1.00  0.00     0.273 C 
HETATM    8 CL1  LIG X 999      42.823 131.771  22.453  1.00  0.00    -0.090 Cl
BRANCH   7   9
HETATM    9  C4  LIG X 999      42.278 132.799  19.956  1.00  0.00     0.309 C 
HETATM   10  F1  LIG X 999      41.222 133.203  20.750  1.00  0.00    -0.229 F 
HETATM   11 CL2  LIG X 999      41.646 132.243  18.380  1.00  0.00    -0.086 Cl
ENDBRANCH   7   9
ENDBRANCH   6   7
ENDBRANCH   5   6
BRANCH   5  12
HETATM   12  C5  LIG X 999      45.478 130.963  18.179  1.00  0.00    -0.000 A 
HETATM   13  C6  LIG X 999      45.019 132.113  17.517  1.00  0.00     0.015 A 
HETATM   14  C7  LIG X 999      45.298 132.311  16.162  1.00  0.00     0.013 A 
HETATM   15  C8  LIG X 999      46.044 131.362  15.449  1.00  0.00    -0.026 A 
HETATM   16  C9  LIG X 999      46.327 131.551  14.087  1.00  0.00     0.012 A 
HETATM   17  C13 LIG X 999      46.515 130.201  16.109  1.00  0.00    -0.025 A 
HETATM   18  C10 LIG X 999      47.070 130.596  13.387  1.00  0.00     0.001 A 
HETATM   19  C11 LIG X 999      47.535 129.450  14.038  1.00  0.00     0.001 A 
HETATM   20  C12 LIG X 999      47.260 129.250  15.394  1.00  0.00     0.012 A 
HETATM   21  C14 LIG X 999      46.231 130.011  17.470  1.00  0.00     0.026 A 
ENDBRANCH   5  12
ENDBRANCH   1   4
TORSDOF 5
ENDMDL
MODEL 2
REMARK VINA RESULT:      -7.8      2.629      3.243
REMARK  5 active torsions:
REMARK  status: ('A' for Active; 'I' for Inactive)
REMARK    1  A    between atoms: C1_1  and  N1_2 
REMARK    2  A    between atoms: C2_5  and  O1_6 
REMARK    3  A    between atoms: C2_5  and  C5_12 
REMARK    4  A    between atoms: O1_6  and  C3_7 
REMARK    5  A    between atoms: C3_7  and  C4_9 
ROOT
HETATM    1  N1  LIG X 999      42.918 131.662  19.967  1.00  0.00    -0.082 NA
HETATM    2  N2  LIG X 999      42.137 132.542  20.329  1.00  0.00    -0.163 NA
HETATM    3  N3  LIG X 999      41.357 133.421  20.690  1.00  0.00     0.068 N 
ENDROOT
BRANCH   1   4
HETATM    4  C1  LIG X 999      43.601 131.766  18.718  1.00  0.00     0.193 C 
HETATM    5  C2  LIG X 999      44.716 131.063  18.496  1.00  0.00     0.101 C 
BRANCH   5   6
HETATM    6  O1  LIG X 999      45.181 130.193  19.494  1.00  0.00    -0.324 OA
BRANCH   6   7
HETATM    7  C3  LIG X 999      45.647 130.597  20.788  1.00  0.00     0.273 C 
HETATM    8 CL1  LIG X 999      46.186 132.302  20.834  1.00  0.00    -0.090 Cl
BRANCH   7   9
HETATM    9  C4  LIG X 999      44.623 130.295  21.894  1.00  0.00     0.309 C 
HETATM   10  F1  LIG X 999      44.686 131.273  22.869  1.00  0.00    -0.229 F 
HETATM   11 CL2  LIG X 999      44.867 128.696  22.652  1.00  0.00    -0.086 Cl
ENDBRANCH   7   9
ENDBRANCH   6   7
ENDBRANCH   5   6
BRANCH   5  12
HETATM   12  C5  LIG X 999      45.408 131.149  17.190  1.00  0.00    -0.000 A 
HETATM   13  C6  LIG X 999      45.354 132.344  16.455  1.00  0.00     0.015 A 
HETATM   14  C7  LIG X 999      45.999 132.448  15.219  1.00  0.00     0.013 A 
HETATM   15  C8  LIG X 999      46.710 131.357  14.700  1.00  0.00    -0.026 A 
HETATM   16  C9  LIG X 999      47.358 131.450  13.459  1.00  0.00     0.012 A 
HETATM   17  C13 LIG X 999      46.774 130.148  15.436  1.00  0.00    -0.025 A 
HETATM   18  C10 LIG X 999      48.063 130.355  12.952  1.00  0.00     0.001 A 
HETATM   19  C11 LIG X 999      48.125 129.162  13.677  1.00  0.00     0.001 A 
HETATM   20  C12 LIG X 999      47.485 129.055  14.915  1.00  0.00     0.012 A 
HETATM   21  C14 LIG X 999      46.125 130.054  16.676  1.00  0.00     0.026 A 
ENDBRANCH   5  12
ENDBRANCH   1   4
TORSDOF 5
ENDMDL
MODEL 3
REMARK VINA RESULT:      -7.7      4.609      7.187
REMARK  5 active torsions:
REMARK  status: ('A' for Active; 'I' for Inactive)
REMARK    1  A    between atoms: C1_1  and  N1_2 
REMARK    2  A    between atoms: C2_5  and  O1_6 
REMARK    3  A    between atoms: C2_5  and  C5_12 
REMARK    4  A    between atoms: O1_6  and  C3_7 
REMARK    5  A    between atoms: C3_7  and  C4_9 
ROOT
HETATM    1  N1  LIG X 999      44.412 131.932  14.821  1.00  0.00    -0.082 NA
HETATM    2  N2  LIG X 999      43.494 131.671  14.045  1.00  0.00    -0.163 NA
HETATM    3  N3  LIG X 999      42.576 131.409  13.269  1.00  0.00     0.068 N 
ENDROOT
BRANCH   1   4
HETATM    4  C1  LIG X 999      44.229 131.804  16.231  1.00  0.00     0.193 C 
HETATM    5  C2  LIG X 999      45.176 131.237  16.987  1.00  0.00     0.101 C 
BRANCH   5   6
HETATM    6  O1  LIG X 999      46.366 130.809  16.379  1.00  0.00    -0.324 OA
BRANCH   6   7
HETATM    7  C3  LIG X 999      46.529 129.577  15.664  1.00  0.00     0.273 C 
HETATM    8 CL1  LIG X 999      45.023 128.616  15.579  1.00  0.00    -0.090 Cl
BRANCH   7   9
HETATM    9  C4  LIG X 999      47.146 129.789  14.273  1.00  0.00     0.309 C 
HETATM   10  F1  LIG X 999      48.379 129.168  14.208  1.00  0.00    -0.229 F 
HETATM   11 CL2  LIG X 999      47.337 131.514  13.850  1.00  0.00    -0.086 Cl
ENDBRANCH   7   9
ENDBRANCH   6   7
ENDBRANCH   5   6
BRANCH   5  12
HETATM   12  C5  LIG X 999      44.998 131.130  18.453  1.00  0.00    -0.000 A 
HETATM   13  C6  LIG X 999      45.960 130.454  19.220  1.00  0.00     0.015 A 
HETATM   14  C7  LIG X 999      45.813 130.340  20.604  1.00  0.00     0.013 A 
HETATM   15  C8  LIG X 999      44.700 130.903  21.245  1.00  0.00    -0.026 A 
HETATM   16  C9  LIG X 999      44.541 130.791  22.635  1.00  0.00     0.012 A 
HETATM   17  C13 LIG X 999      43.727 131.591  20.481  1.00  0.00    -0.025 A 
HETATM   18  C10 LIG X 999      43.427 131.356  23.261  1.00  0.00     0.001 A 
HETATM   19  C11 LIG X 999      42.466 132.035  22.507  1.00  0.00     0.001 A 
HETATM   20  C12 LIG X 999      42.612 132.154  21.122  1.00  0.00     0.012 A 
HETATM   21  C14 LIG X 999      43.884 131.702  19.091  1.00  0.00     0.026 A 
ENDBRANCH   5  12
ENDBRANCH   1   4
TORSDOF 5
ENDMDL
MODEL 4
REMARK VINA RESULT:      -6.4      1.488      2.047
REMARK  5 active torsions:
REMARK  status: ('A' for Active; 'I' for Inactive)
REMARK    1  A    between atoms: C1_1  and  N1_2 
REMARK    2  A    between atoms: C2_5  and  O1_6 
REMARK    3  A    between atoms: C2_5  and  C5_12 
REMARK    4  A    between atoms: O1_6  and  C3_7 
REMARK    5  A    between atoms: C3_7  and  C4_9 
ROOT
HETATM    1  N1  LIG X 999      45.393 130.457  21.047  1.00  0.00    -0.082 NA
HETATM    2  N2  LIG X 999      45.410 131.412  21.823  1.00  0.00    -0.163 NA
HETATM    3  N3  LIG X 999      45.428 132.366  22.599  1.00  0.00     0.068 N 
ENDROOT
BRANCH   1   4
HETATM    4  C1  LIG X 999      45.911 130.589  19.723  1.00  0.00     0.193 C 
HETATM    5  C2  LIG X 999      45.086 130.809  18.693  1.00  0.00     0.101 C 
BRANCH   5   6
HETATM    6  O1  LIG X 999      43.712 130.947  18.940  1.00  0.00    -0.324 OA
BRANCH   6   7
HETATM    7  C3  LIG X 999      43.035 132.193  19.152  1.00  0.00     0.273 C 
HETATM    8 CL1  LIG X 999      41.713 132.477  17.980  1.00  0.00    -0.090 Cl
BRANCH   7   9
HETATM    9  C4  LIG X 999      42.551 132.352  20.602  1.00  0.00     0.309 C 
HETATM   10  F1  LIG X 999      42.332 131.108  21.162  1.00  0.00    -0.229 F 
HETATM   11 CL2  LIG X 999      41.058 133.325  20.736  1.00  0.00    -0.086 Cl
ENDBRANCH   7   9
ENDBRANCH   6   7
ENDBRANCH   5   6
BRANCH   5  12
HETATM   12  C5  LIG X 999      45.626 130.973  17.324  1.00  0.00    -0.000 A 
HETATM   13  C6  LIG X 999      45.383 132.165  16.622  1.00  0.00     0.015 A 
HETATM   14  C7  LIG X 999      45.882 132.342  15.329  1.00  0.00     0.013 A 
HETATM   15  C8  LIG X 999      46.634 131.329  14.718  1.00  0.00    -0.026 A 
HETATM   16  C9  LIG X 999      47.137 131.496  13.418  1.00  0.00     0.012 A 
HETATM   17  C13 LIG X 999      46.888 130.125  15.419  1.00  0.00    -0.025 A 
HETATM   18  C10 LIG X 999      47.885 130.478  12.820  1.00  0.00     0.001 A 
HETATM   19  C11 LIG X 999      48.135 129.290  13.512  1.00  0.00     0.001 A 
HETATM   20  C12 LIG X 999      47.641 129.111  14.806  1.00  0.00     0.012 A 
HETATM   21  C14 LIG X 999      46.385 129.957  16.718  1.00  0.00     0.026 A 
ENDBRANCH   5  12
ENDBRANCH   1   4
TORSDOF 5
ENDMDL
MODEL 5
REMARK VINA RESULT:      -5.3      3.785      6.505
REMARK  5 active torsions:
REMARK  status: ('A' for Active; 'I' for Inactive)
REMARK    1  A    between atoms: C1_1  and  N1_2 
REMARK    2  A    between atoms: C2_5  and  O1_6 
REMARK    3  A    between atoms: C2_5  and  C5_12 
REMARK    4  A    between atoms: O1_6  and  C3_7 
REMARK    5  A    between atoms: C3_7  and  C4_9 
ROOT
HETATM    1  N1  LIG X 999      45.742 131.392  19.345  1.00  0.00    -0.082 NA
HETATM    2  N2  LIG X 999      45.285 131.371  18.203  1.00  0.00    -0.163 NA
HETATM    3  N3  LIG X 999      44.828 131.350  17.061  1.00  0.00     0.068 N 
ENDROOT
BRANCH   1   4
HETATM    4  C1  LIG X 999      45.677 130.232  20.174  1.00  0.00     0.193 C 
HETATM    5  C2  LIG X 999      44.988 130.257  21.320  1.00  0.00     0.101 C 
BRANCH   5   6
HETATM    6  O1  LIG X 999      44.300 131.428  21.674  1.00  0.00    -0.324 OA
BRANCH   6   7
HETATM    7  C3  LIG X 999      42.876 131.589  21.636  1.00  0.00     0.273 C 
HETATM    8 CL1  LIG X 999      42.181 132.023  23.227  1.00  0.00    -0.090 Cl
BRANCH   7   9
HETATM    9  C4  LIG X 999      42.431 132.567  20.537  1.00  0.00     0.309 C 
HETATM   10  F1  LIG X 999      41.326 133.279  20.963  1.00  0.00    -0.229 F 
HETATM   11 CL2  LIG X 999      42.043 131.751  18.995  1.00  0.00    -0.086 Cl
ENDBRANCH   7   9
ENDBRANCH   6   7
ENDBRANCH   5   6
BRANCH   5  12
HETATM   12  C5  LIG X 999      44.897 129.045  22.166  1.00  0.00    -0.000 A 
HETATM   13  C6  LIG X 999      44.191 129.097  23.378  1.00  0.00     0.015 A 
HETATM   14  C7  LIG X 999      44.093 127.966  24.193  1.00  0.00     0.013 A 
HETATM   15  C8  LIG X 999      44.698 126.763  23.805  1.00  0.00    -0.026 A 
HETATM   16  C9  LIG X 999      44.608 125.621  24.617  1.00  0.00     0.012 A 
HETATM   17  C13 LIG X 999      45.409 126.698  22.582  1.00  0.00    -0.025 A 
HETATM   18  C10 LIG X 999      45.217 124.428  24.220  1.00  0.00     0.001 A 
HETATM   19  C11 LIG X 999      45.919 124.364  23.012  1.00  0.00     0.001 A 
HETATM   20  C12 LIG X 999      46.016 125.493  22.194  1.00  0.00     0.012 A 
HETATM   21  C14 LIG X 999      45.501 127.839  21.769  1.00  0.00     0.026 A 
ENDBRANCH   5  12
ENDBRANCH   1   4
TORSDOF 5
ENDMDL
MODEL 6
REMARK VINA RESULT:      -5.2      2.932      3.866
REMARK  5 active torsions:
REMARK  status: ('A' for Active; 'I' for Inactive)
REMARK    1  A    between atoms: C1_1  and  N1_2 
REMARK    2  A    between atoms: C2_5  and  O1_6 
REMARK    3  A    between atoms: C2_5  and  C5_12 
REMARK    4  A    between atoms: O1_6  and  C3_7 
REMARK    5  A    between atoms: C3_7  and  C4_9 
ROOT
HETATM    1  N1  LIG X 999      42.285 132.410  21.307  1.00  0.00    -0.082 NA
HETATM    2  N2  LIG X 999      41.293 133.139  21.318  1.00  0.00    -0.163 NA
HETATM    3  N3  LIG X 999      40.302 133.867  21.329  1.00  0.00     0.068 N 
ENDROOT
BRANCH   1   4
HETATM    4  C1  LIG X 999      42.923 132.071  20.076  1.00  0.00     0.193 C 
HETATM    5  C2  LIG X 999      44.133 131.502  20.076  1.00  0.00     0.101 C 
BRANCH   5   6
HETATM    6  O1  LIG X 999      44.746 131.207  21.303  1.00  0.00    -0.324 OA
BRANCH   6   7
HETATM    7  C3  LIG X 999      44.278 130.232  22.244  1.00  0.00     0.273 C 
HETATM    8 CL1  LIG X 999      45.081 128.644  22.061  1.00  0.00    -0.090 Cl
BRANCH   7   9
HETATM    9  C4  LIG X 999      44.350 130.741  23.692  1.00  0.00     0.309 C 
HETATM   10  F1  LIG X 999      44.766 129.721  24.527  1.00  0.00    -0.229 F 
HETATM   11 CL2  LIG X 999      42.792 131.385  24.284  1.00  0.00    -0.086 Cl
ENDBRANCH   7   9
ENDBRANCH   6   7
ENDBRANCH   5   6
BRANCH   5  12
HETATM   12  C5  LIG X 999      44.782 131.124  18.799  1.00  0.00    -0.000 A 
HETATM   13  C6  LIG X 999      45.918 130.300  18.817  1.00  0.00     0.015 A 
HETATM   14  C7  LIG X 999      46.547 129.931  17.625  1.00  0.00     0.013 A 
HETATM   15  C8  LIG X 999      46.047 130.381  16.395  1.00  0.00    -0.026 A 
HETATM   16  C9  LIG X 999      46.674 130.019  15.192  1.00  0.00     0.012 A 
HETATM   17  C13 LIG X 999      44.899 131.209  16.366  1.00  0.00    -0.025 A 
HETATM   18  C10 LIG X 999      46.166 130.475  13.972  1.00  0.00     0.001 A 
HETATM   19  C11 LIG X 999      45.033 131.293  13.944  1.00  0.00     0.001 A 
HETATM   20  C12 LIG X 999      44.399 131.661  15.134  1.00  0.00     0.012 A 
HETATM   21  C14 LIG X 999      44.273 131.573  17.568  1.00  0.00     0.026 A 
ENDBRANCH   5  12
ENDBRANCH   1   4
TORSDOF 5
ENDMDL
MODEL 7
REMARK VINA RESULT:      -5.2      2.796      3.563
REMARK  5 active torsions:
REMARK  status: ('A' for Active; 'I' for Inactive)
REMARK    1  A    between atoms: C1_1  and  N1_2 
REMARK    2  A    between atoms: C2_5  and  O1_6 
REMARK    3  A    between atoms: C2_5  and  C5_12 
REMARK    4  A    between atoms: O1_6  and  C3_7 
REMARK    5  A    between atoms: C3_7  and  C4_9 
ROOT
HETATM    1  N1  LIG X 999      46.545 132.761  22.045  1.00  0.00    -0.082 NA
HETATM    2  N2  LIG X 999      47.472 133.500  22.375  1.00  0.00    -0.163 NA
HETATM    3  N3  LIG X 999      48.400 134.238  22.704  1.00  0.00     0.068 N 
ENDROOT
BRANCH   1   4
HETATM    4  C1  LIG X 999      46.135 132.675  20.681  1.00  0.00     0.193 C 
HETATM    5  C2  LIG X 999      45.396 131.643  20.260  1.00  0.00     0.101 C 
BRANCH   5   6
HETATM    6  O1  LIG X 999      44.997 130.670  21.188  1.00  0.00    -0.324 OA
BRANCH   6   7
HETATM    7  C3  LIG X 999      44.235 130.926  22.375  1.00  0.00     0.273 C 
HETATM    8 CL1  LIG X 999      42.745 131.864  22.058  1.00  0.00    -0.090 Cl
BRANCH   7   9
HETATM    9  C4  LIG X 999      43.939 129.641  23.165  1.00  0.00     0.309 C 
HETATM   10  F1  LIG X 999      44.126 129.869  24.516  1.00  0.00    -0.229 F 
HETATM   11 CL2  LIG X 999      44.956 128.262  22.658  1.00  0.00    -0.086 Cl
ENDBRANCH   7   9
ENDBRANCH   6   7
ENDBRANCH   5   6
BRANCH   5  12
HETATM   12  C5  LIG X 999      44.947 131.570  18.851  1.00  0.00    -0.000 A 
HETATM   13  C6  LIG X 999      43.598 131.804  18.540  1.00  0.00     0.015 A 
HETATM   14  C7  LIG X 999      43.152 131.739  17.218  1.00  0.00     0.013 A 
HETATM   15  C8  LIG X 999      44.050 131.439  16.184  1.00  0.00    -0.026 A 
HETATM   16  C9  LIG X 999      43.612 131.369  14.852  1.00  0.00     0.012 A 
HETATM   17  C13 LIG X 999      45.414 131.206  16.486  1.00  0.00    -0.025 A 
HETATM   18  C10 LIG X 999      44.517 131.068  13.831  1.00  0.00     0.001 A 
HETATM   19  C11 LIG X 999      45.863 130.837  14.129  1.00  0.00     0.001 A 
HETATM   20  C12 LIG X 999      46.313 130.905  15.451  1.00  0.00     0.012 A 
HETATM   21  C14 LIG X 999      45.853 131.275  17.817  1.00  0.00     0.026 A 
ENDBRANCH   5  12
ENDBRANCH   1   4
TORSDOF 5
ENDMDL
MODEL 8
REMARK VINA RESULT:      -5.1      4.288      6.857
REMARK  5 active torsions:
REMARK  status: ('A' for Active; 'I' for Inactive)
REMARK    1  A    between atoms: C1_1  and  N1_2 
REMARK    2  A    between atoms: C2_5  and  O1_6 
REMARK    3  A    between atoms: C2_5  and  C5_12 
REMARK    4  A    between atoms: O1_6  and  C3_7 
REMARK    5  A    between atoms: C3_7  and  C4_9 
ROOT
HETATM    1  N1  LIG X 999      42.672 131.714  24.392  1.00  0.00    -0.082 NA
HETATM    2  N2  LIG X 999      43.641 132.466  24.493  1.00  0.00    -0.163 NA
HETATM    3  N3  LIG X 999      44.609 133.218  24.594  1.00  0.00     0.068 N 
ENDROOT
BRANCH   1   4
HETATM    4  C1  LIG X 999      42.857 130.303  24.285  1.00  0.00     0.193 C 
HETATM    5  C2  LIG X 999      43.658 129.795  23.342  1.00  0.00     0.101 C 
BRANCH   5   6
HETATM    6  O1  LIG X 999      44.344 130.672  22.488  1.00  0.00    -0.324 OA
BRANCH   6   7
HETATM    7  C3  LIG X 999      44.042 130.875  21.101  1.00  0.00     0.273 C 
HETATM    8 CL1  LIG X 999      42.709 132.039  20.842  1.00  0.00    -0.090 Cl
BRANCH   7   9
HETATM    9  C4  LIG X 999      45.288 131.248  20.284  1.00  0.00     0.309 C 
HETATM   10  F1  LIG X 999      45.928 132.324  20.869  1.00  0.00    -0.229 F 
HETATM   11 CL2  LIG X 999      44.913 131.645  18.582  1.00  0.00    -0.086 Cl
ENDBRANCH   7   9
ENDBRANCH   6   7
ENDBRANCH   5   6
BRANCH   5  12
HETATM   12  C5  LIG X 999      43.872 128.332  23.250  1.00  0.00    -0.000 A 
HETATM   13  C6  LIG X 999      42.856 127.456  23.666  1.00  0.00     0.015 A 
HETATM   14  C7  LIG X 999      43.036 126.073  23.589  1.00  0.00     0.013 A 
HETATM   15  C8  LIG X 999      44.235 125.544  23.092  1.00  0.00    -0.026 A 
HETATM   16  C9  LIG X 999      44.427 124.155  23.013  1.00  0.00     0.012 A 
HETATM   17  C13 LIG X 999      45.264 126.419  22.666  1.00  0.00    -0.025 A 
HETATM   18  C10 LIG X 999      45.628 123.640  22.517  1.00  0.00     0.001 A 
HETATM   19  C11 LIG X 999      46.643 124.504  22.097  1.00  0.00     0.001 A 
HETATM   20  C12 LIG X 999      46.466 125.888  22.170  1.00  0.00     0.012 A 
HETATM   21  C14 LIG X 999      45.074 127.807  22.745  1.00  0.00     0.026 A 
ENDBRANCH   5  12
ENDBRANCH   1   4
TORSDOF 5
ENDMDL
MODEL 9
REMARK VINA RESULT:      -5.0      5.000      7.022
REMARK  5 active torsions:
REMARK  status: ('A' for Active; 'I' for Inactive)
REMARK    1  A    between atoms: C1_1  and  N1_2 
REMARK    2  A    between atoms: C2_5  and  O1_6 
REMARK    3  A    between atoms: C2_5  and  C5_12 
REMARK    4  A    between atoms: O1_6  and  C3_7 
REMARK    5  A    between atoms: C3_7  and  C4_9 
ROOT
HETATM    1  N1  LIG X 999      45.002 130.967  21.363  1.00  0.00    -0.082 NA
HETATM    2  N2  LIG X 999      44.287 131.442  20.481  1.00  0.00    -0.163 NA
HETATM    3  N3  LIG X 999      43.573 131.915  19.598  1.00  0.00     0.068 N 
ENDROOT
BRANCH   1   4
HETATM    4  C1  LIG X 999      45.138 129.554  21.506  1.00  0.00     0.193 C 
HETATM    5  C2  LIG X 999      44.685 128.939  22.604  1.00  0.00     0.101 C 
BRANCH   5   6
HETATM    6  O1  LIG X 999      44.039 129.698  23.591  1.00  0.00    -0.324 OA
BRANCH   6   7
HETATM    7  C3  LIG X 999      42.671 130.124  23.541  1.00  0.00     0.273 C 
HETATM    8 CL1  LIG X 999      41.597 129.141  24.580  1.00  0.00    -0.090 Cl
BRANCH   7   9
HETATM    9  C4  LIG X 999      42.519 131.626  23.827  1.00  0.00     0.309 C 
HETATM   10  F1  LIG X 999      42.269 132.304  22.649  1.00  0.00    -0.229 F 
HETATM   11 CL2  LIG X 999      43.957 132.334  24.617  1.00  0.00    -0.086 Cl
ENDBRANCH   7   9
ENDBRANCH   6   7
ENDBRANCH   5   6
BRANCH   5  12
HETATM   12  C5  LIG X 999      44.800 127.469  22.739  1.00  0.00    -0.000 A 
HETATM   13  C6  LIG X 999      43.776 126.749  23.374  1.00  0.00     0.015 A 
HETATM   14  C7  LIG X 999      43.864 125.361  23.514  1.00  0.00     0.013 A 
HETATM   15  C8  LIG X 999      44.978 124.671  23.017  1.00  0.00    -0.026 A 
HETATM   16  C9  LIG X 999      45.078 123.278  23.155  1.00  0.00     0.012 A 
HETATM   17  C13 LIG X 999      46.015 125.387  22.371  1.00  0.00    -0.025 A 
HETATM   18  C10 LIG X 999      46.195 122.602  22.657  1.00  0.00     0.001 A 
HETATM   19  C11 LIG X 999      47.218 123.309  22.020  1.00  0.00     0.001 A 
HETATM   20  C12 LIG X 999      47.132 124.696  21.875  1.00  0.00     0.012 A 
HETATM   21  C14 LIG X 999      45.917 126.781  22.234  1.00  0.00     0.026 A 
ENDBRANCH   5  12
ENDBRANCH   1   4
TORSDOF 5
ENDMDL
