MODEL 1
REMARK VINA RESULT:      -6.7      0.000      0.000
REMARK  4 active torsions:
REMARK  status: ('A' for Active; 'I' for Inactive)
REMARK    1  A    between atoms: C3_3  and  C4_4 
REMARK    2  A    between atoms: C4_4  and  C5_5 
REMARK    3  A    between atoms: C5_5  and  N1_6 
REMARK    4  A    between atoms: N4_15  and  C12_16 
ROOT
HETATM    1  C12 LIG X 999      44.146 131.348  18.758  1.00  0.00     0.055 A 
HETATM    2  C13 LIG X 999      43.393 132.014  17.777  1.00  0.00     0.032 A 
HETATM    3  C14 LIG X 999      43.820 132.032  16.448  1.00  0.00     0.014 A 
HETATM    4  C15 LIG X 999      45.001 131.374  16.075  1.00  0.00    -0.024 A 
HETATM    5  C16 LIG X 999      45.439 131.387  14.741  1.00  0.00     0.034 A 
HETATM    6  C17 LIG X 999      46.616 130.720  14.381  1.00  0.00     0.045 A 
HETATM    7  C18 LIG X 999      47.062 130.737  13.012  1.00  0.00     0.099 C 
HETATM    8  N5  LIG X 999      47.421 130.750  11.912  1.00  0.00    -0.191 NA
HETATM    9  C19 LIG X 999      47.359 130.036  15.351  1.00  0.00     0.023 A 
HETATM   10  C20 LIG X 999      46.931 130.016  16.681  1.00  0.00     0.014 A 
HETATM   11  C21 LIG X 999      45.754 130.681  17.054  1.00  0.00    -0.024 A 
HETATM   12  C22 LIG X 999      45.316 130.669  18.387  1.00  0.00     0.043 A 
ENDROOT
BRANCH   1  13
HETATM   13  N4  LIG X 999      43.702 131.307  20.124  1.00  0.00    -0.241 N 
HETATM   14  C2  LIG X 999      44.227 130.618  21.161  1.00  0.00     0.055 A 
HETATM   15  C1  LIG X 999      45.408 129.696  21.104  1.00  0.00     0.072 C 
HETATM   16  C3  LIG X 999      43.459 130.937  22.267  1.00  0.00     0.078 A 
HETATM   17  N2  LIG X 999      42.497 131.794  21.874  1.00  0.00    -0.162 NA
HETATM   18  N3  LIG X 999      42.661 131.992  20.573  1.00  0.00     0.010 NA
BRANCH  16  19
HETATM   19  C4  LIG X 999      43.682 130.538  23.699  1.00  0.00     0.093 C 
BRANCH  19  20
HETATM   20  C5  LIG X 999      42.609 129.549  24.162  1.00  0.00     0.279 C 
BRANCH  20  21
HETATM   21  N1  LIG X 999      43.233 128.290  24.625  1.00  0.00     0.093 N 
HETATM   22  C6  LIG X 999      44.705 128.315  24.533  1.00  0.00     0.273 C 
HETATM   23  C7  LIG X 999      45.142 127.174  23.629  1.00  0.00     0.036 C 
HETATM   24  C8  LIG X 999      43.978 126.206  23.666  1.00  0.00     0.016 C 
HETATM   25  C9  LIG X 999      43.893 125.347  22.399  1.00  0.00     0.012 C 
HETATM   26  C10 LIG X 999      42.765 127.121  23.859  1.00  0.00     0.222 C 
HETATM   27  C11 LIG X 999      41.639 126.420  24.625  1.00  0.00     0.043 C 
ENDBRANCH  20  21
ENDBRANCH  19  20
ENDBRANCH  16  19
ENDBRANCH   1  13
TORSDOF 4
ENDMDL
MODEL 2
REMARK VINA RESULT:      -6.7      1.285      2.003
REMARK  4 active torsions:
REMARK  status: ('A' for Active; 'I' for Inactive)
REMARK    1  A    between atoms: C3_3  and  C4_4 
REMARK    2  A    between atoms: C4_4  and  C5_5 
REMARK    3  A    between atoms: C5_5  and  N1_6 
REMARK    4  A    between atoms: N4_15  and  C12_16 
ROOT
HETATM    1  C12 LIG X 999      45.018 131.099  19.085  1.00  0.00     0.055 A 
HETATM    2  C13 LIG X 999      44.635 132.278  18.424  1.00  0.00     0.032 A 
HETATM    3  C14 LIG X 999      45.000 132.496  17.094  1.00  0.00     0.014 A 
HETATM    4  C15 LIG X 999      45.744 131.533  16.398  1.00  0.00    -0.024 A 
HETATM    5  C16 LIG X 999      46.116 131.744  15.061  1.00  0.00     0.034 A 
HETATM    6  C17 LIG X 999      46.853 130.770  14.375  1.00  0.00     0.045 A 
HETATM    7  C18 LIG X 999      47.233 130.991  13.003  1.00  0.00     0.099 C 
HETATM    8  N5  LIG X 999      47.540 131.167  11.901  1.00  0.00    -0.191 NA
HETATM    9  C19 LIG X 999      47.219 129.583  15.020  1.00  0.00     0.023 A 
HETATM   10  C20 LIG X 999      46.852 129.364  16.351  1.00  0.00     0.014 A 
HETATM   11  C21 LIG X 999      46.115 130.331  17.049  1.00  0.00    -0.024 A 
HETATM   12  C22 LIG X 999      45.743 130.122  18.386  1.00  0.00     0.043 A 
ENDROOT
BRANCH   1  13
HETATM   13  N4  LIG X 999      44.629 130.858  20.446  1.00  0.00    -0.241 N 
HETATM   14  C2  LIG X 999      43.500 131.241  21.081  1.00  0.00     0.055 A 
HETATM   15  C1  LIG X 999      42.383 132.051  20.491  1.00  0.00     0.072 C 
HETATM   16  C3  LIG X 999      43.587 130.739  22.368  1.00  0.00     0.078 A 
HETATM   17  N2  LIG X 999      44.757 130.078  22.478  1.00  0.00    -0.162 NA
HETATM   18  N3  LIG X 999      45.370 130.175  21.306  1.00  0.00     0.010 NA
BRANCH  16  19
HETATM   19  C4  LIG X 999      42.548 130.774  23.451  1.00  0.00     0.093 C 
BRANCH  19  20
HETATM   20  C5  LIG X 999      42.576 129.483  24.275  1.00  0.00     0.279 C 
BRANCH  20  21
HETATM   21  N1  LIG X 999      42.214 128.324  23.431  1.00  0.00     0.093 N 
HETATM   22  C6  LIG X 999      40.774 128.007  23.481  1.00  0.00     0.273 C 
HETATM   23  C7  LIG X 999      40.620 126.580  23.977  1.00  0.00     0.036 C 
HETATM   24  C8  LIG X 999      41.960 125.939  23.681  1.00  0.00     0.016 C 
HETATM   25  C9  LIG X 999      42.269 124.772  24.625  1.00  0.00     0.012 C 
HETATM   26  C10 LIG X 999      42.945 127.103  23.815  1.00  0.00     0.222 C 
HETATM   27  C11 LIG X 999      44.165 126.926  22.906  1.00  0.00     0.043 C 
ENDBRANCH  20  21
ENDBRANCH  19  20
ENDBRANCH  16  19
ENDBRANCH   1  13
TORSDOF 4
ENDMDL
MODEL 3
REMARK VINA RESULT:      -6.1      5.860      7.596
REMARK  4 active torsions:
REMARK  status: ('A' for Active; 'I' for Inactive)
REMARK    1  A    between atoms: C3_3  and  C4_4 
REMARK    2  A    between atoms: C4_4  and  C5_5 
REMARK    3  A    between atoms: C5_5  and  N1_6 
REMARK    4  A    between atoms: N4_15  and  C12_16 
ROOT
HETATM    1  C12 LIG X 999      47.247 125.088  22.746  1.00  0.00     0.055 A 
HETATM    2  C13 LIG X 999      48.433 125.566  23.326  1.00  0.00     0.032 A 
HETATM    3  C14 LIG X 999      49.670 125.300  22.735  1.00  0.00     0.014 A 
HETATM    4  C15 LIG X 999      49.739 124.561  21.545  1.00  0.00    -0.024 A 
HETATM    5  C16 LIG X 999      50.978 124.287  20.943  1.00  0.00     0.034 A 
HETATM    6  C17 LIG X 999      51.033 123.554  19.751  1.00  0.00     0.045 A 
HETATM    7  C18 LIG X 999      52.306 123.274  19.137  1.00  0.00     0.099 C 
HETATM    8  N5  LIG X 999      53.328 123.050  18.643  1.00  0.00    -0.191 NA
HETATM    9  C19 LIG X 999      49.853 123.093  19.156  1.00  0.00     0.023 A 
HETATM   10  C20 LIG X 999      48.615 123.361  19.747  1.00  0.00     0.014 A 
HETATM   11  C21 LIG X 999      48.547 124.093  20.941  1.00  0.00    -0.024 A 
HETATM   12  C22 LIG X 999      47.310 124.367  21.544  1.00  0.00     0.043 A 
ENDROOT
BRANCH   1  13
HETATM   13  N4  LIG X 999      45.970 125.376  23.338  1.00  0.00    -0.241 N 
HETATM   14  C2  LIG X 999      45.122 126.390  23.062  1.00  0.00     0.055 A 
HETATM   15  C1  LIG X 999      45.349 127.488  22.065  1.00  0.00     0.072 C 
HETATM   16  C3  LIG X 999      44.019 126.208  23.877  1.00  0.00     0.078 A 
HETATM   17  N2  LIG X 999      44.230 125.104  24.622  1.00  0.00    -0.162 NA
HETATM   18  N3  LIG X 999      45.420 124.628  24.283  1.00  0.00     0.010 NA
BRANCH  16  19
HETATM   19  C4  LIG X 999      42.733 126.985  23.888  1.00  0.00     0.093 C 
BRANCH  19  20
HETATM   20  C5  LIG X 999      41.635 126.211  24.625  1.00  0.00     0.279 C 
BRANCH  20  21
HETATM   21  N1  LIG X 999      40.723 125.563  23.657  1.00  0.00     0.093 N 
HETATM   22  C6  LIG X 999      39.334 126.047  23.770  1.00  0.00     0.273 C 
HETATM   23  C7  LIG X 999      38.441 124.856  24.074  1.00  0.00     0.036 C 
HETATM   24  C8  LIG X 999      39.241 123.663  23.594  1.00  0.00     0.016 C 
HETATM   25  C9  LIG X 999      38.874 122.376  24.342  1.00  0.00     0.012 C 
HETATM   26  C10 LIG X 999      40.691 124.099  23.814  1.00  0.00     0.222 C 
HETATM   27  C11 LIG X 999      41.641 123.452  22.801  1.00  0.00     0.043 C 
ENDBRANCH  20  21
ENDBRANCH  19  20
ENDBRANCH  16  19
ENDBRANCH   1  13
TORSDOF 4
ENDMDL
MODEL 4
REMARK VINA RESULT:      -5.2      4.766      7.552
REMARK  4 active torsions:
REMARK  status: ('A' for Active; 'I' for Inactive)
REMARK    1  A    between atoms: C3_3  and  C4_4 
REMARK    2  A    between atoms: C4_4  and  C5_5 
REMARK    3  A    between atoms: C5_5  and  N1_6 
REMARK    4  A    between atoms: N4_15  and  C12_16 
ROOT
HETATM    1  C12 LIG X 999      46.896 125.036  22.452  1.00  0.00     0.055 A 
HETATM    2  C13 LIG X 999      47.967 125.641  23.130  1.00  0.00     0.032 A 
HETATM    3  C14 LIG X 999      49.285 125.377  22.752  1.00  0.00     0.014 A 
HETATM    4  C15 LIG X 999      49.554 124.514  21.680  1.00  0.00    -0.024 A 
HETATM    5  C16 LIG X 999      50.876 124.242  21.293  1.00  0.00     0.034 A 
HETATM    6  C17 LIG X 999      51.131 123.383  20.217  1.00  0.00     0.045 A 
HETATM    7  C18 LIG X 999      52.489 123.106  19.823  1.00  0.00     0.099 C 
HETATM    8  N5  LIG X 999      53.579 122.883  19.507  1.00  0.00    -0.191 NA
HETATM    9  C19 LIG X 999      50.067 122.794  19.522  1.00  0.00     0.023 A 
HETATM   10  C20 LIG X 999      48.748 123.059  19.899  1.00  0.00     0.014 A 
HETATM   11  C21 LIG X 999      48.480 123.917  20.977  1.00  0.00    -0.024 A 
HETATM   12  C22 LIG X 999      47.159 124.189  21.365  1.00  0.00     0.043 A 
ENDROOT
BRANCH   1  13
HETATM   13  N4  LIG X 999      45.537 125.318  22.821  1.00  0.00    -0.241 N 
HETATM   14  C2  LIG X 999      45.078 126.194  23.741  1.00  0.00     0.055 A 
HETATM   15  C1  LIG X 999      45.915 127.071  24.625  1.00  0.00     0.072 C 
HETATM   16  C3  LIG X 999      43.697 126.115  23.699  1.00  0.00     0.078 A 
HETATM   17  N2  LIG X 999      43.361 125.198  22.770  1.00  0.00    -0.162 NA
HETATM   18  N3  LIG X 999      44.492 124.725  22.264  1.00  0.00     0.010 NA
BRANCH  16  19
HETATM   19  C4  LIG X 999      42.695 126.960  24.432  1.00  0.00     0.093 C 
BRANCH  19  20
HETATM   20  C5  LIG X 999      42.193 128.103  23.545  1.00  0.00     0.279 C 
BRANCH  20  21
HETATM   21  N1  LIG X 999      43.064 129.290  23.690  1.00  0.00     0.093 N 
HETATM   22  C6  LIG X 999      42.429 130.373  24.465  1.00  0.00     0.273 C 
HETATM   23  C7  LIG X 999      42.371 131.611  23.587  1.00  0.00     0.036 C 
HETATM   24  C8  LIG X 999      43.445 131.378  22.546  1.00  0.00     0.016 C 
HETATM   25  C9  LIG X 999      43.160 132.122  21.236  1.00  0.00     0.012 C 
HETATM   26  C10 LIG X 999      43.458 129.856  22.387  1.00  0.00     0.222 C 
HETATM   27  C11 LIG X 999      44.844 129.334  21.998  1.00  0.00     0.043 C 
ENDBRANCH  20  21
ENDBRANCH  19  20
ENDBRANCH  16  19
ENDBRANCH   1  13
TORSDOF 4
ENDMDL
MODEL 5
REMARK VINA RESULT:      -4.0      5.030      8.876
REMARK  4 active torsions:
REMARK  status: ('A' for Active; 'I' for Inactive)
REMARK    1  A    between atoms: C3_3  and  C4_4 
REMARK    2  A    between atoms: C4_4  and  C5_5 
REMARK    3  A    between atoms: C5_5  and  N1_6 
REMARK    4  A    between atoms: N4_15  and  C12_16 
ROOT
HETATM    1  C12 LIG X 999      45.755 126.474  22.582  1.00  0.00     0.055 A 
HETATM    2  C13 LIG X 999      46.055 127.485  21.654  1.00  0.00     0.032 A 
HETATM    3  C14 LIG X 999      45.374 128.704  21.689  1.00  0.00     0.014 A 
HETATM    4  C15 LIG X 999      44.390 128.936  22.661  1.00  0.00    -0.024 A 
HETATM    5  C16 LIG X 999      43.699 130.157  22.703  1.00  0.00     0.034 A 
HETATM    6  C17 LIG X 999      42.724 130.380  23.683  1.00  0.00     0.045 A 
HETATM    7  C18 LIG X 999      42.017 131.634  23.723  1.00  0.00     0.099 C 
HETATM    8  N5  LIG X 999      41.448 132.641  23.756  1.00  0.00    -0.191 NA
HETATM    9  C19 LIG X 999      42.436 129.384  24.625  1.00  0.00     0.023 A 
HETATM   10  C20 LIG X 999      43.119 128.165  24.591  1.00  0.00     0.014 A 
HETATM   11  C21 LIG X 999      44.097 127.930  23.614  1.00  0.00    -0.024 A 
HETATM   12  C22 LIG X 999      44.788 126.710  23.570  1.00  0.00     0.043 A 
ENDROOT
BRANCH   1  13
HETATM   13  N4  LIG X 999      46.466 125.226  22.566  1.00  0.00    -0.241 N 
HETATM   14  C2  LIG X 999      47.716 124.961  23.004  1.00  0.00     0.055 A 
HETATM   15  C1  LIG X 999      48.675 125.951  23.597  1.00  0.00     0.072 C 
HETATM   16  C3  LIG X 999      47.924 123.609  22.794  1.00  0.00     0.078 A 
HETATM   17  N2  LIG X 999      46.809 123.099  22.235  1.00  0.00    -0.162 NA
HETATM   18  N3  LIG X 999      45.950 124.099  22.098  1.00  0.00     0.010 NA
BRANCH  16  19
HETATM   19  C4  LIG X 999      49.101 122.775  23.211  1.00  0.00     0.093 C 
BRANCH  19  20
HETATM   20  C5  LIG X 999      49.944 122.375  21.995  1.00  0.00     0.279 C 
BRANCH  20  21
HETATM   21  N1  LIG X 999      50.010 123.490  21.025  1.00  0.00     0.093 N 
HETATM   22  C6  LIG X 999      49.491 123.120  19.694  1.00  0.00     0.273 C 
HETATM   23  C7  LIG X 999      50.601 123.328  18.679  1.00  0.00     0.036 C 
HETATM   24  C8  LIG X 999      51.536 124.313  19.349  1.00  0.00     0.016 C 
HETATM   25  C9  LIG X 999      52.978 124.185  18.844  1.00  0.00     0.012 C 
HETATM   26  C10 LIG X 999      51.385 123.985  20.837  1.00  0.00     0.222 C 
HETATM   27  C11 LIG X 999      51.613 125.217  21.719  1.00  0.00     0.043 C 
ENDBRANCH  20  21
ENDBRANCH  19  20
ENDBRANCH  16  19
ENDBRANCH   1  13
TORSDOF 4
ENDMDL
