REMARK VINA RESULT:      -6.9      1.760      3.144
REMARK  1 active torsions:
REMARK  status: ('A' for Active; 'I' for Inactive)
REMARK    1  A    between atoms: C8_8  and  N1_9 
ROOT
HETATM    1  N1  LIG X 999      45.336 131.097  16.822  1.00  0.00    -0.072 NA
HETATM    2  N2  LIG X 999      45.289 130.093  16.111  1.00  0.00    -0.162 NA
HETATM    3  N3  LIG X 999      45.238 129.094  15.396  1.00  0.00     0.068 N 
ENDROOT
BRANCH   1   4
HETATM    4  C8  LIG X 999      45.087 131.062  18.235  1.00  0.00     0.104 A 
HETATM    5  C7  LIG X 999      46.062 130.436  19.060  1.00  0.00     0.038 A 
HETATM    6  C6  LIG X 999      45.925 130.397  20.465  1.00  0.00     0.035 A 
HETATM    7  C5  LIG X 999      44.797 130.988  21.029  1.00  0.00     0.073 A 
HETATM    8  C4  LIG X 999      43.855 131.562  20.228  1.00  0.00     0.021 A 
HETATM    9  N4  LIG X 999      44.427 131.041  22.411  1.00  0.00    -0.209 NA
HETATM   10  C3  LIG X 999      42.810 132.020  20.963  1.00  0.00     0.047 A 
HETATM   11  C9  LIG X 999      43.923 131.617  18.841  1.00  0.00     0.009 A 
HETATM   12  C2  LIG X 999      41.697 132.587  20.346  1.00  0.00     0.018 A 
HETATM   13  C11 LIG X 999      43.154 131.705  22.345  1.00  0.00     0.278 A 
HETATM   14  C1  LIG X 999      41.698 132.660  18.936  1.00  0.00     0.002 A 
HETATM   15  C10 LIG X 999      42.797 132.170  18.182  1.00  0.00     0.015 A 
HETATM   16  O1  LIG X 999      42.445 131.962  23.353  1.00  0.00    -0.265 OA
ENDBRANCH   1   4
TORSDOF 1
