REMARK VINA RESULT:      -6.7      1.406      2.711
REMARK  3 active torsions:
REMARK  status: ('A' for Active; 'I' for Inactive)
REMARK    1  A    between atoms: C7_9  and  C8_10 
REMARK    2  A    between atoms: C9_14  and  N4_15 
REMARK    3  A    between atoms: N7_24  and  C14_25 
ROOT
HETATM    1  N4  LIG X 999      47.002 131.034  13.792  1.00  0.00    -0.025 NA
HETATM    2  N5  LIG X 999      47.878 130.264  13.399  1.00  0.00    -0.158 NA
HETATM    3  N6  LIG X 999      48.753 129.495  13.007  1.00  0.00     0.068 N 
ENDROOT
BRANCH   1   4
HETATM    4  C9  LIG X 999      46.186 130.699  14.913  1.00  0.00     0.302 A 
HETATM    5  N3  LIG X 999      45.130 129.875  14.853  1.00  0.00    -0.236 N 
HETATM    6  N2  LIG X 999      44.625 129.802  16.074  1.00  0.00    -0.145 NA
HETATM    7  H4  LIG X 999      44.756 129.378  14.016  1.00  0.00     0.193 HD
HETATM    8  C8  LIG X 999      45.411 130.590  16.841  1.00  0.00     0.203 A 
HETATM    9  O1  LIG X 999      46.367 131.150  16.130  1.00  0.00    -0.253 OA
BRANCH   8  10
HETATM   10  C7  LIG X 999      45.180 130.829  18.280  1.00  0.00     0.032 A 
HETATM   11  C6  LIG X 999      43.973 131.399  18.790  1.00  0.00     0.020 A 
HETATM   12  C1  LIG X 999      42.838 132.031  18.039  1.00  0.00     0.060 A 
HETATM   13  C5  LIG X 999      43.850 131.445  20.168  1.00  0.00     0.019 A 
HETATM   14  N1  LIG X 999      42.899 132.217  16.759  1.00  0.00    -0.299 NA
HETATM   15  C2  LIG X 999      41.659 132.551  18.814  1.00  0.00     0.034 A 
HETATM   16  H1  LIG X 999      42.131 132.688  16.231  1.00  0.00     0.187 HD
HETATM   17  C3  LIG X 999      41.637 132.522  20.162  1.00  0.00     0.033 A 
HETATM   18  C4  LIG X 999      42.797 131.949  20.865  1.00  0.00     0.048 A 
HETATM   19  N7  LIG X 999      43.050 131.864  22.194  1.00  0.00    -0.324 N 
HETATM   20  C13 LIG X 999      44.292 131.315  22.302  1.00  0.00     0.193 A 
HETATM   21  C12 LIG X 999      44.803 131.041  21.046  1.00  0.00     0.032 A 
HETATM   22  O2  LIG X 999      44.948 131.090  23.507  1.00  0.00    -0.171 OA
HETATM   23  C11 LIG X 999      46.012 130.525  20.595  1.00  0.00     0.018 A 
HETATM   24  C10 LIG X 999      46.195 130.416  19.198  1.00  0.00     0.018 A 
BRANCH  19  25
HETATM   25  C14 LIG X 999      42.217 132.364  23.288  1.00  0.00     0.127 C 
HETATM   26  C15 LIG X 999      41.955 131.258  24.302  1.00  0.00     0.027 C 
ENDBRANCH  19  25
ENDBRANCH   8  10
ENDBRANCH   1   4
TORSDOF 3
