REMARK VINA RESULT:      -6.3      2.349      5.454
REMARK  1 active torsions:
REMARK  status: ('A' for Active; 'I' for Inactive)
REMARK    1  A    between atoms: N1_2  and  C1_3 
ROOT
HETATM    1  C1  LIG X 999      44.973 131.543  16.588  1.00  0.00     0.120 C 
HETATM    2  C2  LIG X 999      43.658 131.922  16.862  1.00  0.00     0.057 C 
HETATM    3  C3  LIG X 999      43.138 131.798  18.158  1.00  0.00    -0.045 C 
HETATM    4  C4  LIG X 999      41.641 131.934  18.288  1.00  0.00     0.049 C 
HETATM    5  C5  LIG X 999      44.010 131.418  19.228  1.00  0.00     0.008 C 
HETATM    6  C6  LIG X 999      43.674 131.459  20.623  1.00  0.00    -0.013 C 
HETATM    7  C7  LIG X 999      42.616 132.239  21.148  1.00  0.00     0.013 C 
HETATM    8  C8  LIG X 999      42.296 132.200  22.506  1.00  0.00     0.001 C 
HETATM    9  C9  LIG X 999      43.048 131.426  23.385  1.00  0.00     0.001 C 
HETATM   10  C10 LIG X 999      44.160 130.732  22.918  1.00  0.00     0.012 C 
HETATM   11  C11 LIG X 999      44.504 130.774  21.556  1.00  0.00    -0.025 C 
HETATM   12  C12 LIG X 999      45.697 130.184  21.136  1.00  0.00     0.014 C 
HETATM   13  C13 LIG X 999      46.114 130.306  19.819  1.00  0.00     0.031 C 
HETATM   14  C14 LIG X 999      45.297 130.922  18.864  1.00  0.00     0.045 C 
HETATM   15  N2  LIG X 999      45.742 131.021  17.578  1.00  0.00    -0.341 N 
HETATM   16  H12 LIG X 999      46.705 130.687  17.337  1.00  0.00     0.167 HD
ENDROOT
BRANCH   1  17
HETATM   17  N1  LIG X 999      45.453 131.646  15.388  1.00  0.00    -0.284 NA
HETATM   18  H1  LIG X 999      45.172 131.006  14.612  1.00  0.00     0.188 HD
ENDBRANCH   1  17
TORSDOF 1
