REMARK VINA RESULT:      -4.6      3.837      5.605
REMARK  3 active torsions:
REMARK  status: ('A' for Active; 'I' for Inactive)
REMARK    1  A    between atoms: N2_3  and  N3_4 
REMARK    2  A    between atoms: C1_5  and  C2_6 
REMARK    3  A    between atoms: C3_8  and  C4_9 
REMARK       I    between atoms: N4_19  and  C14_20 
ROOT
HETATM    1  C2  LIG X 999      46.507 122.690  23.467  1.00  0.00     0.259 C 
HETATM    2  O1  LIG X 999      46.130 123.911  24.078  1.00  0.00    -0.335 OA
HETATM    3  C3  LIG X 999      44.822 124.183  23.636  1.00  0.00     0.280 C 
HETATM    4  N4  LIG X 999      44.590 123.308  22.510  1.00  0.00    -0.247 N 
HETATM    5  C14 LIG X 999      43.384 123.272  21.729  1.00  0.00     0.232 C 
HETATM    6  O2  LIG X 999      42.389 123.968  22.068  1.00  0.00    -0.272 OA
HETATM    7  C15 LIG X 999      43.281 122.386  20.527  1.00  0.00     0.119 C 
HETATM    8  N5  LIG X 999      45.645 122.423  22.313  1.00  0.00    -0.199 NA
HETATM    9  H15 LIG X 999      45.265 121.452  22.405  1.00  0.00     0.150 HD
ENDROOT
BRANCH   3  10
HETATM   10  C4  LIG X 999      44.711 125.645  23.221  1.00  0.00     0.003 A 
HETATM   11  C5  LIG X 999      45.751 126.170  22.430  1.00  0.00     0.012 A 
HETATM   12  C6  LIG X 999      45.750 127.500  22.021  1.00  0.00     0.002 A 
HETATM   13  C7  LIG X 999      44.706 128.343  22.381  1.00  0.00     0.012 A 
HETATM   14  C8  LIG X 999      43.637 127.857  23.144  1.00  0.00    -0.025 A 
HETATM   15  C9  LIG X 999      42.582 128.722  23.480  1.00  0.00     0.012 A 
HETATM   16  C13 LIG X 999      43.615 126.496  23.567  1.00  0.00    -0.015 A 
HETATM   17  C10 LIG X 999      41.499 128.256  24.220  1.00  0.00     0.001 A 
HETATM   18  C11 LIG X 999      41.451 126.925  24.625  1.00  0.00     0.001 A 
HETATM   19  C12 LIG X 999      42.491 126.050  24.304  1.00  0.00     0.013 A 
ENDBRANCH   3  10
BRANCH   1  20
HETATM   20  C1  LIG X 999      47.938 122.750  23.036  1.00  0.00     0.164 C 
HETATM   21  N3  LIG X 999      48.281 123.429  21.988  1.00  0.00    -0.143 NA
BRANCH  21  22
HETATM   22  N2  LIG X 999      49.618 123.488  21.582  1.00  0.00    -0.052 NA
HETATM   23  N1  LIG X 999      50.019 124.451  20.858  1.00  0.00    -0.184 NA
HETATM   24  H1  LIG X 999      51.016 124.495  20.554  1.00  0.00     0.214 HD
ENDBRANCH  21  22
ENDBRANCH   1  20
TORSDOF 3
