REMARK VINA RESULT:      -4.6      2.961      7.465
REMARK  6 active torsions:
REMARK  status: ('A' for Active; 'I' for Inactive)
REMARK    1  A    between atoms: C8_8  and  O1_9 
REMARK    2  A    between atoms: O1_9  and  C9_10 
REMARK    3  A    between atoms: C9_10  and  C10_11 
REMARK    4  A    between atoms: C10_11  and  C11_12 
REMARK    5  A    between atoms: C11_12  and  N1_13 
REMARK    6  A    between atoms: C13_18  and  N4_19 
ROOT
HETATM    1  N1  LIG X 999      43.171 126.779  23.304  1.00  0.00    -0.116 NA
HETATM    2  N2  LIG X 999      42.395 125.896  23.671  1.00  0.00    -0.168 NA
HETATM    3  N3  LIG X 999      41.619 125.015  24.038  1.00  0.00     0.068 N 
ENDROOT
BRANCH   1   4
HETATM    4  C11 LIG X 999      44.382 126.441  22.571  1.00  0.00     0.191 C 
BRANCH   4   5
HETATM    5  C10 LIG X 999      45.328 127.643  22.562  1.00  0.00     0.051 C 
BRANCH   5   6
HETATM    6  C9  LIG X 999      44.573 128.961  22.739  1.00  0.00     0.170 C 
BRANCH   6   7
HETATM    7  O1  LIG X 999      44.458 129.611  21.491  1.00  0.00    -0.384 OA
BRANCH   7   8
HETATM    8  C8  LIG X 999      45.038 130.906  21.536  1.00  0.00     0.146 C 
HETATM    9  C7  LIG X 999      46.002 131.087  20.356  1.00  0.00     0.072 C 
HETATM   10  C5  LIG X 999      45.285 131.132  19.029  1.00  0.00    -0.047 A 
HETATM   11  C4  LIG X 999      43.926 131.525  18.934  1.00  0.00    -0.023 A 
HETATM   12  C6  LIG X 999      46.009 130.850  17.860  1.00  0.00     0.008 A 
HETATM   13  C3  LIG X 999      43.311 131.549  17.668  1.00  0.00     0.010 A 
HETATM   14  C13 LIG X 999      43.084 131.795  20.170  1.00  0.00     0.199 C 
HETATM   15  C2  LIG X 999      44.042 131.249  16.515  1.00  0.00     0.001 A 
HETATM   16  C1  LIG X 999      45.390 130.907  16.611  1.00  0.00     0.001 A 
HETATM   17  C12 LIG X 999      43.932 131.966  21.448  1.00  0.00     0.143 C 
HETATM   18 CL1  LIG X 999      42.886 131.872  22.897  1.00  0.00    -0.120 Cl
BRANCH  14  19
HETATM   19  N4  LIG X 999      42.285 133.004  19.971  1.00  0.00    -0.104 NA
HETATM   20  N5  LIG X 999      41.377 133.303  20.747  1.00  0.00    -0.167 NA
HETATM   21  N6  LIG X 999      40.470 133.600  21.522  1.00  0.00     0.068 N 
ENDBRANCH  14  19
ENDBRANCH   7   8
ENDBRANCH   6   7
ENDBRANCH   5   6
ENDBRANCH   4   5
ENDBRANCH   1   4
TORSDOF 6
