MODEL 1
REMARK VINA RESULT:      -6.1      0.000      0.000
REMARK  5 active torsions:
REMARK  status: ('A' for Active; 'I' for Inactive)
REMARK    1  A    between atoms: C3_3  and  C4_4 
REMARK    2  A    between atoms: C4_4  and  S1_5 
REMARK    3  A    between atoms: S1_5  and  C5_6 
REMARK    4  A    between atoms: C6_7  and  N1_8 
REMARK    5  A    between atoms: C10_12  and  N2_13 
ROOT
HETATM    1  C1  LIG X 999      46.684 125.590  22.087  1.00  0.00     0.112 C 
HETATM    2  C2  LIG X 999      45.754 126.683  22.366  1.00  0.00    -0.110 C 
HETATM    3  C3  LIG X 999      44.999 127.598  22.587  1.00  0.00    -0.097 C 
ENDROOT
BRANCH   3   4
HETATM    4  C4  LIG X 999      44.097 128.724  22.841  1.00  0.00     0.173 C 
BRANCH   4   5
HETATM    5  S1  LIG X 999      45.025 130.297  22.854  1.00  0.00    -0.115 SA
BRANCH   5   6
HETATM    6  C5  LIG X 999      43.760 131.239  21.957  1.00  0.00     0.038 A 
HETATM    7  C6  LIG X 999      42.698 131.833  22.672  1.00  0.00     0.043 A 
HETATM    8  C7  LIG X 999      41.700 132.524  21.981  1.00  0.00     0.031 A 
HETATM    9  C8  LIG X 999      41.726 132.627  20.593  1.00  0.00     0.017 A 
HETATM   10  C9  LIG X 999      42.765 132.044  19.846  1.00  0.00     0.002 A 
HETATM   11  C10 LIG X 999      42.800 132.128  18.421  1.00  0.00     0.045 A 
HETATM   12  C14 LIG X 999      43.820 131.374  20.544  1.00  0.00    -0.004 A 
HETATM   13  C11 LIG X 999      43.901 131.573  17.752  1.00  0.00     0.003 A 
HETATM   14  C12 LIG X 999      44.915 130.969  18.424  1.00  0.00    -0.021 A 
HETATM   15  C18 LIG X 999      44.168 131.531  16.292  1.00  0.00     0.278 C 
HETATM   16  C13 LIG X 999      44.911 130.858  19.808  1.00  0.00     0.023 A 
HETATM   17  C15 LIG X 999      45.954 130.482  17.491  1.00  0.00     0.276 C 
HETATM   18  N3  LIG X 999      45.384 130.675  16.124  1.00  0.00    -0.067 N 
HETATM   19  C16 LIG X 999      46.369 131.333  15.234  1.00  0.00     0.272 C 
HETATM   20  C17 LIG X 999      45.008 129.365  15.540  1.00  0.00     0.272 C 
BRANCH   7  21
HETATM   21  N1  LIG X 999      42.611 131.749  24.103  1.00  0.00    -0.398 N 
HETATM   22  H6  LIG X 999      42.579 130.820  24.577  1.00  0.00     0.156 HD
HETATM   23  H7  LIG X 999      42.566 132.593  24.713  1.00  0.00     0.156 HD
ENDBRANCH   7  21
BRANCH  11  24
HETATM   24  N2  LIG X 999      41.746 132.734  17.655  1.00  0.00    -0.398 N 
HETATM   25  H10 LIG X 999      41.806 132.875  16.625  1.00  0.00     0.156 HD
HETATM   26  H11 LIG X 999      40.920 133.162  18.130  1.00  0.00     0.156 HD
ENDBRANCH  11  24
ENDBRANCH   5   6
ENDBRANCH   4   5
ENDBRANCH   3   4
TORSDOF 5
ENDMDL
MODEL 2
REMARK VINA RESULT:      -5.3      3.828      7.025
REMARK  5 active torsions:
REMARK  status: ('A' for Active; 'I' for Inactive)
REMARK    1  A    between atoms: C3_3  and  C4_4 
REMARK    2  A    between atoms: C4_4  and  S1_5 
REMARK    3  A    between atoms: S1_5  and  C5_6 
REMARK    4  A    between atoms: C6_7  and  N1_8 
REMARK    5  A    between atoms: C10_12  and  N2_13 
ROOT
HETATM    1  C1  LIG X 999      46.117 131.000  20.337  1.00  0.00     0.112 C 
HETATM    2  C2  LIG X 999      45.000 130.751  21.248  1.00  0.00    -0.110 C 
HETATM    3  C3  LIG X 999      44.082 130.525  21.996  1.00  0.00    -0.097 C 
ENDROOT
BRANCH   3   4
HETATM    4  C4  LIG X 999      42.971 130.226  22.904  1.00  0.00     0.173 C 
BRANCH   4   5
HETATM    5  S1  LIG X 999      43.563 129.281  24.350  1.00  0.00    -0.115 SA
BRANCH   5   6
HETATM    6  C5  LIG X 999      42.713 127.743  23.898  1.00  0.00     0.038 A 
HETATM    7  C6  LIG X 999      41.314 127.646  24.066  1.00  0.00     0.043 A 
HETATM    8  C7  LIG X 999      40.663 126.449  23.758  1.00  0.00     0.031 A 
HETATM    9  C8  LIG X 999      41.370 125.342  23.300  1.00  0.00     0.017 A 
HETATM   10  C9  LIG X 999      42.764 125.398  23.125  1.00  0.00     0.002 A 
HETATM   11  C10 LIG X 999      43.508 124.268  22.669  1.00  0.00     0.045 A 
HETATM   12  C14 LIG X 999      43.440 126.633  23.391  1.00  0.00    -0.004 A 
HETATM   13  C11 LIG X 999      44.887 124.423  22.462  1.00  0.00     0.003 A 
HETATM   14  C12 LIG X 999      45.514 125.607  22.684  1.00  0.00    -0.021 A 
HETATM   15  C18 LIG X 999      45.868 123.410  21.999  1.00  0.00     0.278 C 
HETATM   16  C13 LIG X 999      44.828 126.725  23.138  1.00  0.00     0.023 A 
HETATM   17  C15 LIG X 999      46.958 125.507  22.381  1.00  0.00     0.276 C 
HETATM   18  N3  LIG X 999      47.213 124.057  22.124  1.00  0.00    -0.067 N 
HETATM   19  C16 LIG X 999      48.000 123.875  20.882  1.00  0.00     0.272 C 
HETATM   20  C17 LIG X 999      47.959 123.463  23.259  1.00  0.00     0.272 C 
BRANCH   7  21
HETATM   21  N1  LIG X 999      40.533 128.750  24.547  1.00  0.00    -0.398 N 
HETATM   22  H6  LIG X 999      40.351 128.863  25.569  1.00  0.00     0.156 HD
HETATM   23  H7  LIG X 999      40.115 129.462  23.910  1.00  0.00     0.156 HD
ENDBRANCH   7  21
BRANCH  11  24
HETATM   24  N2  LIG X 999      42.903 122.985  22.440  1.00  0.00    -0.398 N 
HETATM   25  H10 LIG X 999      42.146 122.835  21.740  1.00  0.00     0.156 HD
HETATM   26  H11 LIG X 999      43.127 122.172  23.055  1.00  0.00     0.156 HD
ENDBRANCH  11  24
ENDBRANCH   5   6
ENDBRANCH   4   5
ENDBRANCH   3   4
TORSDOF 5
ENDMDL
MODEL 3
REMARK VINA RESULT:      -5.3      3.829      7.077
REMARK  5 active torsions:
REMARK  status: ('A' for Active; 'I' for Inactive)
REMARK    1  A    between atoms: C3_3  and  C4_4 
REMARK    2  A    between atoms: C4_4  and  S1_5 
REMARK    3  A    between atoms: S1_5  and  C5_6 
REMARK    4  A    between atoms: C6_7  and  N1_8 
REMARK    5  A    between atoms: C10_12  and  N2_13 
ROOT
HETATM    1  C1  LIG X 999      41.967 132.774  20.475  1.00  0.00     0.112 C 
HETATM    2  C2  LIG X 999      42.879 131.771  21.023  1.00  0.00    -0.110 C 
HETATM    3  C3  LIG X 999      43.643 130.959  21.482  1.00  0.00    -0.097 C 
ENDROOT
BRANCH   3   4
HETATM    4  C4  LIG X 999      44.585 129.991  22.050  1.00  0.00     0.173 C 
BRANCH   4   5
HETATM    5  S1  LIG X 999      44.261 129.752  23.831  1.00  0.00    -0.115 SA
BRANCH   5   6
HETATM    6  C5  LIG X 999      43.310 128.222  23.619  1.00  0.00     0.038 A 
HETATM    7  C6  LIG X 999      41.918 128.229  23.855  1.00  0.00     0.043 A 
HETATM    8  C7  LIG X 999      41.190 127.044  23.733  1.00  0.00     0.031 A 
HETATM    9  C8  LIG X 999      41.814 125.847  23.394  1.00  0.00     0.017 A 
HETATM   10  C9  LIG X 999      43.200 125.798  23.157  1.00  0.00     0.002 A 
HETATM   11  C10 LIG X 999      43.860 124.577  22.823  1.00  0.00     0.045 A 
HETATM   12  C14 LIG X 999      43.952 127.015  23.232  1.00  0.00    -0.004 A 
HETATM   13  C11 LIG X 999      45.233 124.622  22.542  1.00  0.00     0.003 A 
HETATM   14  C12 LIG X 999      45.933 125.786  22.581  1.00  0.00    -0.021 A 
HETATM   15  C18 LIG X 999      46.136 123.503  22.175  1.00  0.00     0.278 C 
HETATM   16  C13 LIG X 999      45.329 126.991  22.913  1.00  0.00     0.023 A 
HETATM   17  C15 LIG X 999      47.353 125.563  22.235  1.00  0.00     0.276 C 
HETATM   18  N3  LIG X 999      47.517 124.080  22.160  1.00  0.00    -0.067 N 
HETATM   19  C16 LIG X 999      48.233 123.694  20.922  1.00  0.00     0.272 C 
HETATM   20  C17 LIG X 999      48.285 123.594  23.332  1.00  0.00     0.272 C 
BRANCH   7  21
HETATM   21  N1  LIG X 999      41.220 129.430  24.219  1.00  0.00    -0.398 N 
HETATM   22  H6  LIG X 999      40.610 129.451  25.065  1.00  0.00     0.156 HD
HETATM   23  H7  LIG X 999      41.284 130.308  23.660  1.00  0.00     0.156 HD
ENDBRANCH   7  21
BRANCH  11  24
HETATM   24  N2  LIG X 999      43.177 123.313  22.788  1.00  0.00    -0.398 N 
HETATM   25  H10 LIG X 999      42.305 123.128  23.327  1.00  0.00     0.156 HD
HETATM   26  H11 LIG X 999      43.600 122.492  22.302  1.00  0.00     0.156 HD
ENDBRANCH  11  24
ENDBRANCH   5   6
ENDBRANCH   4   5
ENDBRANCH   3   4
TORSDOF 5
ENDMDL
MODEL 4
REMARK VINA RESULT:      -5.0      2.606      6.448
REMARK  5 active torsions:
REMARK  status: ('A' for Active; 'I' for Inactive)
REMARK    1  A    between atoms: C3_3  and  C4_4 
REMARK    2  A    between atoms: C4_4  and  S1_5 
REMARK    3  A    between atoms: S1_5  and  C5_6 
REMARK    4  A    between atoms: C6_7  and  N1_8 
REMARK    5  A    between atoms: C10_12  and  N2_13 
ROOT
HETATM    1  C1  LIG X 999      46.119 130.354  16.684  1.00  0.00     0.112 C 
HETATM    2  C2  LIG X 999      45.439 130.731  17.923  1.00  0.00    -0.110 C 
HETATM    3  C3  LIG X 999      44.864 131.026  18.941  1.00  0.00    -0.097 C 
ENDROOT
BRANCH   3   4
HETATM    4  C4  LIG X 999      44.150 131.364  20.176  1.00  0.00     0.173 C 
BRANCH   4   5
HETATM    5  S1  LIG X 999      45.218 131.081  21.630  1.00  0.00    -0.115 SA
BRANCH   5   6
HETATM    6  C5  LIG X 999      44.009 130.063  22.522  1.00  0.00     0.038 A 
HETATM    7  C6  LIG X 999      42.828 130.658  23.017  1.00  0.00     0.043 A 
HETATM    8  C7  LIG X 999      41.916 129.887  23.740  1.00  0.00     0.031 A 
HETATM    9  C8  LIG X 999      42.155 128.540  23.995  1.00  0.00     0.017 A 
HETATM   10  C9  LIG X 999      43.322 127.912  23.523  1.00  0.00     0.002 A 
HETATM   11  C10 LIG X 999      43.590 126.535  23.786  1.00  0.00     0.045 A 
HETATM   12  C14 LIG X 999      44.244 128.679  22.739  1.00  0.00    -0.004 A 
HETATM   13  C11 LIG X 999      44.746 125.968  23.229  1.00  0.00     0.003 A 
HETATM   14  C12 LIG X 999      45.598 126.692  22.458  1.00  0.00    -0.021 A 
HETATM   15  C18 LIG X 999      45.241 124.574  23.356  1.00  0.00     0.278 C 
HETATM   16  C13 LIG X 999      45.377 128.037  22.190  1.00  0.00     0.023 A 
HETATM   17  C15 LIG X 999      46.726 125.860  21.988  1.00  0.00     0.276 C 
HETATM   18  N3  LIG X 999      46.594 124.561  22.715  1.00  0.00    -0.067 N 
HETATM   19  C16 LIG X 999      46.720 123.421  21.778  1.00  0.00     0.272 C 
HETATM   20  C17 LIG X 999      47.647 124.451  23.753  1.00  0.00     0.272 C 
BRANCH   7  21
HETATM   21  N1  LIG X 999      42.534 132.046  22.797  1.00  0.00    -0.398 N 
HETATM   22  H6  LIG X 999      42.192 132.644  23.582  1.00  0.00     0.156 HD
HETATM   23  H7  LIG X 999      42.635 132.501  21.865  1.00  0.00     0.156 HD
ENDBRANCH   7  21
BRANCH  11  24
HETATM   24  N2  LIG X 999      42.738 125.725  24.612  1.00  0.00    -0.398 N 
HETATM   25  H10 LIG X 999      42.488 125.984  25.590  1.00  0.00     0.156 HD
HETATM   26  H11 LIG X 999      42.428 124.781  24.294  1.00  0.00     0.156 HD
ENDBRANCH  11  24
ENDBRANCH   5   6
ENDBRANCH   4   5
ENDBRANCH   3   4
TORSDOF 5
ENDMDL
MODEL 5
REMARK VINA RESULT:      -4.4      3.991      7.077
REMARK  5 active torsions:
REMARK  status: ('A' for Active; 'I' for Inactive)
REMARK    1  A    between atoms: C3_3  and  C4_4 
REMARK    2  A    between atoms: C4_4  and  S1_5 
REMARK    3  A    between atoms: S1_5  and  C5_6 
REMARK    4  A    between atoms: C6_7  and  N1_8 
REMARK    5  A    between atoms: C10_12  and  N2_13 
ROOT
HETATM    1  C1  LIG X 999      51.960 126.470  22.760  1.00  0.00     0.112 C 
HETATM    2  C2  LIG X 999      50.600 126.018  23.049  1.00  0.00    -0.110 C 
HETATM    3  C3  LIG X 999      49.471 125.663  23.283  1.00  0.00    -0.097 C 
ENDROOT
BRANCH   3   4
HETATM    4  C4  LIG X 999      48.091 125.254  23.558  1.00  0.00     0.173 C 
BRANCH   4   5
HETATM    5  S1  LIG X 999      47.156 125.070  22.000  1.00  0.00    -0.115 SA
BRANCH   5   6
HETATM    6  C5  LIG X 999      45.537 124.906  22.802  1.00  0.00     0.038 A 
HETATM    7  C6  LIG X 999      45.066 123.625  23.165  1.00  0.00     0.043 A 
HETATM    8  C7  LIG X 999      43.803 123.490  23.744  1.00  0.00     0.031 A 
HETATM    9  C8  LIG X 999      42.989 124.599  23.959  1.00  0.00     0.017 A 
HETATM   10  C9  LIG X 999      43.420 125.890  23.606  1.00  0.00     0.002 A 
HETATM   11  C10 LIG X 999      42.593 127.036  23.807  1.00  0.00     0.045 A 
HETATM   12  C14 LIG X 999      44.733 126.049  23.056  1.00  0.00    -0.004 A 
HETATM   13  C11 LIG X 999      43.118 128.296  23.486  1.00  0.00     0.003 A 
HETATM   14  C12 LIG X 999      44.377 128.442  22.996  1.00  0.00    -0.021 A 
HETATM   15  C18 LIG X 999      42.465 129.624  23.601  1.00  0.00     0.278 C 
HETATM   16  C13 LIG X 999      45.207 127.351  22.776  1.00  0.00     0.023 A 
HETATM   17  C15 LIG X 999      44.689 129.866  22.751  1.00  0.00     0.276 C 
HETATM   18  N3  LIG X 999      43.404 130.599  22.962  1.00  0.00    -0.067 N 
HETATM   19  C16 LIG X 999      43.610 131.778  23.833  1.00  0.00     0.272 C 
HETATM   20  C17 LIG X 999      42.859 131.051  21.659  1.00  0.00     0.272 C 
BRANCH   7  21
HETATM   21  N1  LIG X 999      45.856 122.444  22.955  1.00  0.00    -0.398 N 
HETATM   22  H6  LIG X 999      46.785 122.340  23.420  1.00  0.00     0.156 HD
HETATM   23  H7  LIG X 999      45.546 121.664  22.337  1.00  0.00     0.156 HD
ENDBRANCH   7  21
BRANCH  11  24
HETATM   24  N2  LIG X 999      41.246 126.942  24.301  1.00  0.00    -0.398 N 
HETATM   25  H10 LIG X 999      40.961 126.262  25.036  1.00  0.00     0.156 HD
HETATM   26  H11 LIG X 999      40.475 127.483  23.851  1.00  0.00     0.156 HD
ENDBRANCH  11  24
ENDBRANCH   5   6
ENDBRANCH   4   5
ENDBRANCH   3   4
TORSDOF 5
ENDMDL
MODEL 6
REMARK VINA RESULT:      -4.3      5.510      7.897
REMARK  5 active torsions:
REMARK  status: ('A' for Active; 'I' for Inactive)
REMARK    1  A    between atoms: C3_3  and  C4_4 
REMARK    2  A    between atoms: C4_4  and  S1_5 
REMARK    3  A    between atoms: S1_5  and  C5_6 
REMARK    4  A    between atoms: C6_7  and  N1_8 
REMARK    5  A    between atoms: C10_12  and  N2_13 
ROOT
HETATM    1  C1  LIG X 999      44.338 132.282  24.243  1.00  0.00     0.112 C 
HETATM    2  C2  LIG X 999      43.657 131.045  23.860  1.00  0.00    -0.110 C 
HETATM    3  C3  LIG X 999      43.100 130.018  23.562  1.00  0.00    -0.097 C 
ENDROOT
BRANCH   3   4
HETATM    4  C4  LIG X 999      42.426 128.762  23.224  1.00  0.00     0.173 C 
BRANCH   4   5
HETATM    5  S1  LIG X 999      42.537 127.582  24.613  1.00  0.00    -0.115 SA
BRANCH   5   6
HETATM    6  C5  LIG X 999      42.581 126.101  23.565  1.00  0.00     0.038 A 
HETATM    7  C6  LIG X 999      41.371 125.544  23.096  1.00  0.00     0.043 A 
HETATM    8  C7  LIG X 999      41.398 124.381  22.324  1.00  0.00     0.031 A 
HETATM    9  C8  LIG X 999      42.599 123.750  22.016  1.00  0.00     0.017 A 
HETATM   10  C9  LIG X 999      43.825 124.271  22.469  1.00  0.00     0.002 A 
HETATM   11  C10 LIG X 999      45.066 123.629  22.174  1.00  0.00     0.045 A 
HETATM   12  C14 LIG X 999      43.816 125.490  23.221  1.00  0.00    -0.004 A 
HETATM   13  C11 LIG X 999      46.249 124.244  22.610  1.00  0.00     0.003 A 
HETATM   14  C12 LIG X 999      46.234 125.418  23.294  1.00  0.00    -0.021 A 
HETATM   15  C18 LIG X 999      47.648 123.781  22.432  1.00  0.00     0.278 C 
HETATM   16  C13 LIG X 999      45.047 126.066  23.609  1.00  0.00     0.023 A 
HETATM   17  C15 LIG X 999      47.607 125.856  23.624  1.00  0.00     0.276 C 
HETATM   18  N3  LIG X 999      48.494 124.717  23.238  1.00  0.00    -0.067 N 
HETATM   19  C16 LIG X 999      49.647 125.197  22.443  1.00  0.00     0.272 C 
HETATM   20  C17 LIG X 999      48.997 124.030  24.452  1.00  0.00     0.272 C 
BRANCH   7  21
HETATM   21  N1  LIG X 999      40.100 126.143  23.392  1.00  0.00    -0.398 N 
HETATM   22  H6  LIG X 999      40.048 127.023  23.952  1.00  0.00     0.156 HD
HETATM   23  H7  LIG X 999      39.197 125.729  23.077  1.00  0.00     0.156 HD
ENDBRANCH   7  21
BRANCH  11  24
HETATM   24  N2  LIG X 999      45.142 122.376  21.475  1.00  0.00    -0.398 N 
HETATM   25  H10 LIG X 999      45.933 122.129  20.844  1.00  0.00     0.156 HD
HETATM   26  H11 LIG X 999      44.340 121.708  21.489  1.00  0.00     0.156 HD
ENDBRANCH  11  24
ENDBRANCH   5   6
ENDBRANCH   4   5
ENDBRANCH   3   4
TORSDOF 5
ENDMDL
MODEL 7
REMARK VINA RESULT:      -4.3      2.240      6.477
REMARK  5 active torsions:
REMARK  status: ('A' for Active; 'I' for Inactive)
REMARK    1  A    between atoms: C3_3  and  C4_4 
REMARK    2  A    between atoms: C4_4  and  S1_5 
REMARK    3  A    between atoms: S1_5  and  C5_6 
REMARK    4  A    between atoms: C6_7  and  N1_8 
REMARK    5  A    between atoms: C10_12  and  N2_13 
ROOT
HETATM    1  C1  LIG X 999      46.818 131.216  14.309  1.00  0.00     0.112 C 
HETATM    2  C2  LIG X 999      46.134 131.142  15.599  1.00  0.00    -0.110 C 
HETATM    3  C3  LIG X 999      45.551 131.083  16.654  1.00  0.00    -0.097 C 
ENDROOT
BRANCH   3   4
HETATM    4  C4  LIG X 999      44.821 131.009  17.922  1.00  0.00     0.173 C 
BRANCH   4   5
HETATM    5  S1  LIG X 999      45.984 130.861  19.322  1.00  0.00    -0.115 SA
BRANCH   5   6
HETATM    6  C5  LIG X 999      44.695 130.803  20.598  1.00  0.00     0.038 A 
HETATM    7  C6  LIG X 999      43.763 131.859  20.695  1.00  0.00     0.043 A 
HETATM    8  C7  LIG X 999      42.796 131.838  21.702  1.00  0.00     0.031 A 
HETATM    9  C8  LIG X 999      42.740 130.797  22.624  1.00  0.00     0.017 A 
HETATM   10  C9  LIG X 999      43.653 129.729  22.563  1.00  0.00     0.002 A 
HETATM   11  C10 LIG X 999      43.620 128.660  23.509  1.00  0.00     0.045 A 
HETATM   12  C14 LIG X 999      44.621 129.713  21.507  1.00  0.00    -0.004 A 
HETATM   13  C11 LIG X 999      44.526 127.602  23.344  1.00  0.00     0.003 A 
HETATM   14  C12 LIG X 999      45.418 127.578  22.320  1.00  0.00    -0.021 A 
HETATM   15  C18 LIG X 999      44.689 126.389  24.184  1.00  0.00     0.278 C 
HETATM   16  C13 LIG X 999      45.489 128.604  21.387  1.00  0.00     0.023 A 
HETATM   17  C15 LIG X 999      46.246 126.354  22.366  1.00  0.00     0.276 C 
HETATM   18  N3  LIG X 999      45.905 125.690  23.661  1.00  0.00    -0.067 N 
HETATM   19  C16 LIG X 999      45.635 124.249  23.457  1.00  0.00     0.272 C 
HETATM   20  C17 LIG X 999      47.028 125.839  24.619  1.00  0.00     0.272 C 
BRANCH   7  21
HETATM   21  N1  LIG X 999      43.779 132.966  19.781  1.00  0.00    -0.398 N 
HETATM   22  H6  LIG X 999      43.669 132.806  18.755  1.00  0.00     0.156 HD
HETATM   23  H7  LIG X 999      43.910 133.952  20.094  1.00  0.00     0.156 HD
ENDBRANCH   7  21
BRANCH  11  24
HETATM   24  N2  LIG X 999      42.715 128.642  24.625  1.00  0.00    -0.398 N 
HETATM   25  H10 LIG X 999      42.715 129.377  25.363  1.00  0.00     0.156 HD
HETATM   26  H11 LIG X 999      42.093 127.821  24.794  1.00  0.00     0.156 HD
ENDBRANCH  11  24
ENDBRANCH   5   6
ENDBRANCH   4   5
ENDBRANCH   3   4
TORSDOF 5
ENDMDL
MODEL 8
REMARK VINA RESULT:      -4.0      2.299      6.380
REMARK  5 active torsions:
REMARK  status: ('A' for Active; 'I' for Inactive)
REMARK    1  A    between atoms: C3_3  and  C4_4 
REMARK    2  A    between atoms: C4_4  and  S1_5 
REMARK    3  A    between atoms: S1_5  and  C5_6 
REMARK    4  A    between atoms: C6_7  and  N1_8 
REMARK    5  A    between atoms: C10_12  and  N2_13 
ROOT
HETATM    1  C1  LIG X 999      47.966 130.589  12.543  1.00  0.00     0.112 C 
HETATM    2  C2  LIG X 999      47.197 130.184  13.719  1.00  0.00    -0.110 C 
HETATM    3  C3  LIG X 999      46.549 129.866  14.685  1.00  0.00    -0.097 C 
ENDROOT
BRANCH   3   4
HETATM    4  C4  LIG X 999      45.744 129.496  15.852  1.00  0.00     0.173 C 
BRANCH   4   5
HETATM    5  S1  LIG X 999      46.242 130.477  17.310  1.00  0.00    -0.115 SA
BRANCH   5   6
HETATM    6  C5  LIG X 999      44.604 131.211  17.577  1.00  0.00     0.038 A 
HETATM    7  C6  LIG X 999      43.862 131.679  16.471  1.00  0.00     0.043 A 
HETATM    8  C7  LIG X 999      42.619 132.282  16.677  1.00  0.00     0.031 A 
HETATM    9  C8  LIG X 999      42.102 132.443  17.959  1.00  0.00     0.017 A 
HETATM   10  C9  LIG X 999      42.813 131.995  19.086  1.00  0.00     0.002 A 
HETATM   11  C10 LIG X 999      42.304 132.165  20.409  1.00  0.00     0.045 A 
HETATM   12  C14 LIG X 999      44.067 131.332  18.887  1.00  0.00    -0.004 A 
HETATM   13  C11 LIG X 999      43.044 131.636  21.476  1.00  0.00     0.003 A 
HETATM   14  C12 LIG X 999      44.216 130.978  21.276  1.00  0.00    -0.021 A 
HETATM   15  C18 LIG X 999      42.733 131.682  22.927  1.00  0.00     0.278 C 
HETATM   16  C13 LIG X 999      44.749 130.803  20.006  1.00  0.00     0.023 A 
HETATM   17  C15 LIG X 999      44.788 130.513  22.558  1.00  0.00     0.276 C 
HETATM   18  N3  LIG X 999      43.936 131.125  23.621  1.00  0.00    -0.067 N 
HETATM   19  C16 LIG X 999      43.540 130.110  24.625  1.00  0.00     0.272 C 
HETATM   20  C17 LIG X 999      44.678 132.213  24.303  1.00  0.00     0.272 C 
BRANCH   7  21
HETATM   21  N1  LIG X 999      44.350 131.552  15.127  1.00  0.00    -0.398 N 
HETATM   22  H6  LIG X 999      44.927 132.310  14.700  1.00  0.00     0.156 HD
HETATM   23  H7  LIG X 999      44.144 130.722  14.530  1.00  0.00     0.156 HD
ENDBRANCH   7  21
BRANCH  11  24
HETATM   24  N2  LIG X 999      41.083 132.871  20.683  1.00  0.00    -0.398 N 
HETATM   25  H10 LIG X 999      40.979 133.529  21.484  1.00  0.00     0.156 HD
HETATM   26  H11 LIG X 999      40.212 132.659  20.147  1.00  0.00     0.156 HD
ENDBRANCH  11  24
ENDBRANCH   5   6
ENDBRANCH   4   5
ENDBRANCH   3   4
TORSDOF 5
ENDMDL
MODEL 9
REMARK VINA RESULT:      -3.5      3.028      5.394
REMARK  5 active torsions:
REMARK  status: ('A' for Active; 'I' for Inactive)
REMARK    1  A    between atoms: C3_3  and  C4_4 
REMARK    2  A    between atoms: C4_4  and  S1_5 
REMARK    3  A    between atoms: S1_5  and  C5_6 
REMARK    4  A    between atoms: C6_7  and  N1_8 
REMARK    5  A    between atoms: C10_12  and  N2_13 
ROOT
HETATM    1  C1  LIG X 999      50.259 126.387  24.434  1.00  0.00     0.112 C 
HETATM    2  C2  LIG X 999      49.004 125.684  24.173  1.00  0.00    -0.110 C 
HETATM    3  C3  LIG X 999      47.972 125.092  23.974  1.00  0.00    -0.097 C 
ENDROOT
BRANCH   3   4
HETATM    4  C4  LIG X 999      46.720 124.363  23.755  1.00  0.00     0.173 C 
BRANCH   4   5
HETATM    5  S1  LIG X 999      45.903 124.937  22.227  1.00  0.00    -0.115 SA
BRANCH   5   6
HETATM    6  C5  LIG X 999      44.598 125.866  23.079  1.00  0.00     0.038 A 
HETATM    7  C6  LIG X 999      43.757 125.200  23.997  1.00  0.00     0.043 A 
HETATM    8  C7  LIG X 999      42.725 125.902  24.624  1.00  0.00     0.031 A 
HETATM    9  C8  LIG X 999      42.501 127.248  24.350  1.00  0.00     0.017 A 
HETATM   10  C9  LIG X 999      43.314 127.944  23.438  1.00  0.00     0.002 A 
HETATM   11  C10 LIG X 999      43.089 129.321  23.134  1.00  0.00     0.045 A 
HETATM   12  C14 LIG X 999      44.405 127.250  22.823  1.00  0.00    -0.004 A 
HETATM   13  C11 LIG X 999      43.981 129.960  22.260  1.00  0.00     0.003 A 
HETATM   14  C12 LIG X 999      45.034 129.303  21.708  1.00  0.00    -0.021 A 
HETATM   15  C18 LIG X 999      43.962 131.368  21.791  1.00  0.00     0.278 C 
HETATM   16  C13 LIG X 999      45.278 127.962  21.969  1.00  0.00     0.023 A 
HETATM   17  C15 LIG X 999      45.821 130.202  20.837  1.00  0.00     0.276 C 
HETATM   18  N3  LIG X 999      45.029 131.465  20.745  1.00  0.00    -0.067 N 
HETATM   19  C16 LIG X 999      45.892 132.644  20.985  1.00  0.00     0.272 C 
HETATM   20  C17 LIG X 999      44.414 131.583  19.401  1.00  0.00     0.272 C 
BRANCH   7  21
HETATM   21  N1  LIG X 999      43.932 123.810  24.311  1.00  0.00    -0.398 N 
HETATM   22  H6  LIG X 999      43.206 123.111  24.038  1.00  0.00     0.156 HD
HETATM   23  H7  LIG X 999      44.766 123.450  24.822  1.00  0.00     0.156 HD
ENDBRANCH   7  21
BRANCH  11  24
HETATM   24  N2  LIG X 999      41.979 130.060  23.669  1.00  0.00    -0.398 N 
HETATM   25  H10 LIG X 999      41.250 129.626  24.273  1.00  0.00     0.156 HD
HETATM   26  H11 LIG X 999      41.803 131.046  23.374  1.00  0.00     0.156 HD
ENDBRANCH  11  24
ENDBRANCH   5   6
ENDBRANCH   4   5
ENDBRANCH   3   4
TORSDOF 5
ENDMDL
