REMARK VINA RESULT:      -7.8      0.000      0.000
REMARK  1 active torsions:
REMARK  status: ('A' for Active; 'I' for Inactive)
REMARK    1  A    between atoms: C5_8  and  O1_9 
ROOT
HETATM    1  H1  LIG X 999      47.135 129.665  15.791  1.00  0.00     0.187 HD
HETATM    2  N1  LIG X 999      46.846 129.873  16.773  1.00  0.00    -0.300 NA
HETATM    3  C1  LIG X 999      45.732 130.476  17.041  1.00  0.00     0.059 A 
HETATM    4  C2  LIG X 999      44.797 130.904  15.942  1.00  0.00     0.034 A 
HETATM    5  C3  LIG X 999      43.632 131.535  16.223  1.00  0.00     0.035 A 
HETATM    6  C4  LIG X 999      43.297 131.793  17.636  1.00  0.00     0.071 A 
HETATM    7  N2  LIG X 999      42.204 132.400  18.157  1.00  0.00    -0.224 NA
HETATM    8  C5  LIG X 999      42.414 132.368  19.506  1.00  0.00     0.174 A 
HETATM    9  C6  LIG X 999      43.617 131.753  19.813  1.00  0.00     0.030 A 
HETATM   10  C7  LIG X 999      44.297 131.464  20.998  1.00  0.00     0.017 A 
HETATM   11  C8  LIG X 999      45.545 130.800  20.888  1.00  0.00     0.002 A 
HETATM   12  C9  LIG X 999      46.073 130.447  19.614  1.00  0.00     0.015 A 
HETATM   13  C10 LIG X 999      45.345 130.762  18.447  1.00  0.00     0.005 A 
HETATM   14  C11 LIG X 999      44.141 131.407  18.619  1.00  0.00     0.020 A 
ENDROOT
BRANCH   8  15
HETATM   15  O1  LIG X 999      41.526 132.891  20.438  1.00  0.00    -0.344 OA
HETATM   16  H4  LIG X 999      41.156 132.310  21.180  1.00  0.00     0.219 HD
ENDBRANCH   8  15
TORSDOF 1
