REMARK VINA RESULT:      -6.1      2.809      5.166
REMARK  1 active torsions:
REMARK  status: ('A' for Active; 'I' for Inactive)
REMARK    1  A    between atoms: N1_2  and  C1_3 
ROOT
HETATM    1  C1  LIG X 999      43.284 131.967  22.390  1.00  0.00     0.120 C 
HETATM    2  C2  LIG X 999      42.391 132.294  21.370  1.00  0.00     0.057 C 
HETATM    3  C3  LIG X 999      42.687 131.976  20.037  1.00  0.00    -0.045 C 
HETATM    4  C4  LIG X 999      41.542 132.082  19.059  1.00  0.00     0.049 C 
HETATM    5  C5  LIG X 999      43.977 131.446  19.714  1.00  0.00     0.008 C 
HETATM    6  C6  LIG X 999      44.495 131.281  18.385  1.00  0.00    -0.013 C 
HETATM    7  C7  LIG X 999      43.985 131.968  17.258  1.00  0.00     0.013 C 
HETATM    8  C8  LIG X 999      44.487 131.727  15.977  1.00  0.00     0.001 C 
HETATM    9  C9  LIG X 999      45.539 130.837  15.791  1.00  0.00     0.001 C 
HETATM   10  C10 LIG X 999      46.134 130.226  16.892  1.00  0.00     0.012 C 
HETATM   11  C11 LIG X 999      45.649 130.470  18.187  1.00  0.00    -0.025 C 
HETATM   12  C12 LIG X 999      46.344 129.956  19.283  1.00  0.00     0.014 C 
HETATM   13  C13 LIG X 999      45.952 130.275  20.575  1.00  0.00     0.031 C 
HETATM   14  C14 LIG X 999      44.788 131.020  20.806  1.00  0.00     0.045 C 
HETATM   15  N2  LIG X 999      44.434 131.309  22.092  1.00  0.00    -0.341 N 
HETATM   16  H12 LIG X 999      45.062 131.021  22.878  1.00  0.00     0.167 HD
ENDROOT
BRANCH   1  17
HETATM   17  N1  LIG X 999      43.008 132.248  23.625  1.00  0.00    -0.284 NA
HETATM   18  H1  LIG X 999      42.305 132.974  23.894  1.00  0.00     0.188 HD
ENDBRANCH   1  17
TORSDOF 1
