REMARK VINA RESULT:      -7.2      0.000      0.000
REMARK  4 active torsions:
REMARK  status: ('A' for Active; 'I' for Inactive)
REMARK    1  A    between atoms: C2_2  and  N1_3 
REMARK    2  A    between atoms: C3_6  and  O1_7 
REMARK    3  A    between atoms: O1_7  and  C4_8 
REMARK    4  A    between atoms: C4_8  and  C5_9 
ROOT
HETATM    1  N1  LIG X 999      44.927 131.591  15.259  1.00  0.00    -0.070 NA
HETATM    2  N2  LIG X 999      43.863 131.634  14.639  1.00  0.00    -0.162 NA
HETATM    3  N3  LIG X 999      42.801 131.676  14.020  1.00  0.00     0.068 N 
ENDROOT
BRANCH   1   4
HETATM    4  C2  LIG X 999      44.991 131.305  16.663  1.00  0.00     0.127 A 
HETATM    5  C1  LIG X 999      44.025 131.807  17.556  1.00  0.00     0.049 A 
HETATM    6  C14 LIG X 999      44.103 131.519  18.924  1.00  0.00    -0.023 A 
HETATM    7  C9  LIG X 999      45.167 130.712  19.412  1.00  0.00    -0.022 A 
HETATM    8  C13 LIG X 999      43.139 132.024  19.819  1.00  0.00     0.021 A 
HETATM    9  C8  LIG X 999      46.125 130.214  18.520  1.00  0.00     0.051 A 
HETATM   10  C10 LIG X 999      45.251 130.423  20.789  1.00  0.00     0.021 A 
HETATM   11  C3  LIG X 999      46.044 130.509  17.144  1.00  0.00     0.102 A 
HETATM   12  C11 LIG X 999      44.272 130.937  21.641  1.00  0.00    -0.024 A 
HETATM   13  C12 LIG X 999      43.254 131.709  21.173  1.00  0.00    -0.024 A 
HETATM   14  C18 LIG X 999      44.175 130.782  23.108  1.00  0.00     0.276 C 
HETATM   15  C15 LIG X 999      42.379 132.143  22.284  1.00  0.00     0.276 C 
HETATM   16  N4  LIG X 999      42.876 131.417  23.496  1.00  0.00    -0.067 N 
HETATM   17  C16 LIG X 999      43.069 132.356  24.625  1.00  0.00     0.272 C 
HETATM   18  C17 LIG X 999      41.901 130.375  23.897  1.00  0.00     0.272 C 
BRANCH  11  19
HETATM   19  O1  LIG X 999      46.991 130.029  16.220  1.00  0.00    -0.337 OA
BRANCH  19  20
HETATM   20  C4  LIG X 999      46.695 129.286  15.039  1.00  0.00     0.269 C 
BRANCH  20  21
HETATM   21  C5  LIG X 999      47.189 129.993  13.853  1.00  0.00    -0.080 C 
HETATM   22  C6  LIG X 999      47.590 130.579  12.879  1.00  0.00    -0.109 C 
HETATM   23  C7  LIG X 999      48.074 131.293  11.697  1.00  0.00     0.112 C 
ENDBRANCH  20  21
ENDBRANCH  19  20
ENDBRANCH  11  19
ENDBRANCH   1   4
TORSDOF 4
