REMARK VINA RESULT:      -5.6      1.458      1.955
REMARK  5 active torsions:
REMARK  status: ('A' for Active; 'I' for Inactive)
REMARK    1  A    between atoms: C3_3  and  O1_4 
REMARK    2  A    between atoms: O1_4  and  C4_5 
REMARK    3  A    between atoms: C5_6  and  C6_7 
REMARK    4  A    between atoms: C6_7  and  O2_8 
REMARK    5  A    between atoms: C17_20  and  N1_21 
ROOT
HETATM    1  C1  LIG X 999      43.999 130.903  22.388  1.00  0.00     0.014 C 
HETATM    2  C2  LIG X 999      44.283 129.779  22.714  1.00  0.00    -0.091 C 
HETATM    3  C3  LIG X 999      44.627 128.409  23.109  1.00  0.00     0.268 C 
ENDROOT
BRANCH   3   4
HETATM    4  O1  LIG X 999      43.681 127.909  24.054  1.00  0.00    -0.336 OA
BRANCH   4   5
HETATM    5  C4  LIG X 999      42.907 126.769  23.800  1.00  0.00     0.108 C 
HETATM    6  C5  LIG X 999      41.522 126.769  24.056  1.00  0.00     0.012 C 
HETATM    7  C7  LIG X 999      40.795 125.555  23.918  1.00  0.00    -0.014 C 
HETATM    8  C8  LIG X 999      39.428 125.470  24.277  1.00  0.00     0.013 C 
HETATM    9  C12 LIG X 999      41.458 124.375  23.457  1.00  0.00    -0.012 C 
HETATM   10  C9  LIG X 999      38.764 124.248  24.289  1.00  0.00     0.001 C 
HETATM   11  C10 LIG X 999      39.450 123.081  23.983  1.00  0.00     0.001 C 
HETATM   12  C11 LIG X 999      40.786 123.139  23.594  1.00  0.00     0.013 C 
HETATM   13  C13 LIG X 999      42.798 124.465  22.969  1.00  0.00     0.013 C 
HETATM   14  C14 LIG X 999      43.458 123.466  22.180  1.00  0.00    -0.045 C 
HETATM   15  C18 LIG X 999      43.531 125.644  23.252  1.00  0.00     0.105 C 
HETATM   16  C15 LIG X 999      42.743 122.375  21.420  1.00  0.00     0.049 C 
HETATM   17  C16 LIG X 999      44.841 123.567  21.960  1.00  0.00     0.063 C 
HETATM   18  C17 LIG X 999      45.539 124.702  22.382  1.00  0.00     0.186 C 
HETATM   19  N4  LIG X 999      44.860 125.712  22.971  1.00  0.00    -0.223 NA
BRANCH   6  20
HETATM   20  C6  LIG X 999      40.841 128.074  24.440  1.00  0.00     0.206 C 
BRANCH  20  21
HETATM   21  O2  LIG X 999      41.233 129.094  23.561  1.00  0.00    -0.396 OA
HETATM   22  H6  LIG X 999      40.664 129.883  23.753  1.00  0.00     0.209 HD
ENDBRANCH  20  21
ENDBRANCH   6  20
BRANCH  18  23
HETATM   23  N1  LIG X 999      46.946 124.855  22.155  1.00  0.00    -0.052 NA
HETATM   24  N2  LIG X 999      47.558 124.177  21.329  1.00  0.00    -0.160 NA
HETATM   25  N3  LIG X 999      48.172 123.500  20.505  1.00  0.00     0.068 N 
ENDBRANCH  18  23
ENDBRANCH   4   5
ENDBRANCH   3   4
TORSDOF 5
