REMARK VINA RESULT:      -7.4      1.292      2.529
REMARK  3 active torsions:
REMARK  status: ('A' for Active; 'I' for Inactive)
REMARK    1  A    between atoms: O1_2  and  C2_3 
REMARK    2  A    between atoms: C2_3  and  C3_5 
REMARK    3  A    between atoms: C4_6  and  C5_7 
ROOT
HETATM    1  C5  LIG X 999      44.613 131.242  18.099  1.00  0.00     0.019 A 
HETATM    2  C6  LIG X 999      45.640 130.348  18.427  1.00  0.00     0.021 A 
HETATM    3  C7  LIG X 999      46.495 129.863  17.433  1.00  0.00     0.013 A 
HETATM    4  C8  LIG X 999      46.330 130.268  16.100  1.00  0.00    -0.026 A 
HETATM    5  C9  LIG X 999      47.182 129.787  15.094  1.00  0.00     0.012 A 
HETATM    6  C10 LIG X 999      47.007 130.198  13.770  1.00  0.00     0.001 A 
HETATM    7  C11 LIG X 999      45.983 131.090  13.440  1.00  0.00     0.001 A 
HETATM    8  C12 LIG X 999      45.127 131.578  14.432  1.00  0.00     0.012 A 
HETATM    9  C13 LIG X 999      45.292 131.172  15.766  1.00  0.00    -0.025 A 
HETATM   10  C14 LIG X 999      44.439 131.654  16.772  1.00  0.00     0.032 A 
ENDROOT
BRANCH   1  11
HETATM   11  C4  LIG X 999      43.737 131.738  19.127  1.00  0.00    -0.056 C 
HETATM   12  C3  LIG X 999      43.003 132.154  19.988  1.00  0.00     0.008 C 
BRANCH  12  13
HETATM   13  C2  LIG X 999      42.128 132.648  21.013  1.00  0.00     0.339 C 
HETATM   14  O2  LIG X 999      41.179 133.417  20.703  1.00  0.00    -0.249 OA
BRANCH  13  15
HETATM   15  O1  LIG X 999      42.341 132.269  22.340  1.00  0.00    -0.316 OA
HETATM   16  C1  LIG X 999      43.319 131.307  22.714  1.00  0.00     0.214 C 
ENDBRANCH  13  15
ENDBRANCH  12  13
ENDBRANCH   1  11
TORSDOF 3
