REMARK VINA RESULT:      -5.2      1.459      1.788
REMARK  2 active torsions:
REMARK  status: ('A' for Active; 'I' for Inactive)
REMARK    1  A    between atoms: O1_2  and  C2_3 
REMARK    2  A    between atoms: C11_12  and  N1_13 
ROOT
HETATM    1  C2  LIG X 999      45.848 130.814  14.902  1.00  0.00     0.095 A 
HETATM    2  C3  LIG X 999      44.937 131.447  15.769  1.00  0.00     0.051 A 
HETATM    3  C4  LIG X 999      44.979 131.203  17.149  1.00  0.00    -0.023 A 
HETATM    4  C5  LIG X 999      44.069 131.838  18.017  1.00  0.00     0.021 A 
HETATM    5  C6  LIG X 999      44.145 131.562  19.384  1.00  0.00    -0.024 A 
HETATM    6  C7  LIG X 999      45.076 130.706  19.888  1.00  0.00    -0.024 A 
HETATM    7  C8  LIG X 999      46.000 130.062  19.062  1.00  0.00     0.021 A 
HETATM    8  C9  LIG X 999      45.951 130.309  17.676  1.00  0.00    -0.023 A 
HETATM    9  C10 LIG X 999      46.855 129.683  16.809  1.00  0.00     0.044 A 
HETATM   10  C11 LIG X 999      46.809 129.930  15.429  1.00  0.00     0.060 A 
HETATM   11  C12 LIG X 999      44.957 130.616  21.358  1.00  0.00     0.276 C 
HETATM   12  N2  LIG X 999      43.729 131.396  21.712  1.00  0.00    -0.067 N 
HETATM   13  C13 LIG X 999      42.649 130.476  22.142  1.00  0.00     0.272 C 
HETATM   14  C14 LIG X 999      44.013 132.351  22.808  1.00  0.00     0.272 C 
HETATM   15  C15 LIG X 999      43.315 132.125  20.470  1.00  0.00     0.276 C 
ENDROOT
BRANCH  10  16
HETATM   16  N1  LIG X 999      47.746 129.273  14.567  1.00  0.00    -0.397 N 
HETATM   17  H8  LIG X 999      48.279 129.799  13.839  1.00  0.00     0.156 HD
HETATM   18  H9  LIG X 999      47.918 128.246  14.650  1.00  0.00     0.156 HD
ENDBRANCH  10  16
BRANCH   1  19
HETATM   19  O1  LIG X 999      45.827 131.041  13.515  1.00  0.00    -0.354 OA
HETATM   20  C1  LIG X 999      46.987 131.176  12.699  1.00  0.00     0.210 C 
ENDBRANCH   1  19
TORSDOF 2
