REMARK VINA RESULT:      -7.5      0.000      0.000
REMARK  1 active torsions:
REMARK  status: ('A' for Active; 'I' for Inactive)
REMARK    1  A    between atoms: N1_2  and  C1_3 
ROOT
HETATM    1  C1  LIG X 999      43.230 131.758  22.808  1.00  0.00     0.120 C 
HETATM    2  C2  LIG X 999      44.354 130.998  22.501  1.00  0.00     0.057 C 
HETATM    3  C3  LIG X 999      44.682 130.723  21.166  1.00  0.00    -0.045 C 
HETATM    4  C4  LIG X 999      45.719 129.648  20.947  1.00  0.00     0.049 C 
HETATM    5  C5  LIG X 999      43.936 131.350  20.118  1.00  0.00     0.008 C 
HETATM    6  C6  LIG X 999      44.289 131.335  18.726  1.00  0.00    -0.013 C 
HETATM    7  C7  LIG X 999      45.594 131.053  18.257  1.00  0.00     0.013 C 
HETATM    8  C8  LIG X 999      45.873 130.994  16.889  1.00  0.00     0.001 C 
HETATM    9  C9  LIG X 999      44.875 131.263  15.957  1.00  0.00     0.001 C 
HETATM   10  C10 LIG X 999      43.609 131.647  16.388  1.00  0.00     0.012 C 
HETATM   11  C11 LIG X 999      43.319 131.726  17.760  1.00  0.00    -0.025 C 
HETATM   12  C12 LIG X 999      42.089 132.244  18.168  1.00  0.00     0.014 C 
HETATM   13  C13 LIG X 999      41.821 132.435  19.516  1.00  0.00     0.031 C 
HETATM   14  C14 LIG X 999      42.727 132.008  20.494  1.00  0.00     0.045 C 
HETATM   15  N2  LIG X 999      42.425 132.211  21.809  1.00  0.00    -0.341 N 
HETATM   16  H12 LIG X 999      41.552 132.730  22.061  1.00  0.00     0.167 HD
ENDROOT
BRANCH   1  17
HETATM   17  N1  LIG X 999      42.937 131.992  24.049  1.00  0.00    -0.284 NA
HETATM   18  H1  LIG X 999      43.617 131.819  24.823  1.00  0.00     0.188 HD
ENDBRANCH   1  17
TORSDOF 1
