REMARK VINA RESULT:      -8.3      3.004      8.459
REMARK  5 active torsions:
REMARK  status: ('A' for Active; 'I' for Inactive)
REMARK    1  A    between atoms: C2_2  and  C3_3 
REMARK    2  A    between atoms: C2_2  and  N1_13 
REMARK    3  A    between atoms: C14_15  and  C15_16 
REMARK    4  A    between atoms: C15_16  and  C16_17 
REMARK       I    between atoms: C16_17  and  N2_19 
REMARK    5  A    between atoms: N2_19  and  C17_20 
ROOT
HETATM    1  N1  LIG X 999      43.815 131.372  21.750  1.00  0.00    -0.274 N 
HETATM    2  C13 LIG X 999      43.269 131.294  20.522  1.00  0.00     0.137 A 
HETATM    3  C14 LIG X 999      44.260 131.662  19.640  1.00  0.00     0.078 A 
HETATM    4  N4  LIG X 999      45.366 131.976  20.345  1.00  0.00    -0.163 NA
HETATM    5  N5  LIG X 999      45.067 131.787  21.622  1.00  0.00     0.005 NA
ENDROOT
BRANCH   1   6
HETATM    6  C2  LIG X 999      43.161 131.139  23.040  1.00  0.00     0.134 C 
HETATM    7  C1  LIG X 999      43.852 131.927  24.162  1.00  0.00     0.039 C 
BRANCH   6   8
HETATM    8  C3  LIG X 999      43.075 129.649  23.327  1.00  0.00    -0.033 A 
HETATM    9  C4  LIG X 999      44.214 128.823  23.272  1.00  0.00     0.010 A 
HETATM   10  C5  LIG X 999      44.108 127.447  23.499  1.00  0.00     0.013 A 
HETATM   11  C6  LIG X 999      42.861 126.869  23.770  1.00  0.00    -0.026 A 
HETATM   12  C7  LIG X 999      42.748 125.488  23.998  1.00  0.00     0.012 A 
HETATM   13  C11 LIG X 999      41.705 127.685  23.807  1.00  0.00    -0.025 A 
HETATM   14  C8  LIG X 999      41.496 124.922  24.259  1.00  0.00     0.001 A 
HETATM   15  C9  LIG X 999      40.353 125.726  24.292  1.00  0.00     0.001 A 
HETATM   16  C10 LIG X 999      40.454 127.103  24.069  1.00  0.00     0.012 A 
HETATM   17  C12 LIG X 999      41.819 129.065  23.580  1.00  0.00     0.021 A 
ENDBRANCH   6   8
ENDBRANCH   1   6
BRANCH   3  18
HETATM   18  C15 LIG X 999      44.122 131.825  18.161  1.00  0.00     0.167 C 
BRANCH  18  19
HETATM   19  C16 LIG X 999      45.224 131.091  17.467  1.00  0.00     0.251 C 
HETATM   20  O1  LIG X 999      45.722 130.063  18.001  1.00  0.00    -0.271 OA
HETATM   21  N2  LIG X 999      45.697 131.567  16.201  1.00  0.00    -0.189 NA
BRANCH  21  22
HETATM   22  C17 LIG X 999      46.536 130.853  15.285  1.00  0.00     0.173 A 
HETATM   23  N3  LIG X 999      47.010 129.600  15.476  1.00  0.00    -0.344 N 
HETATM   24  C18 LIG X 999      47.728 129.156  14.411  1.00  0.00     0.097 A 
HETATM   25  H15 LIG X 999      46.833 129.009  16.318  1.00  0.00     0.167 HD
HETATM   26  C19 LIG X 999      47.813 130.052  13.349  1.00  0.00     0.070 A 
HETATM   27  S1  LIG X 999      46.955 131.439  13.767  1.00  0.00    -0.062 SA
ENDBRANCH  21  22
ENDBRANCH  18  19
ENDBRANCH   3  18
TORSDOF 5
