REMARK VINA RESULT:      -7.2      2.156      4.828
REMARK  1 active torsions:
REMARK  status: ('A' for Active; 'I' for Inactive)
REMARK    1  A    between atoms: C4_4  and  N1_5 
ROOT
HETATM    1  C1  LIG X 999      46.409 130.733  20.003  1.00  0.00     0.049 C 
HETATM    2  C2  LIG X 999      45.119 131.019  19.272  1.00  0.00    -0.045 C 
HETATM    3  C3  LIG X 999      45.183 130.982  17.872  1.00  0.00     0.055 C 
HETATM    4  C4  LIG X 999      44.140 131.492  17.104  1.00  0.00     0.099 C 
HETATM    5  N2  LIG X 999      43.070 132.063  17.715  1.00  0.00    -0.342 N 
HETATM    6  C5  LIG X 999      42.940 132.083  19.072  1.00  0.00     0.045 C 
HETATM    7  C6  LIG X 999      41.847 132.750  19.639  1.00  0.00     0.031 C 
HETATM    8  C7  LIG X 999      41.679 132.797  21.016  1.00  0.00     0.014 C 
HETATM    9  C8  LIG X 999      42.538 132.082  21.854  1.00  0.00    -0.025 C 
HETATM   10  C9  LIG X 999      42.280 132.054  23.235  1.00  0.00     0.012 C 
HETATM   11  C10 LIG X 999      43.037 131.242  24.076  1.00  0.00     0.001 C 
HETATM   12  C11 LIG X 999      44.026 130.423  23.542  1.00  0.00     0.001 C 
HETATM   13  C12 LIG X 999      44.303 130.451  22.173  1.00  0.00     0.013 C 
HETATM   14  C13 LIG X 999      43.626 131.344  21.307  1.00  0.00    -0.013 C 
HETATM   15  C14 LIG X 999      43.912 131.455  19.905  1.00  0.00     0.008 C 
HETATM   16  H7  LIG X 999      42.329 132.497  17.117  1.00  0.00     0.167 HD
ENDROOT
BRANCH   4  17
HETATM   17  N1  LIG X 999      44.224 131.470  15.675  1.00  0.00    -0.385 N 
HETATM   18  H5  LIG X 999      45.129 131.269  15.194  1.00  0.00     0.157 HD
HETATM   19  H6  LIG X 999      43.378 131.651  15.091  1.00  0.00     0.157 HD
ENDBRANCH   4  17
TORSDOF 1
