REMARK VINA RESULT:      -6.5      2.922      6.874
REMARK  3 active torsions:
REMARK  status: ('A' for Active; 'I' for Inactive)
REMARK    1  A    between atoms: C3_3  and  O1_4 
REMARK    2  A    between atoms: C3_3  and  C4_5 
REMARK    3  A    between atoms: C3_3  and  C14_15 
ROOT
HETATM    1  C1  LIG X 999      41.762 132.323  23.929  1.00  0.00     0.015 C 
HETATM    2  C2  LIG X 999      42.720 131.806  23.409  1.00  0.00    -0.073 C 
HETATM    3  C3  LIG X 999      43.902 131.172  22.770  1.00  0.00     0.154 C 
ENDROOT
BRANCH   3   4
HETATM    4  O1  LIG X 999      45.046 131.834  23.266  1.00  0.00    -0.372 OA
HETATM    5  H2  LIG X 999      44.839 132.180  24.176  1.00  0.00     0.212 HD
ENDBRANCH   3   4
BRANCH   3   6
HETATM    6  C4  LIG X 999      43.823 131.350  21.240  1.00  0.00    -0.010 A 
HETATM    7  C5  LIG X 999      42.658 131.844  20.616  1.00  0.00     0.012 A 
HETATM    8  C6  LIG X 999      42.584 131.977  19.227  1.00  0.00     0.013 A 
HETATM    9  C7  LIG X 999      43.670 131.607  18.425  1.00  0.00    -0.026 A 
HETATM   10  C8  LIG X 999      43.603 131.734  17.028  1.00  0.00     0.012 A 
HETATM   11  C12 LIG X 999      44.842 131.096  19.027  1.00  0.00    -0.025 A 
HETATM   12  C9  LIG X 999      44.691 131.356  16.237  1.00  0.00     0.001 A 
HETATM   13  C10 LIG X 999      45.849 130.847  16.832  1.00  0.00     0.001 A 
HETATM   14  C11 LIG X 999      45.927 130.717  18.222  1.00  0.00     0.012 A 
HETATM   15  C13 LIG X 999      44.909 130.967  20.422  1.00  0.00     0.023 A 
ENDBRANCH   3   6
BRANCH   3  16
HETATM   16  C14 LIG X 999      43.996 129.643  23.179  1.00  0.00    -0.004 C 
HETATM   17  C15 LIG X 999      44.529 129.495  24.625  1.00  0.00     0.019 C 
HETATM   18  C16 LIG X 999      42.592 128.986  23.129  1.00  0.00     0.019 C 
HETATM   19  C17 LIG X 999      44.932 128.845  22.239  1.00  0.00     0.019 C 
ENDBRANCH   3  16
TORSDOF 3
