REMARK VINA RESULT:      -3.9      2.992      6.030
REMARK  3 active torsions:
REMARK  status: ('A' for Active; 'I' for Inactive)
REMARK    1  A    between atoms: C5_5  and  N1_6 
REMARK    2  A    between atoms: C6_9  and  N4_10 
REMARK    3  A    between atoms: C8_15  and  N7_16 
ROOT
HETATM    1  N1  LIG X 999      45.025 129.897  21.924  1.00  0.00    -0.069 NA
HETATM    2  N2  LIG X 999      44.492 130.649  21.107  1.00  0.00    -0.162 NA
HETATM    3  N3  LIG X 999      43.963 131.399  20.288  1.00  0.00     0.068 N 
ENDROOT
BRANCH   1   4
HETATM    4  C5  LIG X 999      44.271 128.935  22.680  1.00  0.00     0.137 C 
HETATM    5  C4  LIG X 999      44.730 127.599  22.740  1.00  0.00     0.011 A 
HETATM    6  C3  LIG X 999      45.979 127.244  22.187  1.00  0.00     0.015 A 
HETATM    7  C9  LIG X 999      43.932 126.597  23.355  1.00  0.00     0.010 A 
HETATM    8  C2  LIG X 999      46.449 125.935  22.276  1.00  0.00     0.001 A 
HETATM    9  C1  LIG X 999      45.693 124.963  22.924  1.00  0.00     0.001 A 
HETATM   10  C10 LIG X 999      44.449 125.288  23.467  1.00  0.00     0.015 A 
HETATM   11  C8  LIG X 999      42.655 126.940  23.867  1.00  0.00     0.128 C 
HETATM   12  C7  LIG X 999      42.255 128.284  23.888  1.00  0.00     0.100 C 
HETATM   13  C6  LIG X 999      43.065 129.287  23.336  1.00  0.00     0.149 C 
HETATM   14 CL1  LIG X 999      40.711 128.722  24.625  1.00  0.00    -0.079 Cl
BRANCH  11  15
HETATM   15  N7  LIG X 999      41.745 125.957  24.387  1.00  0.00    -0.070 NA
HETATM   16  N8  LIG X 999      40.996 125.308  23.655  1.00  0.00    -0.162 NA
HETATM   17  N9  LIG X 999      40.247 124.661  22.926  1.00  0.00     0.068 N 
ENDBRANCH  11  15
BRANCH  13  18
HETATM   18  N4  LIG X 999      42.653 130.653  23.496  1.00  0.00    -0.068 NA
HETATM   19  N5  LIG X 999      43.362 131.490  24.057  1.00  0.00    -0.162 NA
HETATM   20  N6  LIG X 999      44.067 132.327  24.621  1.00  0.00     0.068 N 
ENDBRANCH  13  18
ENDBRANCH   1   4
TORSDOF 3
