REMARK VINA RESULT:      -4.5      3.900      5.679
REMARK  3 active torsions:
REMARK  status: ('A' for Active; 'I' for Inactive)
REMARK    1  A    between atoms: C3_3  and  S1_4 
REMARK    2  A    between atoms: S1_4  and  C4_7 
REMARK    3  A    between atoms: C6_9  and  N1_10 
ROOT
HETATM    1  C1  LIG X 999      48.942 123.458  20.113  1.00  0.00     0.013 C 
HETATM    2  C2  LIG X 999      48.013 123.300  20.865  1.00  0.00    -0.102 C 
HETATM    3  C3  LIG X 999      46.882 123.113  21.777  1.00  0.00     0.238 C 
ENDROOT
BRANCH   3   4
HETATM    4  S1  LIG X 999      46.590 124.612  22.700  1.00  0.00     0.186 S 
HETATM    5  O1  LIG X 999      47.235 125.755  21.964  1.00  0.00    -0.222 OA
HETATM    6  O2  LIG X 999      47.228 124.515  24.058  1.00  0.00    -0.222 OA
BRANCH   4   7
HETATM    7  C4  LIG X 999      44.845 124.903  22.867  1.00  0.00     0.073 A 
HETATM    8  C5  LIG X 999      43.972 123.836  22.596  1.00  0.00     0.058 A 
HETATM    9  C6  LIG X 999      42.589 123.982  22.712  1.00  0.00     0.095 A 
HETATM   10  C7  LIG X 999      42.054 125.214  23.110  1.00  0.00     0.046 A 
HETATM   11  C8  LIG X 999      42.898 126.295  23.396  1.00  0.00    -0.022 A 
HETATM   12  C9  LIG X 999      42.345 127.521  23.802  1.00  0.00     0.012 A 
HETATM   13  C13 LIG X 999      44.308 126.152  23.280  1.00  0.00    -0.004 A 
HETATM   14  C10 LIG X 999      43.173 128.603  24.097  1.00  0.00     0.001 A 
HETATM   15  C11 LIG X 999      44.556 128.474  23.992  1.00  0.00     0.001 A 
HETATM   16  C12 LIG X 999      45.123 127.263  23.589  1.00  0.00     0.014 A 
BRANCH   9  17
HETATM   17  N1  LIG X 999      41.750 122.855  22.420  1.00  0.00    -0.073 NA
HETATM   18  N2  LIG X 999      40.550 122.836  22.694  1.00  0.00    -0.162 NA
HETATM   19  N3  LIG X 999      39.350 122.815  22.966  1.00  0.00     0.068 N 
ENDBRANCH   9  17
ENDBRANCH   4   7
ENDBRANCH   3   4
TORSDOF 3
