REMARK VINA RESULT:      -7.7      0.000      0.000
REMARK  1 active torsions:
REMARK  status: ('A' for Active; 'I' for Inactive)
REMARK    1  A    between atoms: C11_13  and  N2_14 
ROOT
HETATM    1  N2  LIG X 999      47.554 129.514  14.406  1.00  0.00    -0.053 NA
HETATM    2  N3  LIG X 999      47.800 130.168  13.392  1.00  0.00    -0.160 NA
HETATM    3  N4  LIG X 999      48.052 130.813  12.376  1.00  0.00     0.068 N 
ENDROOT
BRANCH   1   4
HETATM    4  C11 LIG X 999      46.693 129.993  15.446  1.00  0.00     0.175 A 
HETATM    5  C10 LIG X 999      45.466 130.651  15.303  1.00  0.00     0.026 A 
HETATM    6  C5  LIG X 999      45.054 130.890  16.574  1.00  0.00     0.017 A 
HETATM    7  C9  LIG X 999      44.674 131.064  14.224  1.00  0.00     0.016 A 
HETATM    8  C4  LIG X 999      45.970 130.408  17.445  1.00  0.00     0.046 A 
HETATM    9  C6  LIG X 999      43.882 131.526  16.916  1.00  0.00     0.005 A 
HETATM   10  C3  LIG X 999      45.768 130.536  18.900  1.00  0.00     0.033 A 
HETATM   11  N5  LIG X 999      46.994 129.848  16.767  1.00  0.00    -0.337 N 
HETATM   12  C2  LIG X 999      44.644 131.148  19.340  1.00  0.00     0.034 A 
HETATM   13  C1  LIG X 999      43.624 131.684  18.372  1.00  0.00     0.059 A 
HETATM   14  N1  LIG X 999      42.548 132.269  18.793  1.00  0.00    -0.300 NA
HETATM   15  H1  LIG X 999      42.350 132.390  19.812  1.00  0.00     0.187 HD
HETATM   16  H7  LIG X 999      47.842 129.396  17.173  1.00  0.00     0.167 HD
HETATM   17  C7  LIG X 999      43.055 131.958  15.859  1.00  0.00     0.015 A 
HETATM   18  C8  LIG X 999      43.456 131.724  14.516  1.00  0.00     0.002 A 
ENDBRANCH   1   4
TORSDOF 1
