REMARK VINA RESULT:      -6.9      1.839      3.113
REMARK  1 active torsions:
REMARK  status: ('A' for Active; 'I' for Inactive)
REMARK    1  A    between atoms: C5_8  and  O1_9 
ROOT
HETATM    1  H1  LIG X 999      43.907 131.394  14.508  1.00  0.00     0.187 HD
HETATM    2  N1  LIG X 999      43.498 131.631  15.439  1.00  0.00    -0.300 NA
HETATM    3  C1  LIG X 999      44.117 131.364  16.545  1.00  0.00     0.059 A 
HETATM    4  C2  LIG X 999      45.466 130.696  16.537  1.00  0.00     0.034 A 
HETATM    5  C3  LIG X 999      46.113 130.417  17.692  1.00  0.00     0.035 A 
HETATM    6  C4  LIG X 999      45.467 130.784  18.965  1.00  0.00     0.071 A 
HETATM    7  N2  LIG X 999      45.913 130.609  20.231  1.00  0.00    -0.224 NA
HETATM    8  C5  LIG X 999      44.920 131.129  21.012  1.00  0.00     0.174 A 
HETATM    9  C6  LIG X 999      43.878 131.617  20.241  1.00  0.00     0.030 A 
HETATM   10  C7  LIG X 999      42.657 132.232  20.519  1.00  0.00     0.017 A 
HETATM   11  C8  LIG X 999      41.843 132.595  19.417  1.00  0.00     0.002 A 
HETATM   12  C9  LIG X 999      42.266 132.337  18.082  1.00  0.00     0.015 A 
HETATM   13  C10 LIG X 999      43.512 131.711  17.857  1.00  0.00     0.005 A 
HETATM   14  C11 LIG X 999      44.255 131.384  18.967  1.00  0.00     0.020 A 
ENDROOT
BRANCH   8  15
HETATM   15  O1  LIG X 999      44.966 131.157  22.401  1.00  0.00    -0.344 OA
HETATM   16  H4  LIG X 999      45.489 131.876  22.885  1.00  0.00     0.219 HD
ENDBRANCH   8  15
TORSDOF 1
