REMARK VINA RESULT:      -6.7      2.460      4.966
REMARK  1 active torsions:
REMARK  status: ('A' for Active; 'I' for Inactive)
REMARK    1  A    between atoms: N1_1  and  C1_2 
ROOT
HETATM    1  C1  LIG X 999      44.406 131.251  15.857  1.00  0.00     0.026 A 
HETATM    2  C2  LIG X 999      45.609 130.559  16.053  1.00  0.00     0.030 A 
HETATM    3  C3  LIG X 999      46.089 130.324  17.343  1.00  0.00     0.014 A 
HETATM    4  C4  LIG X 999      45.368 130.777  18.458  1.00  0.00    -0.026 A 
HETATM    5  C5  LIG X 999      45.840 130.546  19.759  1.00  0.00     0.012 A 
HETATM    6  C6  LIG X 999      45.111 131.004  20.861  1.00  0.00     0.001 A 
HETATM    7  C7  LIG X 999      43.911 131.694  20.673  1.00  0.00     0.001 A 
HETATM    8  C8  LIG X 999      43.429 131.931  19.381  1.00  0.00     0.012 A 
HETATM    9  C9  LIG X 999      44.151 131.476  18.267  1.00  0.00    -0.024 A 
HETATM   10  C10 LIG X 999      43.678 131.708  16.966  1.00  0.00     0.041 A 
ENDROOT
BRANCH   1  11
HETATM   11  N1  LIG X 999      43.921 131.489  14.533  1.00  0.00    -0.399 N 
HETATM   12  H1  LIG X 999      44.331 132.245  13.942  1.00  0.00     0.156 HD
HETATM   13  H2  LIG X 999      43.150 130.910  14.134  1.00  0.00     0.156 HD
ENDBRANCH   1  11
TORSDOF 1
