REMARK VINA RESULT:      -6.5      2.706      5.795
REMARK  1 active torsions:
REMARK  status: ('A' for Active; 'I' for Inactive)
REMARK    1  A    between atoms: C8_8  and  N1_9 
ROOT
HETATM    1  N1  LIG X 999      42.249 132.286  18.276  1.00  0.00    -0.072 NA
HETATM    2  N2  LIG X 999      42.037 132.648  19.433  1.00  0.00    -0.162 NA
HETATM    3  N3  LIG X 999      41.822 133.015  20.587  1.00  0.00     0.068 N 
ENDROOT
BRANCH   1   4
HETATM    4  C8  LIG X 999      43.483 131.681  17.864  1.00  0.00     0.104 A 
HETATM    5  C7  LIG X 999      44.393 131.283  18.882  1.00  0.00     0.038 A 
HETATM    6  C6  LIG X 999      45.610 130.635  18.572  1.00  0.00     0.035 A 
HETATM    7  C5  LIG X 999      45.903 130.399  17.231  1.00  0.00     0.073 A 
HETATM    8  C4  LIG X 999      45.036 130.809  16.261  1.00  0.00     0.021 A 
HETATM    9  N4  LIG X 999      47.078 129.798  16.677  1.00  0.00    -0.209 NA
HETATM   10  C3  LIG X 999      45.532 130.544  15.026  1.00  0.00     0.047 A 
HETATM   11  C9  LIG X 999      43.835 131.465  16.499  1.00  0.00     0.009 A 
HETATM   12  C2  LIG X 999      44.845 130.937  13.881  1.00  0.00     0.018 A 
HETATM   13  C11 LIG X 999      46.820 129.901  15.268  1.00  0.00     0.278 A 
HETATM   14  C1  LIG X 999      43.622 131.622  14.055  1.00  0.00     0.002 A 
HETATM   15  C10 LIG X 999      43.120 131.896  15.354  1.00  0.00     0.015 A 
HETATM   16  O1  LIG X 999      47.614 129.494  14.378  1.00  0.00    -0.265 OA
ENDBRANCH   1   4
TORSDOF 1
