REMARK VINA RESULT:      -5.8      1.316      2.662
REMARK  3 active torsions:
REMARK  status: ('A' for Active; 'I' for Inactive)
REMARK    1  A    between atoms: C3_3  and  O1_4 
REMARK    2  A    between atoms: O1_4  and  C4_5 
REMARK    3  A    between atoms: C13_14  and  C14_15 
ROOT
HETATM    1  C1  LIG X 999      46.449 131.150  14.947  1.00  0.00     0.014 C 
HETATM    2  C2  LIG X 999      45.561 131.421  15.715  1.00  0.00    -0.091 C 
HETATM    3  C3  LIG X 999      44.482 131.751  16.647  1.00  0.00     0.268 C 
ENDROOT
BRANCH   3   4
HETATM    4  O1  LIG X 999      44.908 131.458  17.975  1.00  0.00    -0.339 OA
BRANCH   4   5
HETATM    5  C4  LIG X 999      44.136 131.665  19.132  1.00  0.00     0.084 A 
HETATM    6  C5  LIG X 999      42.881 132.294  19.061  1.00  0.00     0.039 A 
HETATM    7  C6  LIG X 999      42.135 132.527  20.211  1.00  0.00     0.015 A 
HETATM    8  C7  LIG X 999      42.615 132.124  21.461  1.00  0.00    -0.025 A 
HETATM    9  C8  LIG X 999      41.843 132.358  22.610  1.00  0.00     0.012 A 
HETATM   10  C12 LIG X 999      43.873 131.471  21.564  1.00  0.00    -0.010 A 
HETATM   11  C9  LIG X 999      42.295 131.941  23.860  1.00  0.00     0.001 A 
HETATM   12  C10 LIG X 999      43.515 131.277  23.974  1.00  0.00     0.001 A 
HETATM   13  C11 LIG X 999      44.297 131.038  22.842  1.00  0.00     0.013 A 
HETATM   14  C13 LIG X 999      44.644 131.250  20.387  1.00  0.00     0.046 A 
BRANCH  14  15
HETATM   15  C14 LIG X 999      45.990 130.622  20.455  1.00  0.00     0.273 C 
HETATM   16  O2  LIG X 999      46.123 129.373  20.556  1.00  0.00    -0.301 OA
ENDBRANCH  14  15
ENDBRANCH   4   5
ENDBRANCH   3   4
TORSDOF 3
