MODEL 1
REMARK VINA RESULT:      -5.2      0.000      0.000
REMARK  3 active torsions:
REMARK  status: ('A' for Active; 'I' for Inactive)
REMARK    1  A    between atoms: C3_3  and  S1_4 
REMARK    2  A    between atoms: S1_4  and  C4_7 
REMARK    3  A    between atoms: C6_9  and  N1_10 
ROOT
HETATM    1  C1  LIG X 999      42.714 131.788  20.051  1.00  0.00     0.013 C 
HETATM    2  C2  LIG X 999      43.492 131.410  20.891  1.00  0.00    -0.102 C 
HETATM    3  C3  LIG X 999      44.433 130.946  21.913  1.00  0.00     0.238 C 
ENDROOT
BRANCH   3   4
HETATM    4  S1  LIG X 999      43.595 130.774  23.479  1.00  0.00     0.186 S 
HETATM    5  O1  LIG X 999      42.518 131.821  23.558  1.00  0.00    -0.222 OA
HETATM    6  O2  LIG X 999      44.557 131.012  24.609  1.00  0.00    -0.222 OA
BRANCH   4   7
HETATM    7  C4  LIG X 999      42.879 129.153  23.620  1.00  0.00     0.073 A 
HETATM    8  C5  LIG X 999      41.546 129.060  24.050  1.00  0.00     0.058 A 
HETATM    9  C6  LIG X 999      40.908 127.825  24.179  1.00  0.00     0.095 A 
HETATM   10  C7  LIG X 999      41.607 126.650  23.870  1.00  0.00     0.046 A 
HETATM   11  C8  LIG X 999      42.935 126.710  23.430  1.00  0.00    -0.022 A 
HETATM   12  C9  LIG X 999      43.619 125.523  23.116  1.00  0.00     0.012 A 
HETATM   13  C13 LIG X 999      43.589 127.966  23.296  1.00  0.00    -0.004 A 
HETATM   14  C10 LIG X 999      44.939 125.568  22.670  1.00  0.00     0.001 A 
HETATM   15  C11 LIG X 999      45.589 126.793  22.531  1.00  0.00     0.001 A 
HETATM   16  C12 LIG X 999      44.925 127.982  22.839  1.00  0.00     0.014 A 
BRANCH   9  17
HETATM   17  N1  LIG X 999      39.545 127.796  24.625  1.00  0.00    -0.073 NA
HETATM   18  N2  LIG X 999      38.625 127.393  23.912  1.00  0.00    -0.162 NA
HETATM   19  N3  LIG X 999      37.705 126.990  23.202  1.00  0.00     0.068 N 
ENDBRANCH   9  17
ENDBRANCH   4   7
ENDBRANCH   3   4
TORSDOF 3
ENDMDL
MODEL 2
REMARK VINA RESULT:      -4.9      3.719      4.948
REMARK  3 active torsions:
REMARK  status: ('A' for Active; 'I' for Inactive)
REMARK    1  A    between atoms: C3_3  and  S1_4 
REMARK    2  A    between atoms: S1_4  and  C4_7 
REMARK    3  A    between atoms: C6_9  and  N1_10 
ROOT
HETATM    1  C1  LIG X 999      45.317 131.764  16.257  1.00  0.00     0.013 C 
HETATM    2  C2  LIG X 999      45.518 131.174  17.288  1.00  0.00    -0.102 C 
HETATM    3  C3  LIG X 999      45.757 130.456  18.543  1.00  0.00     0.238 C 
ENDROOT
BRANCH   3   4
HETATM    4  S1  LIG X 999      44.942 131.297  19.890  1.00  0.00     0.186 S 
HETATM    5  O1  LIG X 999      43.612 131.800  19.399  1.00  0.00    -0.222 OA
HETATM    6  O2  LIG X 999      45.756 132.484  20.325  1.00  0.00    -0.222 OA
BRANCH   4   7
HETATM    7  C4  LIG X 999      44.705 130.187  21.257  1.00  0.00     0.073 A 
HETATM    8  C5  LIG X 999      45.380 128.955  21.227  1.00  0.00     0.058 A 
HETATM    9  C6  LIG X 999      45.254 128.032  22.267  1.00  0.00     0.095 A 
HETATM   10  C7  LIG X 999      44.440 128.336  23.367  1.00  0.00     0.046 A 
HETATM   11  C8  LIG X 999      43.761 129.559  23.430  1.00  0.00    -0.022 A 
HETATM   12  C9  LIG X 999      42.956 129.851  24.544  1.00  0.00     0.012 A 
HETATM   13  C13 LIG X 999      43.887 130.504  22.375  1.00  0.00    -0.004 A 
HETATM   14  C10 LIG X 999      42.280 131.068  24.625  1.00  0.00     0.001 A 
HETATM   15  C11 LIG X 999      42.400 132.004  23.599  1.00  0.00     0.001 A 
HETATM   16  C12 LIG X 999      43.195 131.729  22.484  1.00  0.00     0.014 A 
BRANCH   9  17
HETATM   17  N1  LIG X 999      45.967 126.791  22.177  1.00  0.00    -0.073 NA
HETATM   18  N2  LIG X 999      45.440 125.706  22.427  1.00  0.00    -0.162 NA
HETATM   19  N3  LIG X 999      44.915 124.622  22.675  1.00  0.00     0.068 N 
ENDBRANCH   9  17
ENDBRANCH   4   7
ENDBRANCH   3   4
TORSDOF 3
ENDMDL
MODEL 3
REMARK VINA RESULT:      -4.8      2.105      2.719
REMARK  3 active torsions:
REMARK  status: ('A' for Active; 'I' for Inactive)
REMARK    1  A    between atoms: C3_3  and  S1_4 
REMARK    2  A    between atoms: S1_4  and  C4_7 
REMARK    3  A    between atoms: C6_9  and  N1_10 
ROOT
HETATM    1  C1  LIG X 999      43.154 131.705  21.343  1.00  0.00     0.013 C 
HETATM    2  C2  LIG X 999      42.952 130.817  22.132  1.00  0.00    -0.102 C 
HETATM    3  C3  LIG X 999      42.709 129.739  23.094  1.00  0.00     0.238 C 
ENDROOT
BRANCH   3   4
HETATM    4  S1  LIG X 999      44.179 128.744  23.275  1.00  0.00     0.186 S 
HETATM    5  O1  LIG X 999      44.817 129.077  24.596  1.00  0.00    -0.222 OA
HETATM    6  O2  LIG X 999      45.163 129.073  22.188  1.00  0.00    -0.222 OA
BRANCH   4   7
HETATM    7  C4  LIG X 999      43.764 127.016  23.219  1.00  0.00     0.073 A 
HETATM    8  C5  LIG X 999      42.448 126.647  23.540  1.00  0.00     0.058 A 
HETATM    9  C6  LIG X 999      42.040 125.312  23.510  1.00  0.00     0.095 A 
HETATM   10  C7  LIG X 999      42.959 124.316  23.151  1.00  0.00     0.046 A 
HETATM   11  C8  LIG X 999      44.276 124.653  22.817  1.00  0.00    -0.022 A 
HETATM   12  C9  LIG X 999      45.182 123.643  22.452  1.00  0.00     0.012 A 
HETATM   13  C13 LIG X 999      44.696 126.011  22.844  1.00  0.00    -0.004 A 
HETATM   14  C10 LIG X 999      46.494 123.964  22.110  1.00  0.00     0.001 A 
HETATM   15  C11 LIG X 999      46.917 125.292  22.127  1.00  0.00     0.001 A 
HETATM   16  C12 LIG X 999      46.030 126.309  22.490  1.00  0.00     0.014 A 
BRANCH   9  17
HETATM   17  N1  LIG X 999      40.682 124.998  23.851  1.00  0.00    -0.073 NA
HETATM   18  N2  LIG X 999      40.091 124.025  23.380  1.00  0.00    -0.162 NA
HETATM   19  N3  LIG X 999      39.499 123.054  22.911  1.00  0.00     0.068 N 
ENDBRANCH   9  17
ENDBRANCH   4   7
ENDBRANCH   3   4
TORSDOF 3
ENDMDL
MODEL 4
REMARK VINA RESULT:      -4.7      3.539      4.416
REMARK  3 active torsions:
REMARK  status: ('A' for Active; 'I' for Inactive)
REMARK    1  A    between atoms: C3_3  and  S1_4 
REMARK    2  A    between atoms: S1_4  and  C4_7 
REMARK    3  A    between atoms: C6_9  and  N1_10 
ROOT
HETATM    1  C1  LIG X 999      45.166 130.886  18.532  1.00  0.00     0.013 C 
HETATM    2  C2  LIG X 999      45.410 130.975  19.709  1.00  0.00    -0.102 C 
HETATM    3  C3  LIG X 999      45.705 131.078  21.140  1.00  0.00     0.238 C 
ENDROOT
BRANCH   3   4
HETATM    4  S1  LIG X 999      44.247 130.688  22.091  1.00  0.00     0.186 S 
HETATM    5  O1  LIG X 999      43.037 130.996  21.251  1.00  0.00    -0.222 OA
HETATM    6  O2  LIG X 999      44.187 131.548  23.323  1.00  0.00    -0.222 OA
BRANCH   4   7
HETATM    7  C4  LIG X 999      44.249 128.970  22.548  1.00  0.00     0.073 A 
HETATM    8  C5  LIG X 999      45.379 128.205  22.219  1.00  0.00     0.058 A 
HETATM    9  C6  LIG X 999      45.463 126.852  22.551  1.00  0.00     0.095 A 
HETATM   10  C7  LIG X 999      44.400 126.239  23.228  1.00  0.00     0.046 A 
HETATM   11  C8  LIG X 999      43.261 126.977  23.577  1.00  0.00    -0.022 A 
HETATM   12  C9  LIG X 999      42.209 126.349  24.264  1.00  0.00     0.012 A 
HETATM   13  C13 LIG X 999      43.172 128.356  23.243  1.00  0.00    -0.004 A 
HETATM   14  C10 LIG X 999      41.073 127.072  24.625  1.00  0.00     0.001 A 
HETATM   15  C11 LIG X 999      40.976 128.426  24.307  1.00  0.00     0.001 A 
HETATM   16  C12 LIG X 999      42.013 129.065  23.624  1.00  0.00     0.014 A 
BRANCH   9  17
HETATM   17  N1  LIG X 999      46.644 126.124  22.186  1.00  0.00    -0.073 NA
HETATM   18  N2  LIG X 999      46.636 124.908  21.989  1.00  0.00    -0.162 NA
HETATM   19  N3  LIG X 999      46.630 123.694  21.790  1.00  0.00     0.068 N 
ENDBRANCH   9  17
ENDBRANCH   4   7
ENDBRANCH   3   4
TORSDOF 3
ENDMDL
MODEL 5
REMARK VINA RESULT:      -4.6      3.912      5.579
REMARK  3 active torsions:
REMARK  status: ('A' for Active; 'I' for Inactive)
REMARK    1  A    between atoms: C3_3  and  S1_4 
REMARK    2  A    between atoms: S1_4  and  C4_7 
REMARK    3  A    between atoms: C6_9  and  N1_10 
ROOT
HETATM    1  C1  LIG X 999      47.356 124.033  21.625  1.00  0.00     0.013 C 
HETATM    2  C2  LIG X 999      46.663 124.751  22.300  1.00  0.00    -0.102 C 
HETATM    3  C3  LIG X 999      45.819 125.620  23.124  1.00  0.00     0.238 C 
ENDROOT
BRANCH   3   4
HETATM    4  S1  LIG X 999      44.185 124.918  23.274  1.00  0.00     0.186 S 
HETATM    5  O1  LIG X 999      44.171 124.002  24.467  1.00  0.00    -0.222 OA
HETATM    6  O2  LIG X 999      43.861 124.099  22.056  1.00  0.00    -0.222 OA
BRANCH   4   7
HETATM    7  C4  LIG X 999      42.978 126.205  23.481  1.00  0.00     0.073 A 
HETATM    8  C5  LIG X 999      43.432 127.534  23.509  1.00  0.00     0.058 A 
HETATM    9  C6  LIG X 999      42.546 128.602  23.660  1.00  0.00     0.095 A 
HETATM   10  C7  LIG X 999      41.173 128.350  23.782  1.00  0.00     0.046 A 
HETATM   11  C8  LIG X 999      40.687 127.037  23.749  1.00  0.00    -0.022 A 
HETATM   12  C9  LIG X 999      39.307 126.803  23.865  1.00  0.00     0.012 A 
HETATM   13  C13 LIG X 999      41.585 125.945  23.595  1.00  0.00    -0.004 A 
HETATM   14  C10 LIG X 999      38.808 125.502  23.826  1.00  0.00     0.001 A 
HETATM   15  C11 LIG X 999      39.677 124.423  23.670  1.00  0.00     0.001 A 
HETATM   16  C12 LIG X 999      41.052 124.638  23.555  1.00  0.00     0.014 A 
BRANCH   9  17
HETATM   17  N1  LIG X 999      43.073 129.937  23.683  1.00  0.00    -0.073 NA
HETATM   18  N2  LIG X 999      43.128 130.643  22.676  1.00  0.00    -0.162 NA
HETATM   19  N3  LIG X 999      43.183 131.350  21.671  1.00  0.00     0.068 N 
ENDBRANCH   9  17
ENDBRANCH   4   7
ENDBRANCH   3   4
TORSDOF 3
ENDMDL
MODEL 6
REMARK VINA RESULT:      -4.6      4.433      6.582
REMARK  3 active torsions:
REMARK  status: ('A' for Active; 'I' for Inactive)
REMARK    1  A    between atoms: C3_3  and  S1_4 
REMARK    2  A    between atoms: S1_4  and  C4_7 
REMARK    3  A    between atoms: C6_9  and  N1_10 
ROOT
HETATM    1  C1  LIG X 999      44.297 128.421  23.136  1.00  0.00     0.013 C 
HETATM    2  C2  LIG X 999      44.564 129.504  22.678  1.00  0.00    -0.102 C 
HETATM    3  C3  LIG X 999      44.886 130.818  22.116  1.00  0.00     0.238 C 
ENDROOT
BRANCH   3   4
HETATM    4  S1  LIG X 999      45.731 130.623  20.557  1.00  0.00     0.186 S 
HETATM    5  O1  LIG X 999      46.125 129.179  20.409  1.00  0.00    -0.222 OA
HETATM    6  O2  LIG X 999      46.987 131.450  20.544  1.00  0.00    -0.222 OA
BRANCH   4   7
HETATM    7  C4  LIG X 999      44.670 131.105  19.216  1.00  0.00     0.073 A 
HETATM    8  C5  LIG X 999      43.456 131.735  19.533  1.00  0.00     0.058 A 
HETATM    9  C6  LIG X 999      42.571 132.152  18.537  1.00  0.00     0.095 A 
HETATM   10  C7  LIG X 999      42.898 131.943  17.190  1.00  0.00     0.046 A 
HETATM   11  C8  LIG X 999      44.106 131.325  16.841  1.00  0.00    -0.022 A 
HETATM   12  C9  LIG X 999      44.421 131.131  15.485  1.00  0.00     0.012 A 
HETATM   13  C13 LIG X 999      45.011 130.900  17.851  1.00  0.00    -0.004 A 
HETATM   14  C10 LIG X 999      45.623 130.525  15.122  1.00  0.00     0.001 A 
HETATM   15  C11 LIG X 999      46.520 130.108  16.103  1.00  0.00     0.001 A 
HETATM   16  C12 LIG X 999      46.222 130.292  17.455  1.00  0.00     0.014 A 
BRANCH   9  17
HETATM   17  N1  LIG X 999      41.345 132.788  18.925  1.00  0.00    -0.073 NA
HETATM   18  N2  LIG X 999      41.138 133.176  20.076  1.00  0.00    -0.162 NA
HETATM   19  N3  LIG X 999      40.929 133.564  21.224  1.00  0.00     0.068 N 
ENDBRANCH   9  17
ENDBRANCH   4   7
ENDBRANCH   3   4
TORSDOF 3
ENDMDL
MODEL 7
REMARK VINA RESULT:      -4.6      4.320      6.202
REMARK  3 active torsions:
REMARK  status: ('A' for Active; 'I' for Inactive)
REMARK    1  A    between atoms: C3_3  and  S1_4 
REMARK    2  A    between atoms: S1_4  and  C4_7 
REMARK    3  A    between atoms: C6_9  and  N1_10 
ROOT
HETATM    1  C1  LIG X 999      43.079 124.401  21.880  1.00  0.00     0.013 C 
HETATM    2  C2  LIG X 999      43.244 125.346  22.610  1.00  0.00    -0.102 C 
HETATM    3  C3  LIG X 999      43.446 126.497  23.494  1.00  0.00     0.238 C 
ENDROOT
BRANCH   3   4
HETATM    4  S1  LIG X 999      45.018 127.264  23.144  1.00  0.00     0.186 S 
HETATM    5  O1  LIG X 999      45.787 126.366  22.214  1.00  0.00    -0.222 OA
HETATM    6  O2  LIG X 999      45.814 127.413  24.410  1.00  0.00    -0.222 OA
BRANCH   4   7
HETATM    7  C4  LIG X 999      44.773 128.854  22.388  1.00  0.00     0.073 A 
HETATM    8  C5  LIG X 999      45.454 129.123  21.190  1.00  0.00     0.058 A 
HETATM    9  C6  LIG X 999      45.309 130.344  20.529  1.00  0.00     0.095 A 
HETATM   10  C7  LIG X 999      44.464 131.325  21.067  1.00  0.00     0.046 A 
HETATM   11  C8  LIG X 999      43.764 131.084  22.256  1.00  0.00    -0.022 A 
HETATM   12  C9  LIG X 999      42.915 132.075  22.777  1.00  0.00     0.012 A 
HETATM   13  C13 LIG X 999      43.908 129.842  22.932  1.00  0.00    -0.004 A 
HETATM   14  C10 LIG X 999      42.207 131.847  23.955  1.00  0.00     0.001 A 
HETATM   15  C11 LIG X 999      42.335 130.631  24.625  1.00  0.00     0.001 A 
HETATM   16  C12 LIG X 999      43.176 129.636  24.121  1.00  0.00     0.014 A 
BRANCH   9  17
HETATM   17  N1  LIG X 999      46.033 130.559  19.309  1.00  0.00    -0.073 NA
HETATM   18  N2  LIG X 999      45.509 131.049  18.308  1.00  0.00    -0.162 NA
HETATM   19  N3  LIG X 999      44.989 131.540  17.307  1.00  0.00     0.068 N 
ENDBRANCH   9  17
ENDBRANCH   4   7
ENDBRANCH   3   4
TORSDOF 3
ENDMDL
MODEL 8
REMARK VINA RESULT:      -4.5      3.900      5.679
REMARK  3 active torsions:
REMARK  status: ('A' for Active; 'I' for Inactive)
REMARK    1  A    between atoms: C3_3  and  S1_4 
REMARK    2  A    between atoms: S1_4  and  C4_7 
REMARK    3  A    between atoms: C6_9  and  N1_10 
ROOT
HETATM    1  C1  LIG X 999      48.942 123.458  20.113  1.00  0.00     0.013 C 
HETATM    2  C2  LIG X 999      48.013 123.300  20.865  1.00  0.00    -0.102 C 
HETATM    3  C3  LIG X 999      46.882 123.113  21.777  1.00  0.00     0.238 C 
ENDROOT
BRANCH   3   4
HETATM    4  S1  LIG X 999      46.590 124.612  22.700  1.00  0.00     0.186 S 
HETATM    5  O1  LIG X 999      47.235 125.755  21.964  1.00  0.00    -0.222 OA
HETATM    6  O2  LIG X 999      47.228 124.515  24.058  1.00  0.00    -0.222 OA
BRANCH   4   7
HETATM    7  C4  LIG X 999      44.845 124.903  22.867  1.00  0.00     0.073 A 
HETATM    8  C5  LIG X 999      43.972 123.836  22.596  1.00  0.00     0.058 A 
HETATM    9  C6  LIG X 999      42.589 123.982  22.712  1.00  0.00     0.095 A 
HETATM   10  C7  LIG X 999      42.054 125.214  23.110  1.00  0.00     0.046 A 
HETATM   11  C8  LIG X 999      42.898 126.295  23.396  1.00  0.00    -0.022 A 
HETATM   12  C9  LIG X 999      42.345 127.521  23.802  1.00  0.00     0.012 A 
HETATM   13  C13 LIG X 999      44.308 126.152  23.280  1.00  0.00    -0.004 A 
HETATM   14  C10 LIG X 999      43.173 128.603  24.097  1.00  0.00     0.001 A 
HETATM   15  C11 LIG X 999      44.556 128.474  23.992  1.00  0.00     0.001 A 
HETATM   16  C12 LIG X 999      45.123 127.263  23.589  1.00  0.00     0.014 A 
BRANCH   9  17
HETATM   17  N1  LIG X 999      41.750 122.855  22.420  1.00  0.00    -0.073 NA
HETATM   18  N2  LIG X 999      40.550 122.836  22.694  1.00  0.00    -0.162 NA
HETATM   19  N3  LIG X 999      39.350 122.815  22.966  1.00  0.00     0.068 N 
ENDBRANCH   9  17
ENDBRANCH   4   7
ENDBRANCH   3   4
TORSDOF 3
ENDMDL
MODEL 9
REMARK VINA RESULT:      -4.2      6.707      8.091
REMARK  3 active torsions:
REMARK  status: ('A' for Active; 'I' for Inactive)
REMARK    1  A    between atoms: C3_3  and  S1_4 
REMARK    2  A    between atoms: S1_4  and  C4_7 
REMARK    3  A    between atoms: C6_9  and  N1_10 
ROOT
HETATM    1  C1  LIG X 999      47.345 130.979  13.395  1.00  0.00     0.013 C 
HETATM    2  C2  LIG X 999      46.793 131.444  14.360  1.00  0.00    -0.102 C 
HETATM    3  C3  LIG X 999      46.125 132.006  15.536  1.00  0.00     0.238 C 
ENDROOT
BRANCH   3   4
HETATM    4  S1  LIG X 999      45.539 130.691  16.590  1.00  0.00     0.186 S 
HETATM    5  O1  LIG X 999      46.608 129.635  16.669  1.00  0.00    -0.222 OA
HETATM    6  O2  LIG X 999      44.309 130.063  15.998  1.00  0.00    -0.222 OA
BRANCH   4   7
HETATM    7  C4  LIG X 999      45.181 131.316  18.215  1.00  0.00     0.073 A 
HETATM    8  C5  LIG X 999      46.247 131.436  19.122  1.00  0.00     0.058 A 
HETATM    9  C6  LIG X 999      46.050 131.927  20.414  1.00  0.00     0.095 A 
HETATM   10  C7  LIG X 999      44.765 132.312  20.819  1.00  0.00     0.046 A 
HETATM   11  C8  LIG X 999      43.683 132.212  19.936  1.00  0.00    -0.022 A 
HETATM   12  C9  LIG X 999      42.403 132.611  20.356  1.00  0.00     0.012 A 
HETATM   13  C13 LIG X 999      43.878 131.714  18.618  1.00  0.00    -0.004 A 
HETATM   14  C10 LIG X 999      41.317 132.525  19.485  1.00  0.00     0.001 A 
HETATM   15  C11 LIG X 999      41.497 132.043  18.190  1.00  0.00     0.001 A 
HETATM   16  C12 LIG X 999      42.762 131.641  17.756  1.00  0.00     0.014 A 
BRANCH   9  17
HETATM   17  N1  LIG X 999      47.179 132.024  21.294  1.00  0.00    -0.073 NA
HETATM   18  N2  LIG X 999      47.631 133.105  21.671  1.00  0.00    -0.162 NA
HETATM   19  N3  LIG X 999      48.084 134.184  22.051  1.00  0.00     0.068 N 
ENDBRANCH   9  17
ENDBRANCH   4   7
ENDBRANCH   3   4
TORSDOF 3
ENDMDL
