REMARK VINA RESULT:      -8.3      1.105      1.964
REMARK  3 active torsions:
REMARK  status: ('A' for Active; 'I' for Inactive)
REMARK    1  A    between atoms: C6_6  and  C7_7 
REMARK    2  A    between atoms: C7_7  and  N1_8 
REMARK    3  A    between atoms: C8_12  and  N4_13 
ROOT
HETATM    1  N1  LIG X 999      44.355 130.483  14.802  1.00  0.00    -0.065 NA
HETATM    2  N2  LIG X 999      43.559 131.201  14.196  1.00  0.00    -0.164 NA
HETATM    3  N3  LIG X 999      42.764 131.917  13.590  1.00  0.00     0.068 N 
ENDROOT
BRANCH   1   4
HETATM    4  C7  LIG X 999      45.340 131.066  15.703  1.00  0.00     0.267 A 
HETATM    5  O1  LIG X 999      45.770 132.325  15.236  1.00  0.00    -0.314 OA
HETATM    6  C8  LIG X 999      46.717 131.280  15.197  1.00  0.00     0.349 A 
BRANCH   4   7
HETATM    7  C6  LIG X 999      45.053 131.074  17.176  1.00  0.00     0.007 A 
HETATM    8  C5  LIG X 999      43.901 131.707  17.660  1.00  0.00     0.024 A 
HETATM    9  C4  LIG X 999      43.639 131.743  19.039  1.00  0.00    -0.025 A 
HETATM   10  C3  LIG X 999      42.484 132.369  19.532  1.00  0.00     0.012 A 
HETATM   11  C11 LIG X 999      44.552 131.145  19.942  1.00  0.00    -0.026 A 
HETATM   12  C2  LIG X 999      42.234 132.399  20.907  1.00  0.00     0.001 A 
HETATM   13  C1  LIG X 999      43.134 131.807  21.798  1.00  0.00     0.001 A 
HETATM   14  C12 LIG X 999      44.290 131.182  21.320  1.00  0.00     0.012 A 
HETATM   15  C10 LIG X 999      45.710 130.525  19.450  1.00  0.00     0.013 A 
HETATM   16  C9  LIG X 999      45.960 130.494  18.075  1.00  0.00     0.013 A 
ENDBRANCH   4   7
BRANCH   6  17
HETATM   17  N4  LIG X 999      46.954 130.848  13.828  1.00  0.00    -0.077 NA
HETATM   18  N5  LIG X 999      47.835 130.027  13.576  1.00  0.00    -0.165 NA
HETATM   19  N6  LIG X 999      48.717 129.207  13.323  1.00  0.00     0.068 N 
ENDBRANCH   6  17
ENDBRANCH   1   4
TORSDOF 3
