REMARK VINA RESULT:      -4.8      8.720     10.562
REMARK  5 active torsions:
REMARK  status: ('A' for Active; 'I' for Inactive)
REMARK    1  A    between atoms: O1_2  and  C1_3 
REMARK    2  A    between atoms: C1_3  and  C13_17 
REMARK    3  A    between atoms: N1_4  and  C2_5 
REMARK    4  A    between atoms: C3_6  and  O2_7 
REMARK    5  A    between atoms: C13_17  and  C15_19 
ROOT
HETATM    1  C2  LIG X 999      51.383 136.560  22.966  1.00  0.00     0.103 A 
HETATM    2  C3  LIG X 999      52.623 137.170  23.253  1.00  0.00     0.097 A 
HETATM    3  C5  LIG X 999      53.619 136.437  23.923  1.00  0.00     0.040 A 
HETATM    4  C6  LIG X 999      53.381 135.125  24.333  1.00  0.00     0.015 A 
HETATM    5  C7  LIG X 999      52.142 134.523  24.090  1.00  0.00    -0.024 A 
HETATM    6  C8  LIG X 999      51.899 133.208  24.520  1.00  0.00     0.012 A 
HETATM    7  C9  LIG X 999      50.662 132.606  24.278  1.00  0.00     0.001 A 
HETATM    8  C10 LIG X 999      49.660 133.308  23.606  1.00  0.00     0.001 A 
HETATM    9  C11 LIG X 999      49.887 134.616  23.171  1.00  0.00     0.014 A 
HETATM   10  C12 LIG X 999      51.128 135.242  23.408  1.00  0.00     0.006 A 
ENDROOT
BRANCH   1  11
HETATM   11  N1  LIG X 999      50.351 137.295  22.289  1.00  0.00    -0.225 NA
HETATM   12  C1  LIG X 999      50.153 137.284  21.003  1.00  0.00     0.142 C 
BRANCH  12  13
HETATM   13  O1  LIG X 999      50.928 136.468  20.177  1.00  0.00    -0.348 OA
HETATM   14  H1  LIG X 999      50.557 135.614  19.777  1.00  0.00     0.219 HD
ENDBRANCH  12  13
BRANCH  12  15
HETATM   15  C13 LIG X 999      49.058 138.138  20.411  1.00  0.00     0.058 C 
HETATM   16  C14 LIG X 999      49.407 139.624  20.576  1.00  0.00     0.018 C 
BRANCH  15  17
HETATM   17  C15 LIG X 999      48.831 137.751  18.933  1.00  0.00     0.008 C 
HETATM   18  C16 LIG X 999      47.833 138.670  18.227  1.00  0.00     0.006 C 
ENDBRANCH  15  17
ENDBRANCH  12  15
ENDBRANCH   1  11
BRANCH   2  19
HETATM   19  O2  LIG X 999      52.820 138.510  22.882  1.00  0.00    -0.354 OA
HETATM   20  C4  LIG X 999      52.717 139.621  23.766  1.00  0.00     0.210 C 
ENDBRANCH   2  19
TORSDOF 5
