REMARK VINA RESULT:      -6.6      2.285      6.249
REMARK  1 active torsions:
REMARK  status: ('A' for Active; 'I' for Inactive)
REMARK    1  A    between atoms: C8_9  and  N2_10 
ROOT
HETATM    1  C1  LIG X 999      43.817 131.949  24.259  1.00  0.00     0.283 C 
HETATM    2  N1  LIG X 999      43.265 131.106  23.178  1.00  0.00    -0.005 N 
HETATM    3  C2  LIG X 999      42.209 130.215  23.703  1.00  0.00     0.283 C 
HETATM    4  C3  LIG X 999      42.757 131.943  22.042  1.00  0.00     0.286 A 
HETATM    5  C4  LIG X 999      43.581 131.562  20.851  1.00  0.00    -0.015 A 
HETATM    6  C5  LIG X 999      43.496 132.059  19.550  1.00  0.00     0.022 A 
HETATM    7  C6  LIG X 999      44.380 131.552  18.575  1.00  0.00    -0.023 A 
HETATM    8  C7  LIG X 999      44.330 132.023  17.254  1.00  0.00     0.041 A 
HETATM    9  C8  LIG X 999      45.212 131.516  16.288  1.00  0.00     0.026 A 
HETATM   10  C9  LIG X 999      46.147 130.534  16.645  1.00  0.00     0.030 A 
HETATM   11  C10 LIG X 999      46.208 130.055  17.956  1.00  0.00     0.014 A 
HETATM   12  C11 LIG X 999      45.334 130.553  18.930  1.00  0.00    -0.025 A 
HETATM   13  C12 LIG X 999      45.389 130.076  20.255  1.00  0.00     0.030 A 
HETATM   14  C13 LIG X 999      44.495 130.607  21.183  1.00  0.00     0.049 A 
HETATM   15  C14 LIG X 999      44.320 130.319  22.581  1.00  0.00     0.351 A 
HETATM   16  O1  LIG X 999      45.009 129.476  23.218  1.00  0.00    -0.259 OA
ENDROOT
BRANCH   9  17
HETATM   17  N2  LIG X 999      45.157 131.999  14.944  1.00  0.00    -0.399 N 
HETATM   18  H11 LIG X 999      44.316 131.829  14.348  1.00  0.00     0.156 HD
HETATM   19  H12 LIG X 999      45.957 132.531  14.533  1.00  0.00     0.156 HD
ENDBRANCH   9  17
TORSDOF 1
