REMARK VINA RESULT:      -5.2      5.324      7.103
REMARK  4 active torsions:
REMARK  status: ('A' for Active; 'I' for Inactive)
REMARK    1  A    between atoms: C1_1  and  C2_6 
REMARK    2  A    between atoms: N1_2  and  N2_3 
REMARK    3  A    between atoms: C2_6  and  C3_8 
REMARK    4  A    between atoms: C11_16  and  N4_17 
ROOT
HETATM    1  N4  LIG X 999      43.284 125.315  22.547  1.00  0.00    -0.105 NA
HETATM    2  N5  LIG X 999      43.900 124.263  22.372  1.00  0.00    -0.167 NA
HETATM    3  N6  LIG X 999      44.514 123.212  22.196  1.00  0.00     0.068 N 
ENDROOT
BRANCH   1   4
HETATM    4  C11 LIG X 999      42.872 125.739  23.883  1.00  0.00     0.179 C 
HETATM    5  C10 LIG X 999      41.360 125.800  23.929  1.00  0.00    -0.024 A 
HETATM    6  C5  LIG X 999      40.659 127.028  23.831  1.00  0.00    -0.049 A 
HETATM    7  C9  LIG X 999      40.635 124.597  23.977  1.00  0.00     0.010 A 
HETATM    8  C4  LIG X 999      41.378 128.357  23.855  1.00  0.00     0.051 C 
HETATM    9  C6  LIG X 999      39.255 127.023  23.826  1.00  0.00     0.007 A 
HETATM   10  C3  LIG X 999      42.860 128.235  23.464  1.00  0.00     0.068 C 
HETATM   11  C12 LIG X 999      43.516 127.088  24.249  1.00  0.00     0.048 C 
HETATM   12  C7  LIG X 999      38.550 125.819  23.881  1.00  0.00     0.001 A 
HETATM   13  C8  LIG X 999      39.239 124.608  23.956  1.00  0.00     0.001 A 
BRANCH  10  14
HETATM   14  C2  LIG X 999      43.576 129.540  23.715  1.00  0.00     0.172 C 
HETATM   15  O1  LIG X 999      44.610 129.561  24.437  1.00  0.00    -0.291 OA
BRANCH  14  16
HETATM   16  C1  LIG X 999      43.056 130.795  23.152  1.00  0.00     0.190 C 
HETATM   17  N1  LIG X 999      43.032 130.977  21.869  1.00  0.00    -0.165 NA
BRANCH  17  18
HETATM   18  N2  LIG X 999      42.544 132.163  21.301  1.00  0.00    -0.177 N 
HETATM   19  H2  LIG X 999      42.171 132.934  21.901  1.00  0.00     0.214 HD
HETATM   20  N3  LIG X 999      42.554 132.307  20.040  1.00  0.00    -0.031 N 
ENDBRANCH  17  18
ENDBRANCH  14  16
ENDBRANCH  10  14
ENDBRANCH   1   4
TORSDOF 4
