REMARK VINA RESULT:      -4.7      3.473      7.009
REMARK  6 active torsions:
REMARK  status: ('A' for Active; 'I' for Inactive)
REMARK    1  A    between atoms: C8_8  and  O1_9 
REMARK    2  A    between atoms: O1_9  and  C9_10 
REMARK    3  A    between atoms: C9_10  and  C10_11 
REMARK    4  A    between atoms: C10_11  and  C11_12 
REMARK    5  A    between atoms: C11_12  and  N1_13 
REMARK    6  A    between atoms: C13_18  and  N4_19 
ROOT
HETATM    1  N1  LIG X 999      41.835 128.507  23.552  1.00  0.00    -0.116 NA
HETATM    2  N2  LIG X 999      40.746 127.985  23.792  1.00  0.00    -0.168 NA
HETATM    3  N3  LIG X 999      39.659 127.463  24.031  1.00  0.00     0.068 N 
ENDROOT
BRANCH   1   4
HETATM    4  C11 LIG X 999      42.422 129.479  24.469  1.00  0.00     0.191 C 
BRANCH   4   5
HETATM    5  C10 LIG X 999      42.104 130.907  24.012  1.00  0.00     0.051 C 
BRANCH   5   6
HETATM    6  C9  LIG X 999      43.350 131.664  23.547  1.00  0.00     0.170 C 
BRANCH   6   7
HETATM    7  O1  LIG X 999      43.113 132.232  22.275  1.00  0.00    -0.384 OA
BRANCH   7   8
HETATM    8  C8  LIG X 999      43.644 131.414  21.246  1.00  0.00     0.146 C 
HETATM    9  C7  LIG X 999      43.302 132.052  19.891  1.00  0.00     0.072 C 
HETATM   10  C5  LIG X 999      44.095 131.481  18.738  1.00  0.00    -0.047 A 
HETATM   11  C4  LIG X 999      45.305 130.773  18.941  1.00  0.00    -0.023 A 
HETATM   12  C6  LIG X 999      43.679 131.776  17.429  1.00  0.00     0.008 A 
HETATM   13  C3  LIG X 999      46.056 130.363  17.826  1.00  0.00     0.010 A 
HETATM   14  C13 LIG X 999      45.768 130.372  20.328  1.00  0.00     0.199 C 
HETATM   15  C2  LIG X 999      45.623 130.653  16.531  1.00  0.00     0.001 A 
HETATM   16  C1  LIG X 999      44.434 131.356  16.333  1.00  0.00     0.001 A 
HETATM   17  C12 LIG X 999      45.172 131.281  21.419  1.00  0.00     0.143 C 
HETATM   18 CL1  LIG X 999      45.979 132.883  21.414  1.00  0.00    -0.120 Cl
BRANCH  14  19
HETATM   19  N4  LIG X 999      45.388 128.987  20.600  1.00  0.00    -0.104 NA
HETATM   20  N5  LIG X 999      45.272 128.568  21.752  1.00  0.00    -0.167 NA
HETATM   21  N6  LIG X 999      45.157 128.148  22.903  1.00  0.00     0.068 N 
ENDBRANCH  14  19
ENDBRANCH   7   8
ENDBRANCH   6   7
ENDBRANCH   5   6
ENDBRANCH   4   5
ENDBRANCH   1   4
TORSDOF 6
