REMARK VINA RESULT:      -3.6      2.147      6.256
REMARK  5 active torsions:
REMARK  status: ('A' for Active; 'I' for Inactive)
REMARK    1  A    between atoms: C3_3  and  C4_4 
REMARK    2  A    between atoms: C4_4  and  S1_5 
REMARK    3  A    between atoms: S1_5  and  C5_6 
REMARK    4  A    between atoms: C6_7  and  N1_8 
REMARK    5  A    between atoms: C10_12  and  N2_13 
ROOT
HETATM    1  C1  LIG X 999      45.513 130.970  14.127  1.00  0.00     0.112 C 
HETATM    2  C2  LIG X 999      44.896 131.180  15.436  1.00  0.00    -0.110 C 
HETATM    3  C3  LIG X 999      44.395 131.354  16.519  1.00  0.00    -0.097 C 
ENDROOT
BRANCH   3   4
HETATM    4  C4  LIG X 999      43.796 131.567  17.837  1.00  0.00     0.173 C 
BRANCH   4   5
HETATM    5  S1  LIG X 999      45.090 131.667  19.120  1.00  0.00    -0.115 SA
BRANCH   5   6
HETATM    6  C5  LIG X 999      43.955 131.435  20.514  1.00  0.00     0.038 A 
HETATM    7  C6  LIG X 999      42.896 132.351  20.709  1.00  0.00     0.043 A 
HETATM    8  C7  LIG X 999      42.030 132.187  21.792  1.00  0.00     0.031 A 
HETATM    9  C8  LIG X 999      42.188 131.132  22.686  1.00  0.00     0.017 A 
HETATM   10  C9  LIG X 999      43.227 130.199  22.525  1.00  0.00     0.002 A 
HETATM   11  C10 LIG X 999      43.403 129.112  23.434  1.00  0.00     0.045 A 
HETATM   12  C14 LIG X 999      44.110 130.339  21.405  1.00  0.00    -0.004 A 
HETATM   13  C11 LIG X 999      44.411 128.176  23.158  1.00  0.00     0.003 A 
HETATM   14  C12 LIG X 999      45.239 128.311  22.089  1.00  0.00    -0.021 A 
HETATM   15  C18 LIG X 999      44.800 126.981  23.949  1.00  0.00     0.278 C 
HETATM   16  C13 LIG X 999      45.126 129.377  21.206  1.00  0.00     0.023 A 
HETATM   17  C15 LIG X 999      46.251 127.234  22.063  1.00  0.00     0.276 C 
HETATM   18  N3  LIG X 999      45.860 126.287  23.152  1.00  0.00    -0.067 N 
HETATM   19  C16 LIG X 999      45.321 125.037  22.566  1.00  0.00     0.272 C 
HETATM   20  C17 LIG X 999      47.026 125.957  24.004  1.00  0.00     0.272 C 
BRANCH   7  21
HETATM   21  N1  LIG X 999      42.668 133.445  19.808  1.00  0.00    -0.398 N 
HETATM   22  H6  LIG X 999      43.182 134.349  19.882  1.00  0.00     0.156 HD
HETATM   23  H7  LIG X 999      41.980 133.354  19.029  1.00  0.00     0.156 HD
ENDBRANCH   7  21
BRANCH  11  24
HETATM   24  N2  LIG X 999      42.611 128.962  24.624  1.00  0.00    -0.398 N 
HETATM   25  H10 LIG X 999      43.063 128.867  25.559  1.00  0.00     0.156 HD
HETATM   26  H11 LIG X 999      41.575 129.066  24.628  1.00  0.00     0.156 HD
ENDBRANCH  11  24
ENDBRANCH   5   6
ENDBRANCH   4   5
ENDBRANCH   3   4
TORSDOF 5
