REMARK VINA RESULT:      -3.9      9.550     11.773
REMARK  2 active torsions:
REMARK  status: ('A' for Active; 'I' for Inactive)
REMARK    1  A    between atoms: C9_10  and  N2_11 
REMARK       I    between atoms: N2_11  and  C10_12 
REMARK    2  A    between atoms: C10_12  and  C11_14 
ROOT
HETATM    1  C11 LIG X 999      51.053 123.139  19.765  1.00  0.00     0.282 C 
HETATM    2 CL1  LIG X 999      50.631 123.231  18.037  1.00  0.00    -0.099 Cl
HETATM    3  C12 LIG X 999      52.129 124.092  20.057  1.00  0.00     0.089 C 
HETATM    4  N3  LIG X 999      52.978 124.844  20.287  1.00  0.00    -0.195 NA
ENDROOT
BRANCH   1   5
HETATM    5  C10 LIG X 999      49.854 123.448  20.605  1.00  0.00     0.276 C 
HETATM    6  N2  LIG X 999      48.722 122.566  20.582  1.00  0.00    -0.212 NA
HETATM    7  O1  LIG X 999      49.823 124.515  21.274  1.00  0.00    -0.268 OA
BRANCH   6   8
HETATM    8  C9  LIG X 999      47.615 122.573  21.495  1.00  0.00     0.061 A 
HETATM    9  C8  LIG X 999      47.873 122.398  22.860  1.00  0.00     0.032 A 
HETATM   10  C7  LIG X 999      46.832 122.415  23.791  1.00  0.00     0.014 A 
HETATM   11  C6  LIG X 999      45.513 122.627  23.371  1.00  0.00    -0.025 A 
HETATM   12  C5  LIG X 999      44.456 122.646  24.302  1.00  0.00     0.021 A 
HETATM   13  C14 LIG X 999      45.241 122.832  21.988  1.00  0.00    -0.023 A 
HETATM   14  C4  LIG X 999      43.161 122.875  23.839  1.00  0.00    -0.024 A 
HETATM   15  C3  LIG X 999      41.909 122.916  24.625  1.00  0.00     0.276 C 
HETATM   16  C16 LIG X 999      42.901 123.074  22.516  1.00  0.00    -0.024 A 
HETATM   17  N1  LIG X 999      40.839 123.327  23.661  1.00  0.00    -0.067 N 
HETATM   18  C1  LIG X 999      39.676 122.417  23.752  1.00  0.00     0.272 C 
HETATM   19  C2  LIG X 999      40.394 124.710  23.955  1.00  0.00     0.272 C 
HETATM   20  C17 LIG X 999      41.452 123.266  22.295  1.00  0.00     0.276 C 
HETATM   21  C15 LIG X 999      43.918 123.057  21.561  1.00  0.00     0.021 A 
HETATM   22  C13 LIG X 999      46.297 122.810  21.063  1.00  0.00     0.044 A 
ENDBRANCH   6   8
ENDBRANCH   1   5
TORSDOF 2
