REMARK VINA RESULT:      -7.1      0.000      0.000
REMARK  3 active torsions:
REMARK  status: ('A' for Active; 'I' for Inactive)
REMARK    1  A    between atoms: C3_3  and  O1_4 
REMARK    2  A    between atoms: O1_4  and  C4_5 
REMARK    3  A    between atoms: C13_14  and  C14_15 
ROOT
HETATM    1  C1  LIG X 999      46.448 131.704  14.891  1.00  0.00     0.014 C 
HETATM    2  C2  LIG X 999      45.527 131.524  15.648  1.00  0.00    -0.091 C 
HETATM    3  C3  LIG X 999      44.409 131.306  16.565  1.00  0.00     0.268 C 
ENDROOT
BRANCH   3   4
HETATM    4  O1  LIG X 999      44.626 132.062  17.753  1.00  0.00    -0.339 OA
BRANCH   4   5
HETATM    5  C4  LIG X 999      44.645 131.529  19.055  1.00  0.00     0.084 A 
HETATM    6  C5  LIG X 999      45.666 130.652  19.462  1.00  0.00     0.039 A 
HETATM    7  C6  LIG X 999      45.664 130.102  20.738  1.00  0.00     0.015 A 
HETATM    8  C7  LIG X 999      44.653 130.424  21.648  1.00  0.00    -0.025 A 
HETATM    9  C8  LIG X 999      44.674 129.867  22.937  1.00  0.00     0.012 A 
HETATM   10  C12 LIG X 999      43.616 131.319  21.272  1.00  0.00    -0.010 A 
HETATM   11  C9  LIG X 999      43.687 130.197  23.863  1.00  0.00     0.001 A 
HETATM   12  C10 LIG X 999      42.678 131.092  23.518  1.00  0.00     0.001 A 
HETATM   13  C11 LIG X 999      42.640 131.655  22.240  1.00  0.00     0.013 A 
HETATM   14  C13 LIG X 999      43.608 131.868  19.957  1.00  0.00     0.046 A 
BRANCH  14  15
HETATM   15  C14 LIG X 999      42.512 132.764  19.503  1.00  0.00     0.273 C 
HETATM   16  O2  LIG X 999      41.569 132.329  18.788  1.00  0.00    -0.301 OA
ENDBRANCH  14  15
ENDBRANCH   4   5
ENDBRANCH   3   4
TORSDOF 3
