REMARK VINA RESULT:      -7.1      1.831      3.113
REMARK  1 active torsions:
REMARK  status: ('A' for Active; 'I' for Inactive)
REMARK    1  A    between atoms: C11_13  and  O1_14 
ROOT
HETATM    1  H1  LIG X 999      43.892 131.421  14.412  1.00  0.00     0.187 HD
HETATM    2  N1  LIG X 999      43.493 131.639  15.353  1.00  0.00    -0.300 NA
HETATM    3  C1  LIG X 999      44.135 131.368  16.445  1.00  0.00     0.059 A 
HETATM    4  C2  LIG X 999      45.493 130.718  16.404  1.00  0.00     0.034 A 
HETATM    5  C3  LIG X 999      46.164 130.433  17.546  1.00  0.00     0.033 A 
HETATM    6  C4  LIG X 999      45.531 130.776  18.832  1.00  0.00     0.046 A 
HETATM    7  C5  LIG X 999      44.309 131.359  18.865  1.00  0.00     0.018 A 
HETATM    8  C6  LIG X 999      43.545 131.690  17.771  1.00  0.00     0.005 A 
HETATM    9  C7  LIG X 999      42.295 132.295  18.024  1.00  0.00     0.015 A 
HETATM   10  C8  LIG X 999      41.888 132.530  19.367  1.00  0.00     0.002 A 
HETATM   11  C9  LIG X 999      42.722 132.166  20.455  1.00  0.00     0.017 A 
HETATM   12  C10 LIG X 999      43.948 131.572  20.152  1.00  0.00     0.028 A 
HETATM   13  C11 LIG X 999      45.008 131.089  20.906  1.00  0.00     0.151 A 
HETATM   14  N2  LIG X 999      45.985 130.597  20.092  1.00  0.00    -0.336 N 
HETATM   15  H8  LIG X 999      46.894 130.173  20.382  1.00  0.00     0.168 HD
ENDROOT
BRANCH  13  16
HETATM   16  O1  LIG X 999      45.078 131.099  22.294  1.00  0.00    -0.345 OA
HETATM   17  H7  LIG X 999      44.257 131.302  22.851  1.00  0.00     0.219 HD
ENDBRANCH  13  16
TORSDOF 1
