REMARK VINA RESULT:      -6.2      2.117      3.863
REMARK  1 active torsions:
REMARK  status: ('A' for Active; 'I' for Inactive)
REMARK    1  A    between atoms: C11_13  and  O1_14 
ROOT
HETATM    1  H1  LIG X 999      42.950 132.046  23.847  1.00  0.00     0.187 HD
HETATM    2  N1  LIG X 999      43.574 131.713  23.078  1.00  0.00    -0.300 NA
HETATM    3  C1  LIG X 999      43.268 131.885  21.831  1.00  0.00     0.059 A 
HETATM    4  C2  LIG X 999      41.991 132.576  21.434  1.00  0.00     0.034 A 
HETATM    5  C3  LIG X 999      41.671 132.756  20.130  1.00  0.00     0.033 A 
HETATM    6  C4  LIG X 999      42.606 132.256  19.107  1.00  0.00     0.046 A 
HETATM    7  C5  LIG X 999      43.754 131.634  19.467  1.00  0.00     0.018 A 
HETATM    8  C6  LIG X 999      44.174 131.401  20.755  1.00  0.00     0.005 A 
HETATM    9  C7  LIG X 999      45.407 130.735  20.914  1.00  0.00     0.015 A 
HETATM   10  C8  LIG X 999      46.147 130.341  19.765  1.00  0.00     0.002 A 
HETATM   11  C9  LIG X 999      45.660 130.610  18.459  1.00  0.00     0.017 A 
HETATM   12  C10 LIG X 999      44.437 131.272  18.355  1.00  0.00     0.028 A 
HETATM   13  C11 LIG X 999      43.650 131.702  17.297  1.00  0.00     0.151 A 
HETATM   14  N2  LIG X 999      42.520 132.309  17.758  1.00  0.00    -0.336 N 
HETATM   15  H8  LIG X 999      41.750 132.728  17.191  1.00  0.00     0.168 HD
ENDROOT
BRANCH  13  16
HETATM   16  O1  LIG X 999      43.957 131.543  15.950  1.00  0.00    -0.345 OA
HETATM   17  H7  LIG X 999      43.300 131.098  15.320  1.00  0.00     0.219 HD
ENDBRANCH  13  16
TORSDOF 1
