MODEL 1
REMARK VINA RESULT:      -6.4      0.000      0.000
REMARK  3 active torsions:
REMARK  status: ('A' for Active; 'I' for Inactive)
REMARK    1  A    between atoms: C2_2  and  N1_3 
REMARK       I    between atoms: N2_8  and  C7_9 
REMARK    2  A    between atoms: C7_9  and  C8_11 
REMARK    3  A    between atoms: C9_12  and  C10_13 
ROOT
HETATM    1  C8  LIG X 999      43.572 131.732  18.784  1.00  0.00     0.001 C 
HETATM    2  C9  LIG X 999      44.313 131.642  17.838  1.00  0.00    -0.057 C 
ENDROOT
BRANCH   1   3
HETATM    3  C7  LIG X 999      42.677 131.844  19.905  1.00  0.00     0.313 C 
HETATM    4  N2  LIG X 999      43.109 131.492  21.229  1.00  0.00    -0.269 N 
HETATM    5  N1  LIG X 999      44.353 130.872  21.462  1.00  0.00    -0.226 NA
HETATM    6  C6  LIG X 999      42.504 132.107  22.396  1.00  0.00     0.153 C 
HETATM    7  C3  LIG X 999      44.781 131.394  22.773  1.00  0.00     0.119 C 
HETATM    8  C4  LIG X 999      43.546 131.954  23.497  1.00  0.00     0.016 C 
HETATM    9  C5  LIG X 999      43.068 131.032  24.625  1.00  0.00     0.013 C 
HETATM   10  O1  LIG X 999      41.512 132.284  19.714  1.00  0.00    -0.257 OA
BRANCH   5  11
HETATM   11  C2  LIG X 999      44.155 129.407  21.523  1.00  0.00     0.109 C 
HETATM   12  C1  LIG X 999      44.956 128.782  22.661  1.00  0.00     0.023 C 
ENDBRANCH   5  11
ENDBRANCH   1   3
BRANCH   2  13
HETATM   13  C10 LIG X 999      45.189 131.538  16.702  1.00  0.00     0.019 A 
HETATM   14  C11 LIG X 999      45.472 132.670  15.927  1.00  0.00     0.021 A 
HETATM   15  C12 LIG X 999      46.320 132.574  14.821  1.00  0.00     0.013 A 
HETATM   16  C13 LIG X 999      46.894 131.340  14.478  1.00  0.00    -0.026 A 
HETATM   17  C14 LIG X 999      47.748 131.231  13.369  1.00  0.00     0.012 A 
HETATM   18  C18 LIG X 999      46.610 130.194  15.259  1.00  0.00    -0.025 A 
HETATM   19  C15 LIG X 999      48.313 129.997  13.038  1.00  0.00     0.001 A 
HETATM   20  C16 LIG X 999      48.032 128.865  13.809  1.00  0.00     0.001 A 
HETATM   21  C17 LIG X 999      47.184 128.960  14.916  1.00  0.00     0.012 A 
HETATM   22  C19 LIG X 999      45.757 130.301  16.368  1.00  0.00     0.032 A 
ENDBRANCH   2  13
TORSDOF 3
ENDMDL
MODEL 2
REMARK VINA RESULT:      -5.5      1.774      2.358
REMARK  3 active torsions:
REMARK  status: ('A' for Active; 'I' for Inactive)
REMARK    1  A    between atoms: C2_2  and  N1_3 
REMARK       I    between atoms: N2_8  and  C7_9 
REMARK    2  A    between atoms: C7_9  and  C8_11 
REMARK    3  A    between atoms: C9_12  and  C10_13 
ROOT
HETATM    1  C8  LIG X 999      45.490 129.877  19.712  1.00  0.00     0.001 C 
HETATM    2  C9  LIG X 999      45.722 130.157  18.563  1.00  0.00    -0.057 C 
ENDROOT
BRANCH   1   3
HETATM    3  C7  LIG X 999      45.213 129.557  21.087  1.00  0.00     0.313 C 
HETATM    4  N2  LIG X 999      44.446 130.450  21.910  1.00  0.00    -0.269 N 
HETATM    5  N1  LIG X 999      44.079 131.736  21.466  1.00  0.00    -0.226 NA
HETATM    6  C6  LIG X 999      43.676 129.948  23.034  1.00  0.00     0.153 C 
HETATM    7  C3  LIG X 999      42.765 131.976  22.091  1.00  0.00     0.119 C 
HETATM    8  C4  LIG X 999      42.606 131.005  23.272  1.00  0.00     0.016 C 
HETATM    9  C5  LIG X 999      42.774 131.707  24.625  1.00  0.00     0.013 C 
HETATM   10  O1  LIG X 999      45.631 128.463  21.555  1.00  0.00    -0.257 OA
BRANCH   5  11
HETATM   11  C2  LIG X 999      45.076 132.714  21.954  1.00  0.00     0.109 C 
HETATM   12  C1  LIG X 999      46.297 132.770  21.042  1.00  0.00     0.023 C 
ENDBRANCH   5  11
ENDBRANCH   1   3
BRANCH   2  13
HETATM   13  C10 LIG X 999      45.998 130.502  17.194  1.00  0.00     0.019 A 
HETATM   14  C11 LIG X 999      45.377 131.614  16.612  1.00  0.00     0.021 A 
HETATM   15  C12 LIG X 999      45.640 131.953  15.282  1.00  0.00     0.013 A 
HETATM   16  C13 LIG X 999      46.528 131.179  14.520  1.00  0.00    -0.026 A 
HETATM   17  C14 LIG X 999      46.800 131.509  13.183  1.00  0.00     0.012 A 
HETATM   18  C18 LIG X 999      47.157 130.053  15.106  1.00  0.00    -0.025 A 
HETATM   19  C15 LIG X 999      47.686 130.729  12.435  1.00  0.00     0.001 A 
HETATM   20  C16 LIG X 999      48.306 129.618  13.012  1.00  0.00     0.001 A 
HETATM   21  C17 LIG X 999      48.045 129.278  14.343  1.00  0.00     0.012 A 
HETATM   22  C19 LIG X 999      46.886 129.722  16.442  1.00  0.00     0.032 A 
ENDBRANCH   2  13
TORSDOF 3
ENDMDL
MODEL 3
REMARK VINA RESULT:      -5.3      7.458      8.390
REMARK  3 active torsions:
REMARK  status: ('A' for Active; 'I' for Inactive)
REMARK    1  A    between atoms: C2_2  and  N1_3 
REMARK       I    between atoms: N2_8  and  C7_9 
REMARK    2  A    between atoms: C7_9  and  C8_11 
REMARK    3  A    between atoms: C9_12  and  C10_13 
ROOT
HETATM    1  C8  LIG X 999      45.361 126.020  22.781  1.00  0.00     0.001 C 
HETATM    2  C9  LIG X 999      46.469 125.634  22.504  1.00  0.00    -0.057 C 
ENDROOT
BRANCH   1   3
HETATM    3  C7  LIG X 999      44.041 126.491  23.103  1.00  0.00     0.313 C 
HETATM    4  N2  LIG X 999      42.947 125.571  23.249  1.00  0.00    -0.269 N 
HETATM    5  N1  LIG X 999      43.079 124.205  22.925  1.00  0.00    -0.226 NA
HETATM    6  C6  LIG X 999      41.815 125.891  24.100  1.00  0.00     0.153 C 
HETATM    7  C3  LIG X 999      42.200 123.516  23.888  1.00  0.00     0.119 C 
HETATM    8  C4  LIG X 999      41.205 124.542  24.456  1.00  0.00     0.016 C 
HETATM    9  C5  LIG X 999      39.799 124.368  23.871  1.00  0.00     0.013 C 
HETATM   10  O1  LIG X 999      43.859 127.726  23.282  1.00  0.00    -0.257 OA
BRANCH   5  11
HETATM   11  C2  LIG X 999      42.604 123.993  21.540  1.00  0.00     0.109 C 
HETATM   12  C1  LIG X 999      42.709 122.526  21.133  1.00  0.00     0.023 C 
ENDBRANCH   5  11
ENDBRANCH   1   3
BRANCH   2  13
HETATM   13  C10 LIG X 999      47.791 125.182  22.165  1.00  0.00     0.019 A 
HETATM   14  C11 LIG X 999      48.905 125.706  22.832  1.00  0.00     0.021 A 
HETATM   15  C12 LIG X 999      50.192 125.271  22.505  1.00  0.00     0.013 A 
HETATM   16  C13 LIG X 999      50.377 124.306  21.503  1.00  0.00    -0.026 A 
HETATM   17  C14 LIG X 999      51.665 123.862  21.166  1.00  0.00     0.012 A 
HETATM   18  C18 LIG X 999      49.252 123.774  20.826  1.00  0.00    -0.025 A 
HETATM   19  C15 LIG X 999      51.835 122.900  20.166  1.00  0.00     0.001 A 
HETATM   20  C16 LIG X 999      50.726 122.375  19.498  1.00  0.00     0.001 A 
HETATM   21  C17 LIG X 999      49.437 122.809  19.824  1.00  0.00     0.012 A 
HETATM   22  C19 LIG X 999      47.964 124.217  21.163  1.00  0.00     0.032 A 
ENDBRANCH   2  13
TORSDOF 3
ENDMDL
MODEL 4
REMARK VINA RESULT:      -5.1      6.601      9.652
REMARK  3 active torsions:
REMARK  status: ('A' for Active; 'I' for Inactive)
REMARK    1  A    between atoms: C2_2  and  N1_3 
REMARK       I    between atoms: N2_8  and  C7_9 
REMARK    2  A    between atoms: C7_9  and  C8_11 
REMARK    3  A    between atoms: C9_12  and  C10_13 
ROOT
HETATM    1  C8  LIG X 999      46.956 125.204  22.014  1.00  0.00     0.001 C 
HETATM    2  C9  LIG X 999      46.134 126.004  22.381  1.00  0.00    -0.057 C 
ENDROOT
BRANCH   1   3
HETATM    3  C7  LIG X 999      47.947 124.259  21.572  1.00  0.00     0.313 C 
HETATM    4  N2  LIG X 999      49.149 124.046  22.329  1.00  0.00    -0.269 N 
HETATM    5  N1  LIG X 999      49.486 124.860  23.429  1.00  0.00    -0.226 NA
HETATM    6  C6  LIG X 999      49.849 122.775  22.272  1.00  0.00     0.153 C 
HETATM    7  C3  LIG X 999      50.188 123.950  24.354  1.00  0.00     0.119 C 
HETATM    8  C4  LIG X 999      50.659 122.722  23.560  1.00  0.00     0.016 C 
HETATM    9  C5  LIG X 999      52.169 122.747  23.298  1.00  0.00     0.013 C 
HETATM   10  O1  LIG X 999      47.733 123.596  20.522  1.00  0.00    -0.257 OA
BRANCH   5  11
HETATM   11  C2  LIG X 999      50.391 125.937  22.970  1.00  0.00     0.109 C 
HETATM   12  C1  LIG X 999      50.877 126.793  24.136  1.00  0.00     0.023 C 
ENDBRANCH   5  11
ENDBRANCH   1   3
BRANCH   2  13
HETATM   13  C10 LIG X 999      45.159 126.968  22.818  1.00  0.00     0.019 A 
HETATM   14  C11 LIG X 999      44.146 126.587  23.706  1.00  0.00     0.021 A 
HETATM   15  C12 LIG X 999      43.195 127.520  24.132  1.00  0.00     0.013 A 
HETATM   16  C13 LIG X 999      43.250 128.844  23.671  1.00  0.00    -0.026 A 
HETATM   17  C14 LIG X 999      42.301 129.788  24.091  1.00  0.00     0.012 A 
HETATM   18  C18 LIG X 999      44.274 129.230  22.772  1.00  0.00    -0.025 A 
HETATM   19  C15 LIG X 999      42.367 131.104  23.624  1.00  0.00     0.001 A 
HETATM   20  C16 LIG X 999      43.377 131.486  22.738  1.00  0.00     0.001 A 
HETATM   21  C17 LIG X 999      44.329 130.555  22.311  1.00  0.00     0.012 A 
HETATM   22  C19 LIG X 999      45.224 128.287  22.351  1.00  0.00     0.032 A 
ENDBRANCH   2  13
TORSDOF 3
ENDMDL
MODEL 5
REMARK VINA RESULT:      -5.1      2.813      4.343
REMARK  3 active torsions:
REMARK  status: ('A' for Active; 'I' for Inactive)
REMARK    1  A    between atoms: C2_2  and  N1_3 
REMARK       I    between atoms: N2_8  and  C7_9 
REMARK    2  A    between atoms: C7_9  and  C8_11 
REMARK    3  A    between atoms: C9_12  and  C10_13 
ROOT
HETATM    1  C8  LIG X 999      45.131 129.289  21.609  1.00  0.00     0.001 C 
HETATM    2  C9  LIG X 999      45.210 129.802  20.521  1.00  0.00    -0.057 C 
ENDROOT
BRANCH   1   3
HETATM    3  C7  LIG X 999      45.035 128.663  22.901  1.00  0.00     0.313 C 
HETATM    4  N2  LIG X 999      45.420 127.292  23.084  1.00  0.00    -0.269 N 
HETATM    5  N1  LIG X 999      45.743 126.460  21.993  1.00  0.00    -0.226 NA
HETATM    6  C6  LIG X 999      45.887 126.816  24.374  1.00  0.00     0.153 C 
HETATM    7  C3  LIG X 999      46.783 125.556  22.519  1.00  0.00     0.119 C 
HETATM    8  C4  LIG X 999      46.709 125.575  24.054  1.00  0.00     0.016 C 
HETATM    9  C5  LIG X 999      46.076 124.298  24.619  1.00  0.00     0.013 C 
HETATM   10  O1  LIG X 999      44.634 129.346  23.881  1.00  0.00    -0.257 OA
BRANCH   5  11
HETATM   11  C2  LIG X 999      44.539 125.697  21.598  1.00  0.00     0.109 C 
HETATM   12  C1  LIG X 999      43.456 125.768  22.670  1.00  0.00     0.023 C 
ENDBRANCH   5  11
ENDBRANCH   1   3
BRANCH   2  13
HETATM   13  C10 LIG X 999      45.305 130.404  19.218  1.00  0.00     0.019 A 
HETATM   14  C11 LIG X 999      44.716 131.651  18.978  1.00  0.00     0.021 A 
HETATM   15  C12 LIG X 999      44.803 132.240  17.713  1.00  0.00     0.013 A 
HETATM   16  C13 LIG X 999      45.481 131.583  16.675  1.00  0.00    -0.026 A 
HETATM   17  C14 LIG X 999      45.575 132.165  15.401  1.00  0.00     0.012 A 
HETATM   18  C18 LIG X 999      46.077 130.322  16.916  1.00  0.00    -0.025 A 
HETATM   19  C15 LIG X 999      46.253 131.500  14.375  1.00  0.00     0.001 A 
HETATM   20  C16 LIG X 999      46.842 130.255  14.612  1.00  0.00     0.001 A 
HETATM   21  C17 LIG X 999      46.756 129.665  15.877  1.00  0.00     0.012 A 
HETATM   22  C19 LIG X 999      45.985 129.739  18.189  1.00  0.00     0.032 A 
ENDBRANCH   2  13
TORSDOF 3
ENDMDL
MODEL 6
REMARK VINA RESULT:      -5.0      3.312      5.039
REMARK  3 active torsions:
REMARK  status: ('A' for Active; 'I' for Inactive)
REMARK    1  A    between atoms: C2_2  and  N1_3 
REMARK       I    between atoms: N2_8  and  C7_9 
REMARK    2  A    between atoms: C7_9  and  C8_11 
REMARK    3  A    between atoms: C9_12  and  C10_13 
ROOT
HETATM    1  C8  LIG X 999      45.009 128.813  22.298  1.00  0.00     0.001 C 
HETATM    2  C9  LIG X 999      45.062 129.433  21.266  1.00  0.00    -0.057 C 
ENDROOT
BRANCH   1   3
HETATM    3  C7  LIG X 999      44.953 128.064  23.525  1.00  0.00     0.313 C 
HETATM    4  N2  LIG X 999      44.912 126.628  23.508  1.00  0.00    -0.269 N 
HETATM    5  N1  LIG X 999      44.757 125.905  22.308  1.00  0.00    -0.226 NA
HETATM    6  C6  LIG X 999      45.428 125.856  24.625  1.00  0.00     0.153 C 
HETATM    7  C3  LIG X 999      45.535 124.670  22.524  1.00  0.00     0.119 C 
HETATM    8  C4  LIG X 999      45.746 124.489  24.035  1.00  0.00     0.016 C 
HETATM    9  C5  LIG X 999      44.854 123.385  24.616  1.00  0.00     0.013 C 
HETATM   10  O1  LIG X 999      44.969 128.685  24.622  1.00  0.00    -0.257 OA
BRANCH   5  11
HETATM   11  C2  LIG X 999      43.324 125.592  22.119  1.00  0.00     0.109 C 
HETATM   12  C1  LIG X 999      43.126 124.175  21.588  1.00  0.00     0.023 C 
ENDBRANCH   5  11
ENDBRANCH   1   3
BRANCH   2  13
HETATM   13  C10 LIG X 999      45.133 130.164  20.030  1.00  0.00     0.019 A 
HETATM   14  C11 LIG X 999      44.561 131.439  19.935  1.00  0.00     0.021 A 
HETATM   15  C12 LIG X 999      44.625 132.153  18.735  1.00  0.00     0.013 A 
HETATM   16  C13 LIG X 999      45.262 131.596  17.616  1.00  0.00    -0.026 A 
HETATM   17  C14 LIG X 999      45.332 132.304  16.406  1.00  0.00     0.012 A 
HETATM   18  C18 LIG X 999      45.840 130.307  17.709  1.00  0.00    -0.025 A 
HETATM   19  C15 LIG X 999      45.969 131.737  15.299  1.00  0.00     0.001 A 
HETATM   20  C16 LIG X 999      46.540 130.465  15.390  1.00  0.00     0.001 A 
HETATM   21  C17 LIG X 999      46.478 129.750  16.589  1.00  0.00     0.012 A 
HETATM   22  C19 LIG X 999      45.772 129.598  18.918  1.00  0.00     0.032 A 
ENDBRANCH   2  13
TORSDOF 3
ENDMDL
MODEL 7
REMARK VINA RESULT:      -3.9      3.731      7.280
REMARK  3 active torsions:
REMARK  status: ('A' for Active; 'I' for Inactive)
REMARK    1  A    between atoms: C2_2  and  N1_3 
REMARK       I    between atoms: N2_8  and  C7_9 
REMARK    2  A    between atoms: C7_9  and  C8_11 
REMARK    3  A    between atoms: C9_12  and  C10_13 
ROOT
HETATM    1  C8  LIG X 999      44.405 128.982  22.934  1.00  0.00     0.001 C 
HETATM    2  C9  LIG X 999      44.822 127.863  22.770  1.00  0.00    -0.057 C 
ENDROOT
BRANCH   1   3
HETATM    3  C7  LIG X 999      43.895 130.312  23.135  1.00  0.00     0.313 C 
HETATM    4  N2  LIG X 999      43.496 131.123  22.018  1.00  0.00    -0.269 N 
HETATM    5  N1  LIG X 999      43.738 130.723  20.688  1.00  0.00    -0.226 NA
HETATM    6  C6  LIG X 999      42.487 132.156  22.172  1.00  0.00     0.153 C 
HETATM    7  C3  LIG X 999      42.590 131.259  19.932  1.00  0.00     0.119 C 
HETATM    8  C4  LIG X 999      41.935 132.369  20.769  1.00  0.00     0.016 C 
HETATM    9  C5  LIG X 999      42.253 133.767  20.226  1.00  0.00     0.013 C 
HETATM   10  O1  LIG X 999      43.777 130.750  24.311  1.00  0.00    -0.257 OA
BRANCH   5  11
HETATM   11  C2  LIG X 999      45.001 131.339  20.225  1.00  0.00     0.109 C 
HETATM   12  C1  LIG X 999      45.083 131.365  18.701  1.00  0.00     0.023 C 
ENDBRANCH   5  11
ENDBRANCH   1   3
BRANCH   2  13
HETATM   13  C10 LIG X 999      45.310 126.524  22.579  1.00  0.00     0.019 A 
HETATM   14  C11 LIG X 999      44.426 125.440  22.642  1.00  0.00     0.021 A 
HETATM   15  C12 LIG X 999      44.896 124.136  22.459  1.00  0.00     0.013 A 
HETATM   16  C13 LIG X 999      46.257 123.905  22.211  1.00  0.00    -0.026 A 
HETATM   17  C14 LIG X 999      46.740 122.601  22.026  1.00  0.00     0.012 A 
HETATM   18  C18 LIG X 999      47.153 125.000  22.147  1.00  0.00    -0.025 A 
HETATM   19  C15 LIG X 999      48.099 122.384  21.780  1.00  0.00     0.001 A 
HETATM   20  C16 LIG X 999      48.983 123.464  21.717  1.00  0.00     0.001 A 
HETATM   21  C17 LIG X 999      48.515 124.769  21.899  1.00  0.00     0.012 A 
HETATM   22  C19 LIG X 999      46.672 126.305  22.332  1.00  0.00     0.032 A 
ENDBRANCH   2  13
TORSDOF 3
ENDMDL
MODEL 8
REMARK VINA RESULT:      -3.4      1.701      2.408
REMARK  3 active torsions:
REMARK  status: ('A' for Active; 'I' for Inactive)
REMARK    1  A    between atoms: C2_2  and  N1_3 
REMARK       I    between atoms: N2_8  and  C7_9 
REMARK    2  A    between atoms: C7_9  and  C8_11 
REMARK    3  A    between atoms: C9_12  and  C10_13 
ROOT
HETATM    1  C8  LIG X 999      45.422 131.609  20.011  1.00  0.00     0.001 C 
HETATM    2  C9  LIG X 999      45.521 131.500  18.815  1.00  0.00    -0.057 C 
ENDROOT
BRANCH   1   3
HETATM    3  C7  LIG X 999      45.299 131.725  21.440  1.00  0.00     0.313 C 
HETATM    4  N2  LIG X 999      44.089 131.336  22.108  1.00  0.00    -0.269 N 
HETATM    5  N1  LIG X 999      42.925 130.988  21.393  1.00  0.00    -0.226 NA
HETATM    6  C6  LIG X 999      44.112 130.891  23.490  1.00  0.00     0.153 C 
HETATM    7  C3  LIG X 999      42.282 129.954  22.224  1.00  0.00     0.119 C 
HETATM    8  C4  LIG X 999      42.849 130.056  23.649  1.00  0.00     0.016 C 
HETATM    9  C5  LIG X 999      41.851 130.693  24.624  1.00  0.00     0.013 C 
HETATM   10  O1  LIG X 999      46.283 132.148  22.105  1.00  0.00    -0.257 OA
BRANCH   5  11
HETATM   11  C2  LIG X 999      42.057 132.181  21.279  1.00  0.00     0.109 C 
HETATM   12  C1  LIG X 999      41.950 132.658  19.833  1.00  0.00     0.023 C 
ENDBRANCH   5  11
ENDBRANCH   1   3
BRANCH   2  13
HETATM   13  C10 LIG X 999      45.638 131.360  17.389  1.00  0.00     0.019 A 
HETATM   14  C11 LIG X 999      44.682 131.940  16.546  1.00  0.00     0.021 A 
HETATM   15  C12 LIG X 999      44.789 131.804  15.159  1.00  0.00     0.013 A 
HETATM   16  C13 LIG X 999      45.857 131.084  14.602  1.00  0.00    -0.026 A 
HETATM   17  C14 LIG X 999      45.975 130.941  13.211  1.00  0.00     0.012 A 
HETATM   18  C18 LIG X 999      46.825 130.497  15.452  1.00  0.00    -0.025 A 
HETATM   19  C15 LIG X 999      47.043 130.222  12.668  1.00  0.00     0.001 A 
HETATM   20  C16 LIG X 999      47.999 129.642  13.506  1.00  0.00     0.001 A 
HETATM   21  C17 LIG X 999      47.893 129.777  14.894  1.00  0.00     0.012 A 
HETATM   22  C19 LIG X 999      46.709 130.639  16.843  1.00  0.00     0.032 A 
ENDBRANCH   2  13
TORSDOF 3
ENDMDL
