REMARK VINA RESULT:      -8.1      4.699      6.674
REMARK  3 active torsions:
REMARK  status: ('A' for Active; 'I' for Inactive)
REMARK    1  A    between atoms: O1_2  and  C1_3 
REMARK    2  A    between atoms: C1_3  and  C3_8 
REMARK    3  A    between atoms: C2_4  and  N1_5 
ROOT
HETATM    1  N1  LIG X 999      42.488 132.174  21.118  1.00  0.00    -0.082 NA
HETATM    2  N2  LIG X 999      42.638 132.026  22.330  1.00  0.00    -0.163 NA
HETATM    3  N3  LIG X 999      42.788 131.879  23.542  1.00  0.00     0.068 N 
ENDROOT
BRANCH   1   4
HETATM    4  C2  LIG X 999      43.464 131.683  20.199  1.00  0.00     0.193 C 
HETATM    5  C1  LIG X 999      43.299 131.824  18.873  1.00  0.00     0.096 C 
BRANCH   5   6
HETATM    6  O1  LIG X 999      42.177 132.485  18.364  1.00  0.00    -0.358 OA
HETATM    7  H1  LIG X 999      41.279 132.491  18.831  1.00  0.00     0.217 HD
ENDBRANCH   5   6
BRANCH   5   8
HETATM    8  C3  LIG X 999      44.304 131.309  17.907  1.00  0.00    -0.001 A 
HETATM    9  C4  LIG X 999      45.361 130.511  18.378  1.00  0.00     0.015 A 
HETATM   10  C5  LIG X 999      46.330 130.018  17.501  1.00  0.00     0.013 A 
HETATM   11  C6  LIG X 999      46.266 130.322  16.134  1.00  0.00    -0.026 A 
HETATM   12  C7  LIG X 999      47.235 129.831  15.246  1.00  0.00     0.012 A 
HETATM   13  C11 LIG X 999      45.217 131.137  15.648  1.00  0.00    -0.025 A 
HETATM   14  C8  LIG X 999      47.165 130.149  13.887  1.00  0.00     0.001 A 
HETATM   15  C9  LIG X 999      46.131 130.956  13.406  1.00  0.00     0.001 A 
HETATM   16  C10 LIG X 999      45.159 131.450  14.281  1.00  0.00     0.012 A 
HETATM   17  C12 LIG X 999      44.247 131.628  16.536  1.00  0.00     0.026 A 
ENDBRANCH   5   8
ENDBRANCH   1   4
TORSDOF 3
