REMARK VINA RESULT:      -7.0      2.136      3.129
REMARK  3 active torsions:
REMARK  status: ('A' for Active; 'I' for Inactive)
REMARK    1  A    between atoms: C3_3  and  O1_4 
REMARK    2  A    between atoms: O1_4  and  C4_5 
REMARK    3  A    between atoms: C13_14  and  C14_15 
ROOT
HETATM    1  C1  LIG X 999      47.932 130.777  12.879  1.00  0.00     0.014 C 
HETATM    2  C2  LIG X 999      47.472 130.350  13.907  1.00  0.00    -0.091 C 
HETATM    3  C3  LIG X 999      46.912 129.829  15.155  1.00  0.00     0.268 C 
ENDROOT
BRANCH   3   4
HETATM    4  O1  LIG X 999      45.749 130.580  15.493  1.00  0.00    -0.339 OA
BRANCH   4   5
HETATM    5  C4  LIG X 999      45.312 130.842  16.804  1.00  0.00     0.084 A 
HETATM    6  C5  LIG X 999      46.108 130.504  17.913  1.00  0.00     0.039 A 
HETATM    7  C6  LIG X 999      45.658 130.733  19.208  1.00  0.00     0.015 A 
HETATM    8  C7  LIG X 999      44.410 131.322  19.431  1.00  0.00    -0.025 A 
HETATM    9  C8  LIG X 999      43.978 131.556  20.747  1.00  0.00     0.012 A 
HETATM   10  C12 LIG X 999      43.589 131.689  18.332  1.00  0.00    -0.010 A 
HETATM   11  C9  LIG X 999      42.747 132.164  20.986  1.00  0.00     0.001 A 
HETATM   12  C10 LIG X 999      41.941 132.552  19.918  1.00  0.00     0.001 A 
HETATM   13  C11 LIG X 999      42.355 132.325  18.603  1.00  0.00     0.013 A 
HETATM   14  C13 LIG X 999      44.042 131.436  17.005  1.00  0.00     0.046 A 
BRANCH  14  15
HETATM   15  C14 LIG X 999      43.192 131.752  15.827  1.00  0.00     0.273 C 
HETATM   16  O2  LIG X 999      43.665 131.735  14.659  1.00  0.00    -0.301 OA
ENDBRANCH  14  15
ENDBRANCH   4   5
ENDBRANCH   3   4
TORSDOF 3
