REMARK VINA RESULT:      -8.0      1.829      7.504
REMARK  6 active torsions:
REMARK  status: ('A' for Active; 'I' for Inactive)
REMARK    1  A    between atoms: C2_2  and  C3_3 
REMARK    2  A    between atoms: C3_3  and  O1_4 
REMARK    3  A    between atoms: O1_4  and  C4_5 
REMARK    4  A    between atoms: C4_5  and  C6_7 
REMARK    5  A    between atoms: C6_7  and  C7_8 
REMARK       I    between atoms: N1_10  and  C9_11 
REMARK    6  A    between atoms: C9_11  and  C10_13 
ROOT
HETATM    1  C7  LIG X 999      43.063 131.860  19.282  1.00  0.00     0.076 A 
HETATM    2  C8  LIG X 999      43.374 131.041  20.347  1.00  0.00     0.150 A 
HETATM    3  N1  LIG X 999      42.767 131.576  21.423  1.00  0.00    -0.213 N 
HETATM    4  C9  LIG X 999      42.809 131.102  22.779  1.00  0.00     0.277 C 
HETATM    5  O2  LIG X 999      42.622 131.918  23.721  1.00  0.00    -0.265 OA
HETATM    6  N2  LIG X 999      42.138 132.671  21.027  1.00  0.00    -0.210 N 
HETATM    7  N3  LIG X 999      42.285 132.869  19.726  1.00  0.00    -0.162 NA
HETATM    8  H20 LIG X 999      41.581 133.298  21.651  1.00  0.00     0.211 HD
ENDROOT
BRANCH   4   9
HETATM    9  C10 LIG X 999      43.065 129.678  23.097  1.00  0.00     0.035 A 
HETATM   10  C11 LIG X 999      42.068 128.908  23.719  1.00  0.00     0.018 A 
HETATM   11  C12 LIG X 999      42.293 127.561  24.017  1.00  0.00     0.013 A 
HETATM   12  C13 LIG X 999      43.515 126.960  23.688  1.00  0.00    -0.026 A 
HETATM   13  C14 LIG X 999      43.752 125.609  23.985  1.00  0.00     0.012 A 
HETATM   14  C18 LIG X 999      44.519 127.722  23.043  1.00  0.00    -0.025 A 
HETATM   15  C15 LIG X 999      44.973 125.019  23.645  1.00  0.00     0.001 A 
HETATM   16  C16 LIG X 999      45.964 125.770  23.007  1.00  0.00     0.001 A 
HETATM   17  C17 LIG X 999      45.741 127.117  22.706  1.00  0.00     0.012 A 
HETATM   18  C19 LIG X 999      44.284 129.072  22.746  1.00  0.00     0.029 A 
ENDBRANCH   4   9
BRANCH   1  19
HETATM   19  C6  LIG X 999      43.444 131.646  17.847  1.00  0.00     0.094 C 
BRANCH  19  20
HETATM   20  C4  LIG X 999      44.964 131.728  17.621  1.00  0.00     0.123 C 
HETATM   21  C5  LIG X 999      45.658 130.404  17.969  1.00  0.00     0.040 C 
BRANCH  20  22
HETATM   22  O1  LIG X 999      45.215 132.057  16.263  1.00  0.00    -0.382 OA
BRANCH  22  23
HETATM   23  C3  LIG X 999      46.172 131.184  15.700  1.00  0.00     0.194 C 
BRANCH  23  24
HETATM   24  C2  LIG X 999      46.039 131.203  14.207  1.00  0.00    -0.011 C 
HETATM   25  C1  LIG X 999      47.091 130.988  13.412  1.00  0.00     0.009 C 
ENDBRANCH  23  24
ENDBRANCH  22  23
ENDBRANCH  20  22
ENDBRANCH  19  20
ENDBRANCH   1  19
TORSDOF 6
