REMARK VINA RESULT:      -7.2      3.503      8.155
REMARK  7 active torsions:
REMARK  status: ('A' for Active; 'I' for Inactive)
REMARK    1  A    between atoms: C6_6  and  O1_7 
REMARK    2  A    between atoms: O1_7  and  C7_8 
REMARK    3  A    between atoms: C7_8  and  O3_10 
REMARK    4  A    between atoms: O3_10  and  C8_11 
REMARK    5  A    between atoms: C8_11  and  N1_12 
REMARK       I    between atoms: N1_12  and  C9_14 
REMARK    6  A    between atoms: C9_14  and  C10_16 
REMARK    7  A    between atoms: C10_16  and  N2_17 
ROOT
HETATM    1  N2  LIG X 999      46.202 131.749  15.399  1.00  0.00    -0.261 NA
HETATM    2  C11 LIG X 999      46.836 131.420  14.344  1.00  0.00     0.158 C 
HETATM    3  S1  LIG X 999      47.640 131.001  13.012  1.00  0.00    -0.055 SA
ENDROOT
BRANCH   1   4
HETATM    4  C10 LIG X 999      45.744 130.755  16.366  1.00  0.00     0.197 C 
HETATM    5  C12 LIG X 999      45.385 129.462  15.636  1.00  0.00     0.044 C 
BRANCH   4   6
HETATM    6  C9  LIG X 999      44.551 131.276  17.126  1.00  0.00     0.243 C 
HETATM    7  N1  LIG X 999      44.575 131.329  18.559  1.00  0.00    -0.338 N 
HETATM    8  H7  LIG X 999      45.372 130.894  19.076  1.00  0.00     0.164 HD
HETATM    9  O4  LIG X 999      43.541 131.691  16.494  1.00  0.00    -0.271 OA
BRANCH   7  10
HETATM   10  C8  LIG X 999      43.566 132.058  19.322  1.00  0.00     0.306 C 
BRANCH  10  11
HETATM   11  O3  LIG X 999      43.411 131.476  20.614  1.00  0.00    -0.278 OA
BRANCH  11  12
HETATM   12  C7  LIG X 999      44.472 131.318  21.510  1.00  0.00     0.413 C 
HETATM   13  O2  LIG X 999      45.626 131.734  21.212  1.00  0.00    -0.229 OA
BRANCH  12  14
HETATM   14  O1  LIG X 999      44.214 130.755  22.765  1.00  0.00    -0.256 OA
BRANCH  14  15
HETATM   15  C6  LIG X 999      43.928 129.402  23.004  1.00  0.00     0.082 A 
HETATM   16  C5  LIG X 999      44.876 128.445  22.626  1.00  0.00     0.049 A 
HETATM   17  C4  LIG X 999      44.636 127.080  22.840  1.00  0.00    -0.023 A 
HETATM   18  C3  LIG X 999      45.579 126.117  22.445  1.00  0.00     0.012 A 
HETATM   19  C15 LIG X 999      43.432 126.669  23.460  1.00  0.00    -0.026 A 
HETATM   20  C2  LIG X 999      45.327 124.759  22.663  1.00  0.00     0.001 A 
HETATM   21  C1  LIG X 999      44.138 124.353  23.275  1.00  0.00     0.001 A 
HETATM   22  C16 LIG X 999      43.192 125.303  23.674  1.00  0.00     0.012 A 
HETATM   23  C14 LIG X 999      42.495 127.630  23.859  1.00  0.00     0.015 A 
HETATM   24  C13 LIG X 999      42.742 128.988  23.638  1.00  0.00     0.038 A 
ENDBRANCH  14  15
ENDBRANCH  12  14
ENDBRANCH  11  12
ENDBRANCH  10  11
ENDBRANCH   7  10
ENDBRANCH   4   6
ENDBRANCH   1   4
TORSDOF 7
