REMARK VINA RESULT:      -5.2      4.235      6.664
REMARK  3 active torsions:
REMARK  status: ('A' for Active; 'I' for Inactive)
REMARK    1  A    between atoms: C2_2  and  N1_3 
REMARK    2  A    between atoms: C3_6  and  O1_7 
REMARK    3  A    between atoms: O1_7  and  C4_8 
REMARK       I    between atoms: C4_8  and  N4_10 
ROOT
HETATM    1  N1  LIG X 999      43.723 131.851  23.028  1.00  0.00    -0.070 NA
HETATM    2  N2  LIG X 999      42.655 131.994  23.626  1.00  0.00    -0.162 NA
HETATM    3  N3  LIG X 999      41.589 132.146  24.219  1.00  0.00     0.068 N 
ENDROOT
BRANCH   1   4
HETATM    4  C2  LIG X 999      44.259 130.571  22.653  1.00  0.00     0.128 A 
HETATM    5  C1  LIG X 999      44.036 129.498  23.525  1.00  0.00     0.049 A 
HETATM    6  C13 LIG X 999      44.535 128.223  23.239  1.00  0.00    -0.023 A 
HETATM    7  C8  LIG X 999      45.267 128.008  22.041  1.00  0.00    -0.022 A 
HETATM    8  C12 LIG X 999      44.311 127.150  24.126  1.00  0.00     0.021 A 
HETATM    9  C7  LIG X 999      45.483 129.077  21.163  1.00  0.00     0.052 A 
HETATM   10  C9  LIG X 999      45.760 126.722  21.741  1.00  0.00     0.021 A 
HETATM   11  C3  LIG X 999      44.995 130.364  21.459  1.00  0.00     0.113 A 
HETATM   12  C10 LIG X 999      45.524 125.688  22.647  1.00  0.00    -0.024 A 
HETATM   13  C11 LIG X 999      44.825 125.894  23.798  1.00  0.00    -0.024 A 
HETATM   14  C17 LIG X 999      45.923 124.269  22.530  1.00  0.00     0.276 C 
HETATM   15  C14 LIG X 999      44.695 124.632  24.558  1.00  0.00     0.276 C 
HETATM   16  N5  LIG X 999      45.547 123.636  23.834  1.00  0.00    -0.067 N 
HETATM   17  C15 LIG X 999      46.767 123.342  24.625  1.00  0.00     0.272 C 
HETATM   18  C16 LIG X 999      44.802 122.376  23.611  1.00  0.00     0.272 C 
BRANCH  11  19
HETATM   19  O1  LIG X 999      45.185 131.422  20.558  1.00  0.00    -0.259 OA
BRANCH  19  20
HETATM   20  C4  LIG X 999      44.284 131.789  19.547  1.00  0.00     0.367 C 
HETATM   21  O2  LIG X 999      43.246 132.450  19.831  1.00  0.00    -0.238 OA
HETATM   22  N4  LIG X 999      44.520 131.373  18.192  1.00  0.00    -0.336 N 
HETATM   23  C5  LIG X 999      45.750 130.646  17.867  1.00  0.00     0.154 C 
HETATM   24  C6  LIG X 999      43.545 131.700  17.148  1.00  0.00     0.154 C 
ENDBRANCH  19  20
ENDBRANCH  11  19
ENDBRANCH   1   4
TORSDOF 3
