REMARK VINA RESULT:      -5.8      4.502      7.160
REMARK  3 active torsions:
REMARK  status: ('A' for Active; 'I' for Inactive)
REMARK    1  A    between atoms: C2_2  and  N1_3 
REMARK    2  A    between atoms: C3_6  and  O1_7 
REMARK    3  A    between atoms: O1_7  and  C4_8 
REMARK       I    between atoms: C4_8  and  N4_10 
ROOT
HETATM    1  N1  LIG X 999      43.056 131.440  23.377  1.00  0.00    -0.070 NA
HETATM    2  N2  LIG X 999      43.566 132.372  24.003  1.00  0.00    -0.162 NA
HETATM    3  N3  LIG X 999      44.068 133.307  24.624  1.00  0.00     0.068 N 
ENDROOT
BRANCH   1   4
HETATM    4  C2  LIG X 999      43.777 130.265  22.974  1.00  0.00     0.128 A 
HETATM    5  C1  LIG X 999      43.659 129.128  23.784  1.00  0.00     0.049 A 
HETATM    6  C13 LIG X 999      44.319 127.938  23.456  1.00  0.00    -0.023 A 
HETATM    7  C8  LIG X 999      45.128 127.883  22.290  1.00  0.00    -0.022 A 
HETATM    8  C12 LIG X 999      44.193 126.799  24.275  1.00  0.00     0.021 A 
HETATM    9  C7  LIG X 999      45.254 129.021  21.483  1.00  0.00     0.052 A 
HETATM   10  C9  LIG X 999      45.805 126.692  21.961  1.00  0.00     0.021 A 
HETATM   11  C3  LIG X 999      44.578 130.213  21.806  1.00  0.00     0.113 A 
HETATM   12  C10 LIG X 999      45.648 125.583  22.794  1.00  0.00    -0.024 A 
HETATM   13  C11 LIG X 999      44.870 125.635  23.910  1.00  0.00    -0.024 A 
HETATM   14  C17 LIG X 999      46.274 124.250  22.657  1.00  0.00     0.276 C 
HETATM   15  C14 LIG X 999      44.903 124.341  24.625  1.00  0.00     0.276 C 
HETATM   16  N5  LIG X 999      45.667 123.408  23.737  1.00  0.00    -0.067 N 
HETATM   17  C15 LIG X 999      46.721 122.703  24.503  1.00  0.00     0.272 C 
HETATM   18  C16 LIG X 999      44.750 122.406  23.144  1.00  0.00     0.272 C 
BRANCH  11  19
HETATM   19  O1  LIG X 999      44.738 131.359  21.012  1.00  0.00    -0.259 OA
BRANCH  19  20
HETATM   20  C4  LIG X 999      43.958 131.671  19.888  1.00  0.00     0.367 C 
HETATM   21  O2  LIG X 999      42.849 132.257  20.027  1.00  0.00    -0.238 OA
HETATM   22  N4  LIG X 999      44.448 131.364  18.571  1.00  0.00    -0.336 N 
HETATM   23  C5  LIG X 999      43.663 131.748  17.394  1.00  0.00     0.154 C 
HETATM   24  C6  LIG X 999      45.715 130.645  18.425  1.00  0.00     0.154 C 
ENDBRANCH  19  20
ENDBRANCH  11  19
ENDBRANCH   1   4
TORSDOF 3
