REMARK VINA RESULT:      -8.0      0.000      0.000
REMARK  7 active torsions:
REMARK  status: ('A' for Active; 'I' for Inactive)
REMARK    1  A    between atoms: S1_2  and  C1_3 
REMARK    2  A    between atoms: C1_3  and  N2_11 
REMARK    3  A    between atoms: N1_4  and  C2_6 
REMARK    4  A    between atoms: C2_6  and  C3_7 
REMARK    5  A    between atoms: C3_7  and  C4_8 
REMARK    6  A    between atoms: C4_8  and  S2_9 
REMARK    7  A    between atoms: N2_11  and  C5_14 
ROOT
HETATM    1  N2  LIG X 999      43.349 131.858  16.652  1.00  0.00     0.006 N 
HETATM    2  H10 LIG X 999      42.410 131.450  16.433  1.00  0.00     0.293 HD
HETATM    3  H11 LIG X 999      43.361 132.838  16.288  1.00  0.00     0.293 HD
ENDROOT
BRANCH   1   4
HETATM    4  C1  LIG X 999      43.555 131.859  18.080  1.00  0.00     0.240 C 
HETATM    5  N1  LIG X 999      44.753 131.713  18.559  1.00  0.00    -0.365 N 
HETATM    6  H2  LIG X 999      45.531 131.529  17.906  1.00  0.00     0.161 HD
BRANCH   4   7
HETATM    7  S1  LIG X 999      42.119 132.092  19.155  1.00  0.00    -0.100 SA
HETATM    8  H1  LIG X 999      42.911 132.642  20.178  1.00  0.00     0.110 HD
ENDBRANCH   4   7
BRANCH   5   9
HETATM    9  C2  LIG X 999      45.089 131.856  19.964  1.00  0.00     0.122 C 
BRANCH   9  10
HETATM   10  C3  LIG X 999      45.787 130.596  20.501  1.00  0.00     0.029 C 
BRANCH  10  11
HETATM   11  C4  LIG X 999      44.961 129.901  21.589  1.00  0.00     0.072 C 
BRANCH  11  12
HETATM   12  S2  LIG X 999      43.949 131.115  22.489  1.00  0.00    -0.182 SA
HETATM   13  H9  LIG X 999      43.181 131.436  21.353  1.00  0.00     0.101 HD
ENDBRANCH  11  12
ENDBRANCH  10  11
ENDBRANCH   9  10
ENDBRANCH   5   9
ENDBRANCH   1   4
BRANCH   1  14
HETATM   14  C5  LIG X 999      44.407 131.106  16.022  1.00  0.00     0.141 A 
HETATM   15  C6  LIG X 999      44.736 129.819  16.478  1.00  0.00     0.038 A 
HETATM   16  C7  LIG X 999      45.806 129.116  15.916  1.00  0.00     0.014 A 
HETATM   17  C8  LIG X 999      46.569 129.694  14.892  1.00  0.00    -0.026 A 
HETATM   18  C9  LIG X 999      47.651 129.002  14.328  1.00  0.00     0.012 A 
HETATM   19  C13 LIG X 999      46.247 130.991  14.425  1.00  0.00    -0.024 A 
HETATM   20  C10 LIG X 999      48.408 129.591  13.312  1.00  0.00     0.001 A 
HETATM   21  C11 LIG X 999      48.092 130.872  12.851  1.00  0.00     0.001 A 
HETATM   22  C12 LIG X 999      47.015 131.571  13.404  1.00  0.00     0.012 A 
HETATM   23  C14 LIG X 999      45.168 131.687  14.991  1.00  0.00     0.049 A 
ENDBRANCH   1  14
TORSDOF 7
