REMARK VINA RESULT:      -8.8      1.494      2.409
REMARK  4 active torsions:
REMARK  status: ('A' for Active; 'I' for Inactive)
REMARK    1  A    between atoms: O1_2  and  C1_3 
REMARK    2  A    between atoms: C1_3  and  N1_6 
REMARK    3  A    between atoms: N1_6  and  C4_8 
REMARK    4  A    between atoms: C4_8  and  C5_9 
ROOT
HETATM    1  C5  LIG X 999      44.142 131.614  17.269  1.00  0.00    -0.035 A 
HETATM    2  C6  LIG X 999      42.786 131.898  17.508  1.00  0.00     0.010 A 
HETATM    3  C7  LIG X 999      42.292 131.959  18.814  1.00  0.00     0.013 A 
HETATM    4  C8  LIG X 999      43.144 131.728  19.902  1.00  0.00    -0.026 A 
HETATM    5  C9  LIG X 999      42.657 131.788  21.217  1.00  0.00     0.012 A 
HETATM    6  C10 LIG X 999      43.516 131.551  22.294  1.00  0.00     0.001 A 
HETATM    7  C11 LIG X 999      44.862 131.253  22.068  1.00  0.00     0.001 A 
HETATM    8  C12 LIG X 999      45.359 131.190  20.762  1.00  0.00     0.012 A 
HETATM    9  C13 LIG X 999      44.508 131.426  19.672  1.00  0.00    -0.025 A 
HETATM   10  C14 LIG X 999      44.995 131.366  18.358  1.00  0.00     0.021 A 
ENDROOT
BRANCH   1  11
HETATM   11  C4  LIG X 999      44.675 131.526  15.854  1.00  0.00     0.113 C 
HETATM   12  C15 LIG X 999      45.828 132.518  15.670  1.00  0.00     0.037 C 
BRANCH  11  13
HETATM   13  N1  LIG X 999      45.117 130.159  15.551  1.00  0.00    -0.363 N 
HETATM   14  H6  LIG X 999      44.400 129.398  15.518  1.00  0.00     0.162 HD
BRANCH  13  15
HETATM   15  C1  LIG X 999      46.489 129.817  15.267  1.00  0.00     0.131 C 
HETATM   16  C2  LIG X 999      46.920 129.813  14.000  1.00  0.00     0.024 C 
HETATM   17  C3  LIG X 999      48.331 129.469  13.644  1.00  0.00     0.040 C 
BRANCH  15  18
HETATM   18  O1  LIG X 999      47.380 129.488  16.292  1.00  0.00    -0.347 OA
HETATM   19  H1  LIG X 999      47.171 129.633  17.270  1.00  0.00     0.219 HD
ENDBRANCH  15  18
ENDBRANCH  13  15
ENDBRANCH  11  13
ENDBRANCH   1  11
TORSDOF 4
