REMARK VINA RESULT:      -5.9      3.548      6.391
REMARK  4 active torsions:
REMARK  status: ('A' for Active; 'I' for Inactive)
REMARK    1  A    between atoms: C1_1  and  C2_6 
REMARK    2  A    between atoms: N1_2  and  N2_3 
REMARK    3  A    between atoms: C2_6  and  C3_8 
REMARK    4  A    between atoms: C11_16  and  N4_17 
ROOT
HETATM    1  N4  LIG X 999      43.212 131.739  16.923  1.00  0.00    -0.105 NA
HETATM    2  N5  LIG X 999      42.415 131.961  17.836  1.00  0.00    -0.167 NA
HETATM    3  N6  LIG X 999      41.619 132.182  18.746  1.00  0.00     0.068 N 
ENDROOT
BRANCH   1   4
HETATM    4  C11 LIG X 999      44.600 132.186  17.004  1.00  0.00     0.179 C 
HETATM    5  C10 LIG X 999      45.435 131.360  16.049  1.00  0.00    -0.024 A 
HETATM    6  C5  LIG X 999      46.242 130.286  16.499  1.00  0.00    -0.049 A 
HETATM    7  C9  LIG X 999      45.330 131.610  14.669  1.00  0.00     0.010 A 
HETATM    8  C4  LIG X 999      46.457 130.017  17.970  1.00  0.00     0.051 C 
HETATM    9  C6  LIG X 999      46.955 129.519  15.563  1.00  0.00     0.007 A 
HETATM   10  C3  LIG X 999      45.356 130.628  18.851  1.00  0.00     0.068 C 
HETATM   11  C12 LIG X 999      45.118 132.093  18.452  1.00  0.00     0.048 C 
HETATM   12  C7  LIG X 999      46.844 129.785  14.197  1.00  0.00     0.001 A 
HETATM   13  C8  LIG X 999      46.033 130.828  13.751  1.00  0.00     0.001 A 
BRANCH  10  14
HETATM   14  C2  LIG X 999      45.732 130.520  20.309  1.00  0.00     0.172 C 
HETATM   15  O1  LIG X 999      45.895 129.385  20.834  1.00  0.00    -0.291 OA
BRANCH  14  16
HETATM   16  C1  LIG X 999      45.877 131.731  21.132  1.00  0.00     0.190 C 
HETATM   17  N1  LIG X 999      47.020 132.335  21.213  1.00  0.00    -0.165 NA
BRANCH  17  18
HETATM   18  N2  LIG X 999      47.192 133.490  21.990  1.00  0.00    -0.177 N 
HETATM   19  H2  LIG X 999      46.406 133.874  22.563  1.00  0.00     0.214 HD
HETATM   20  N3  LIG X 999      48.314 134.080  22.001  1.00  0.00    -0.031 N 
ENDBRANCH  17  18
ENDBRANCH  14  16
ENDBRANCH  10  14
ENDBRANCH   1   4
TORSDOF 4
