REMARK VINA RESULT:      -6.5      1.690      2.127
REMARK  5 active torsions:
REMARK  status: ('A' for Active; 'I' for Inactive)
REMARK    1  A    between atoms: C3_3  and  O1_4 
REMARK    2  A    between atoms: O1_4  and  C4_5 
REMARK    3  A    between atoms: C4_5  and  C5_7 
REMARK    4  A    between atoms: C5_7  and  C6_8 
REMARK    5  A    between atoms: C11_13  and  O3_14 
ROOT
HETATM    1  C1  LIG X 999      47.734 130.980  13.241  1.00  0.00     0.014 C 
HETATM    2  C2  LIG X 999      46.640 130.724  13.679  1.00  0.00    -0.091 C 
HETATM    3  C3  LIG X 999      45.310 130.412  14.213  1.00  0.00     0.271 C 
ENDROOT
BRANCH   3   4
HETATM    4  O1  LIG X 999      45.014 131.252  15.326  1.00  0.00    -0.309 OA
BRANCH   4   5
HETATM    5  C4  LIG X 999      45.412 130.959  16.636  1.00  0.00     0.263 C 
HETATM    6  O2  LIG X 999      45.651 129.772  16.988  1.00  0.00    -0.265 OA
BRANCH   5   7
HETATM    7  C5  LIG X 999      45.501 132.064  17.640  1.00  0.00     0.149 C 
BRANCH   7   8
HETATM    8  C6  LIG X 999      44.740 131.692  18.882  1.00  0.00    -0.048 A 
HETATM    9  C7  LIG X 999      43.489 132.272  19.143  1.00  0.00     0.008 A 
HETATM   10  C8  LIG X 999      42.791 131.956  20.312  1.00  0.00     0.013 A 
HETATM   11  C9  LIG X 999      43.341 131.063  21.244  1.00  0.00    -0.023 A 
HETATM   12  C10 LIG X 999      42.648 130.742  22.421  1.00  0.00     0.049 A 
HETATM   13  C15 LIG X 999      44.608 130.486  20.994  1.00  0.00    -0.025 A 
HETATM   14  C11 LIG X 999      43.208 129.849  23.355  1.00  0.00     0.069 A 
HETATM   15  C13 LIG X 999      44.463 129.284  23.097  1.00  0.00     0.037 A 
HETATM   16  C14 LIG X 999      45.161 129.598  21.928  1.00  0.00     0.015 A 
HETATM   17  C16 LIG X 999      45.302 130.808  19.817  1.00  0.00     0.020 A 
BRANCH  14  18
HETATM   18  O3  LIG X 999      42.555 129.496  24.545  1.00  0.00    -0.356 OA
HETATM   19  C12 LIG X 999      41.358 128.728  24.609  1.00  0.00     0.210 C 
ENDBRANCH  14  18
ENDBRANCH   7   8
ENDBRANCH   5   7
ENDBRANCH   4   5
ENDBRANCH   3   4
TORSDOF 5
