REMARK VINA RESULT:      -5.3      0.000      0.000
REMARK  5 active torsions:
REMARK  status: ('A' for Active; 'I' for Inactive)
REMARK    1  A    between atoms: C3_3  and  C4_4 
REMARK    2  A    between atoms: C4_4  and  S1_5 
REMARK    3  A    between atoms: S1_5  and  C5_6 
REMARK    4  A    between atoms: C6_7  and  N1_8 
REMARK    5  A    between atoms: C10_12  and  N2_13 
ROOT
HETATM    1  C1  LIG X 999      43.333 128.976  24.593  1.00  0.00     0.112 C 
HETATM    2  C2  LIG X 999      44.043 129.261  23.346  1.00  0.00    -0.110 C 
HETATM    3  C3  LIG X 999      44.614 129.483  22.308  1.00  0.00    -0.097 C 
ENDROOT
BRANCH   3   4
HETATM    4  C4  LIG X 999      45.293 129.735  21.034  1.00  0.00     0.173 C 
BRANCH   4   5
HETATM    5  S1  LIG X 999      45.538 131.527  20.784  1.00  0.00    -0.115 SA
BRANCH   5   6
HETATM    6  C5  LIG X 999      44.227 131.698  19.542  1.00  0.00     0.038 A 
HETATM    7  C6  LIG X 999      42.931 132.089  19.946  1.00  0.00     0.043 A 
HETATM    8  C7  LIG X 999      41.928 132.256  18.989  1.00  0.00     0.031 A 
HETATM    9  C8  LIG X 999      42.185 132.059  17.636  1.00  0.00     0.017 A 
HETATM   10  C9  LIG X 999      43.463 131.675  17.192  1.00  0.00     0.002 A 
HETATM   11  C10 LIG X 999      43.750 131.482  15.807  1.00  0.00     0.045 A 
HETATM   12  C14 LIG X 999      44.490 131.451  18.167  1.00  0.00    -0.004 A 
HETATM   13  C11 LIG X 999      45.031 131.038  15.452  1.00  0.00     0.003 A 
HETATM   14  C12 LIG X 999      45.989 130.797  16.384  1.00  0.00    -0.021 A 
HETATM   15  C18 LIG X 999      45.568 130.769  14.093  1.00  0.00     0.278 C 
HETATM   16  C13 LIG X 999      45.754 130.985  17.739  1.00  0.00     0.023 A 
HETATM   17  C15 LIG X 999      47.245 130.340  15.752  1.00  0.00     0.276 C 
HETATM   18  N3  LIG X 999      47.019 130.451  14.277  1.00  0.00    -0.067 N 
HETATM   19  C16 LIG X 999      47.364 129.181  13.599  1.00  0.00     0.272 C 
HETATM   20  C17 LIG X 999      47.856 131.539  13.716  1.00  0.00     0.272 C 
BRANCH   7  21
HETATM   21  N1  LIG X 999      42.609 132.320  21.326  1.00  0.00    -0.398 N 
HETATM   22  H6  LIG X 999      42.465 133.293  21.679  1.00  0.00     0.156 HD
HETATM   23  H7  LIG X 999      42.504 131.546  22.016  1.00  0.00     0.156 HD
ENDBRANCH   7  21
BRANCH  11  24
HETATM   24  N2  LIG X 999      42.786 131.748  14.775  1.00  0.00    -0.398 N 
HETATM   25  H10 LIG X 999      42.223 132.623  14.741  1.00  0.00     0.156 HD
HETATM   26  H11 LIG X 999      42.699 131.113  13.951  1.00  0.00     0.156 HD
ENDBRANCH  11  24
ENDBRANCH   5   6
ENDBRANCH   4   5
ENDBRANCH   3   4
TORSDOF 5
