REMARK VINA RESULT:      -4.4      5.564      7.140
REMARK  3 active torsions:
REMARK  status: ('A' for Active; 'I' for Inactive)
REMARK    1  A    between atoms: C3_3  and  S1_4 
REMARK    2  A    between atoms: S1_4  and  C4_7 
REMARK    3  A    between atoms: C17_20  and  N1_21 
ROOT
HETATM    1  C1  LIG X 999      44.808 133.535  24.563  1.00  0.00     0.013 C 
HETATM    2  C2  LIG X 999      44.613 132.347  24.552  1.00  0.00    -0.102 C 
HETATM    3  C3  LIG X 999      44.370 130.902  24.538  1.00  0.00     0.238 C 
ENDROOT
BRANCH   3   4
HETATM    4  S1  LIG X 999      43.007 130.523  23.449  1.00  0.00     0.186 S 
HETATM    5  O1  LIG X 999      41.807 131.298  23.920  1.00  0.00    -0.222 OA
HETATM    6  O2  LIG X 999      43.325 130.963  22.047  1.00  0.00    -0.222 OA
BRANCH   4   7
HETATM    7  C4  LIG X 999      42.656 128.779  23.475  1.00  0.00     0.071 C 
HETATM    8  C5  LIG X 999      41.360 128.381  23.825  1.00  0.00     0.024 C 
HETATM    9  C6  LIG X 999      41.009 127.039  23.838  1.00  0.00     0.002 C 
HETATM   10  C7  LIG X 999      41.963 126.061  23.577  1.00  0.00     0.013 C 
HETATM   11  C8  LIG X 999      43.311 126.401  23.337  1.00  0.00    -0.011 C 
HETATM   12  C9  LIG X 999      43.631 127.785  23.174  1.00  0.00    -0.003 C 
HETATM   13  C13 LIG X 999      44.331 125.408  23.144  1.00  0.00     0.008 C 
HETATM   14  C10 LIG X 999      44.893 128.133  22.665  1.00  0.00     0.016 C 
HETATM   15  C11 LIG X 999      45.802 127.158  22.283  1.00  0.00     0.031 C 
HETATM   16  C12 LIG X 999      45.539 125.805  22.508  1.00  0.00     0.045 C 
HETATM   17  N4  LIG X 999      46.467 124.877  22.131  1.00  0.00    -0.338 N 
HETATM   18  C17 LIG X 999      46.299 123.551  22.387  1.00  0.00     0.165 C 
HETATM   19  H13 LIG X 999      47.328 125.194  21.632  1.00  0.00     0.167 HD
HETATM   20  C16 LIG X 999      45.203 123.126  23.129  1.00  0.00     0.061 C 
HETATM   21  C14 LIG X 999      44.246 124.047  23.577  1.00  0.00    -0.045 C 
HETATM   22  C15 LIG X 999      43.282 123.547  24.625  1.00  0.00     0.049 C 
BRANCH  18  23
HETATM   23  N1  LIG X 999      47.267 122.580  21.964  1.00  0.00    -0.054 NA
HETATM   24  N2  LIG X 999      48.322 122.901  21.418  1.00  0.00    -0.160 NA
HETATM   25  N3  LIG X 999      49.377 123.220  20.872  1.00  0.00     0.068 N 
ENDBRANCH  18  23
ENDBRANCH   4   7
ENDBRANCH   3   4
TORSDOF 3
