REMARK VINA RESULT:      -7.3      1.662      6.574
REMARK  3 active torsions:
REMARK  status: ('A' for Active; 'I' for Inactive)
REMARK    1  A    between atoms: C3_3  and  N1_4 
REMARK    2  A    between atoms: N1_4  and  C6_7 
REMARK    3  A    between atoms: C6_7  and  C7_8 
ROOT
HETATM    1  C1  LIG X 999      43.762 130.749  22.909  1.00  0.00     0.013 C 
HETATM    2  C2  LIG X 999      43.555 131.060  21.763  1.00  0.00    -0.089 C 
HETATM    3  C3  LIG X 999      43.298 131.442  20.360  1.00  0.00     0.329 C 
ENDROOT
BRANCH   3   4
HETATM    4  N1  LIG X 999      44.543 131.700  19.576  1.00  0.00    -0.061 N 
HETATM    5  C4  LIG X 999      45.412 130.499  19.669  1.00  0.00     0.273 C 
HETATM    6  C5  LIG X 999      45.289 132.836  20.180  1.00  0.00     0.273 C 
BRANCH   4   7
HETATM    7  C6  LIG X 999      44.264 132.029  18.141  1.00  0.00     0.276 C 
BRANCH   7   8
HETATM    8  C7  LIG X 999      45.130 131.283  17.141  1.00  0.00    -0.032 A 
HETATM    9  C8  LIG X 999      45.449 129.931  17.349  1.00  0.00     0.010 A 
HETATM   10  C9  LIG X 999      46.248 129.238  16.436  1.00  0.00     0.013 A 
HETATM   11  C10 LIG X 999      46.752 129.891  15.303  1.00  0.00    -0.026 A 
HETATM   12  C11 LIG X 999      47.554 129.204  14.379  1.00  0.00     0.012 A 
HETATM   13  C15 LIG X 999      46.454 131.259  15.093  1.00  0.00    -0.025 A 
HETATM   14  C12 LIG X 999      48.055 129.869  13.256  1.00  0.00     0.001 A 
HETATM   15  C13 LIG X 999      47.762 131.220  13.048  1.00  0.00     0.001 A 
HETATM   16  C14 LIG X 999      46.965 131.915  13.962  1.00  0.00     0.012 A 
HETATM   17  C16 LIG X 999      45.652 131.946  16.017  1.00  0.00     0.021 A 
ENDBRANCH   7   8
ENDBRANCH   4   7
ENDBRANCH   3   4
TORSDOF 3
