REMARK VINA RESULT:      -6.4      1.757      2.624
REMARK  5 active torsions:
REMARK  status: ('A' for Active; 'I' for Inactive)
REMARK    1  A    between atoms: O1_2  and  S1_3 
REMARK    2  A    between atoms: S1_3  and  C1_4 
REMARK    3  A    between atoms: S1_3  and  C11_14 
REMARK    4  A    between atoms: C11_14  and  C12_15 
REMARK    5  A    between atoms: C12_15  and  N1_16 
ROOT
HETATM    1  N1  LIG X 999      45.513 130.998  14.186  1.00  0.00    -0.115 NA
HETATM    2  N2  LIG X 999      44.320 131.214  13.974  1.00  0.00    -0.168 NA
HETATM    3  N3  LIG X 999      43.128 131.430  13.763  1.00  0.00     0.068 N 
ENDROOT
BRANCH   1   4
HETATM    4  C12 LIG X 999      45.946 129.735  14.767  1.00  0.00     0.201 C 
BRANCH   4   5
HETATM    5  C11 LIG X 999      46.069 129.864  16.283  1.00  0.00     0.121 C 
BRANCH   5   6
HETATM    6  S1  LIG X 999      45.102 131.235  16.897  1.00  0.00    -0.056 S 
BRANCH   6   7
HETATM    7  O1  LIG X 999      45.744 132.713  16.419  1.00  0.00    -0.336 OA
HETATM    8  H1  LIG X 999      46.661 132.724  16.793  1.00  0.00     0.227 HD
ENDBRANCH   6   7
BRANCH   6   9
HETATM    9  C1  LIG X 999      44.879 131.171  18.636  1.00  0.00     0.017 A 
HETATM   10  C2  LIG X 999      45.865 130.591  19.441  1.00  0.00     0.021 A 
HETATM   11  C3  LIG X 999      45.704 130.547  20.829  1.00  0.00     0.013 A 
HETATM   12  C4  LIG X 999      44.553 131.085  21.423  1.00  0.00    -0.026 A 
HETATM   13  C5  LIG X 999      44.380 131.047  22.816  1.00  0.00     0.012 A 
HETATM   14  C9  LIG X 999      43.554 131.674  20.609  1.00  0.00    -0.025 A 
HETATM   15  C6  LIG X 999      43.229 131.588  23.395  1.00  0.00     0.001 A 
HETATM   16  C7  LIG X 999      42.243 132.170  22.591  1.00  0.00     0.001 A 
HETATM   17  C8  LIG X 999      42.402 132.214  21.204  1.00  0.00     0.012 A 
HETATM   18  C10 LIG X 999      43.725 131.712  19.217  1.00  0.00     0.032 A 
ENDBRANCH   6   9
ENDBRANCH   5   6
ENDBRANCH   4   5
ENDBRANCH   1   4
TORSDOF 5
