REMARK VINA RESULT:      -6.3      1.210      2.888
REMARK  1 active torsions:
REMARK  status: ('A' for Active; 'I' for Inactive)
REMARK    1  A    between atoms: C14_14  and  N1_15 
ROOT
HETATM    1  N1  LIG X 999      44.188 131.996  22.508  1.00  0.00    -0.054 NA
HETATM    2  N2  LIG X 999      43.264 131.670  23.256  1.00  0.00    -0.160 NA
HETATM    3  N3  LIG X 999      42.344 131.346  24.003  1.00  0.00     0.068 N 
ENDROOT
BRANCH   1   4
HETATM    4  C14 LIG X 999      44.158 131.750  21.094  1.00  0.00     0.165 C 
HETATM    5  C13 LIG X 999      43.053 132.103  20.314  1.00  0.00     0.061 C 
HETATM    6  C11 LIG X 999      43.040 131.836  18.937  1.00  0.00    -0.045 C 
HETATM    7  C10 LIG X 999      44.222 131.330  18.311  1.00  0.00     0.008 C 
HETATM    8  C12 LIG X 999      41.702 131.966  18.249  1.00  0.00     0.049 C 
HETATM    9  C4  LIG X 999      44.425 131.216  16.894  1.00  0.00    -0.013 C 
HETATM   10  C9  LIG X 999      45.258 130.869  19.174  1.00  0.00     0.045 C 
HETATM   11  C3  LIG X 999      43.673 131.940  15.938  1.00  0.00     0.013 C 
HETATM   12  C5  LIG X 999      45.504 130.422  16.410  1.00  0.00    -0.025 C 
HETATM   13  C2  LIG X 999      43.872 131.750  14.569  1.00  0.00     0.001 C 
HETATM   14  C1  LIG X 999      44.854 130.875  14.116  1.00  0.00     0.001 C 
HETATM   15  C6  LIG X 999      45.682 130.229  15.030  1.00  0.00     0.012 C 
HETATM   16  C7  LIG X 999      46.428 129.873  17.300  1.00  0.00     0.014 C 
HETATM   17  C8  LIG X 999      46.338 130.141  18.658  1.00  0.00     0.031 C 
HETATM   18  N4  LIG X 999      45.205 131.109  20.515  1.00  0.00    -0.338 N 
HETATM   19  H11 LIG X 999      45.992 130.798  21.131  1.00  0.00     0.167 HD
ENDBRANCH   1   4
TORSDOF 1
