REMARK VINA RESULT:      -8.4      3.234      6.220
REMARK  2 active torsions:
REMARK  status: ('A' for Active; 'I' for Inactive)
REMARK    1  A    between atoms: C6_6  and  C7_7 
REMARK    2  A    between atoms: C7_7  and  N1_8 
ROOT
HETATM    1  N1  LIG X 999      46.513 130.053  15.660  1.00  0.00    -0.106 NA
HETATM    2  N2  LIG X 999      47.253 129.788  14.712  1.00  0.00    -0.167 NA
HETATM    3  N3  LIG X 999      47.993 129.523  13.765  1.00  0.00     0.068 N 
ENDROOT
BRANCH   1   4
HETATM    4  C7  LIG X 999      45.650 131.231  15.633  1.00  0.00     0.174 C 
HETATM    5  C8  LIG X 999      44.665 131.113  14.470  1.00  0.00     0.042 C 
BRANCH   4   6
HETATM    6  C6  LIG X 999      44.905 131.382  16.943  1.00  0.00    -0.030 A 
HETATM    7  C5  LIG X 999      45.551 131.137  18.168  1.00  0.00     0.021 A 
HETATM    8  C4  LIG X 999      44.852 131.261  19.378  1.00  0.00    -0.025 A 
HETATM    9  C3  LIG X 999      45.495 131.022  20.603  1.00  0.00     0.012 A 
HETATM   10  C11 LIG X 999      43.485 131.630  19.365  1.00  0.00    -0.026 A 
HETATM   11  C2  LIG X 999      44.789 131.150  21.803  1.00  0.00     0.001 A 
HETATM   12  C1  LIG X 999      43.439 131.514  21.790  1.00  0.00     0.001 A 
HETATM   13  C12 LIG X 999      42.787 131.753  20.576  1.00  0.00     0.012 A 
HETATM   14  C10 LIG X 999      42.843 131.863  18.142  1.00  0.00     0.013 A 
HETATM   15  C9  LIG X 999      43.546 131.737  16.941  1.00  0.00     0.010 A 
ENDBRANCH   4   6
ENDBRANCH   1   4
TORSDOF 2
