REMARK VINA RESULT:      -5.9      2.073      6.658
REMARK  1 active torsions:
REMARK  status: ('A' for Active; 'I' for Inactive)
REMARK    1  A    between atoms: C3_3  and  N1_4 
ROOT
HETATM    1  N1  LIG X 999      41.793 132.896  20.081  1.00  0.00    -0.072 NA
HETATM    2  N2  LIG X 999      41.024 133.320  20.945  1.00  0.00    -0.162 NA
HETATM    3  N3  LIG X 999      40.256 133.748  21.805  1.00  0.00     0.068 N 
ENDROOT
BRANCH   1   4
HETATM    4  C3  LIG X 999      42.989 132.174  20.410  1.00  0.00     0.104 A 
HETATM    5  C2  LIG X 999      43.272 131.983  21.768  1.00  0.00     0.035 A 
HETATM    6  C1  LIG X 999      44.374 131.228  22.171  1.00  0.00     0.003 A 
HETATM    7  C10 LIG X 999      45.222 130.659  21.224  1.00  0.00     0.012 A 
HETATM    8  C9  LIG X 999      44.994 130.866  19.857  1.00  0.00    -0.023 A 
HETATM    9  C4  LIG X 999      43.876 131.651  19.431  1.00  0.00     0.006 A 
HETATM   10  C8  LIG X 999      45.879 130.317  18.909  1.00  0.00     0.021 A 
HETATM   11  C5  LIG X 999      43.720 131.913  18.048  1.00  0.00     0.024 A 
HETATM   12  C6  LIG X 999      44.626 131.357  17.144  1.00  0.00    -0.023 A 
HETATM   13  C7  LIG X 999      45.661 130.580  17.559  1.00  0.00    -0.024 A 
HETATM   14  C14 LIG X 999      44.632 131.489  15.672  1.00  0.00     0.276 C 
HETATM   15  C11 LIG X 999      46.458 130.114  16.404  1.00  0.00     0.276 C 
HETATM   16  N4  LIG X 999      45.888 130.816  15.210  1.00  0.00    -0.067 N 
HETATM   17  C12 LIG X 999      45.594 129.848  14.128  1.00  0.00     0.272 C 
HETATM   18  C13 LIG X 999      46.850 131.825  14.706  1.00  0.00     0.272 C 
ENDBRANCH   1   4
TORSDOF 1
