REMARK VINA RESULT:      -8.0      1.862      6.397
REMARK  4 active torsions:
REMARK  status: ('A' for Active; 'I' for Inactive)
REMARK    1  A    between atoms: C3_3  and  O1_4 
REMARK    2  A    between atoms: O1_4  and  C4_5 
REMARK    3  A    between atoms: C4_5  and  O2_6 
REMARK    4  A    between atoms: C5_8  and  C6_9 
ROOT
HETATM    1  C1  LIG X 999      47.900 129.594  13.726  1.00  0.00     0.014 C 
HETATM    2  C2  LIG X 999      47.361 129.687  14.800  1.00  0.00    -0.091 C 
HETATM    3  C3  LIG X 999      46.705 129.798  16.103  1.00  0.00     0.270 C 
ENDROOT
BRANCH   3   4
HETATM    4  O1  LIG X 999      45.299 129.874  15.910  1.00  0.00    -0.319 OA
BRANCH   4   5
HETATM    5  C4  LIG X 999      44.662 130.917  15.224  1.00  0.00     0.179 C 
HETATM    6  C5  LIG X 999      43.869 131.773  15.879  1.00  0.00     0.075 C 
BRANCH   5   7
HETATM    7  O2  LIG X 999      44.813 131.073  13.845  1.00  0.00    -0.341 OA
HETATM    8  H4  LIG X 999      45.557 130.628  13.326  1.00  0.00     0.220 HD
ENDBRANCH   5   7
BRANCH   6   9
HETATM    9  C6  LIG X 999      43.621 131.729  17.338  1.00  0.00    -0.031 A 
HETATM   10  C7  LIG X 999      42.322 131.964  17.810  1.00  0.00     0.012 A 
HETATM   11  C8  LIG X 999      42.047 131.948  19.180  1.00  0.00     0.013 A 
HETATM   12  C9  LIG X 999      43.076 131.714  20.104  1.00  0.00    -0.026 A 
HETATM   13  C10 LIG X 999      42.811 131.695  21.481  1.00  0.00     0.012 A 
HETATM   14  C14 LIG X 999      44.397 131.502  19.641  1.00  0.00    -0.025 A 
HETATM   15  C11 LIG X 999      43.848 131.470  22.392  1.00  0.00     0.001 A 
HETATM   16  C12 LIG X 999      45.152 131.265  21.936  1.00  0.00     0.001 A 
HETATM   17  C13 LIG X 999      45.429 131.281  20.566  1.00  0.00     0.012 A 
HETATM   18  C15 LIG X 999      44.662 131.521  18.263  1.00  0.00     0.024 A 
ENDBRANCH   6   9
ENDBRANCH   4   5
ENDBRANCH   3   4
TORSDOF 4
