REMARK VINA RESULT:      -5.6      4.195      7.976
REMARK  2 active torsions:
REMARK  status: ('A' for Active; 'I' for Inactive)
REMARK    1  A    between atoms: C9_10  and  N2_11 
REMARK       I    between atoms: N2_11  and  C10_12 
REMARK    2  A    between atoms: C10_12  and  C11_14 
ROOT
HETATM    1  C11 LIG X 999      44.705 127.283  24.450  1.00  0.00     0.282 C 
HETATM    2 CL1  LIG X 999      42.968 126.926  24.613  1.00  0.00    -0.099 Cl
HETATM    3  C12 LIG X 999      45.471 126.036  24.548  1.00  0.00     0.089 C 
HETATM    4  N3  LIG X 999      46.075 125.052  24.625  1.00  0.00    -0.195 NA
ENDROOT
BRANCH   1   5
HETATM    5  C10 LIG X 999      44.968 127.946  23.135  1.00  0.00     0.276 C 
HETATM    6  N2  LIG X 999      44.795 129.365  23.006  1.00  0.00    -0.212 NA
HETATM    7  O1  LIG X 999      45.395 127.260  22.167  1.00  0.00    -0.268 OA
BRANCH   6   8
HETATM    8  C9  LIG X 999      44.759 130.114  21.782  1.00  0.00     0.061 A 
HETATM    9  C8  LIG X 999      44.193 131.402  21.714  1.00  0.00     0.032 A 
HETATM   10  C7  LIG X 999      44.193 132.114  20.512  1.00  0.00     0.014 A 
HETATM   11  C6  LIG X 999      44.769 131.558  19.362  1.00  0.00    -0.025 A 
HETATM   12  C5  LIG X 999      44.776 132.270  18.146  1.00  0.00     0.021 A 
HETATM   13  C14 LIG X 999      45.364 130.267  19.430  1.00  0.00    -0.023 A 
HETATM   14  C4  LIG X 999      45.365 131.677  17.029  1.00  0.00    -0.024 A 
HETATM   15  C3  LIG X 999      45.504 132.243  15.670  1.00  0.00     0.276 C 
HETATM   16  C16 LIG X 999      45.934 130.442  17.092  1.00  0.00    -0.024 A 
HETATM   17  N1  LIG X 999      46.090 131.146  14.834  1.00  0.00    -0.067 N 
HETATM   18  C1  LIG X 999      47.251 131.642  14.061  1.00  0.00     0.272 C 
HETATM   19  C2  LIG X 999      45.070 130.628  13.892  1.00  0.00     0.272 C 
HETATM   20  C17 LIG X 999      46.508 130.066  15.783  1.00  0.00     0.276 C 
HETATM   21  C15 LIG X 999      45.956 129.708  18.280  1.00  0.00     0.021 A 
HETATM   22  C13 LIG X 999      45.359 129.564  20.643  1.00  0.00     0.044 A 
ENDBRANCH   6   8
ENDBRANCH   1   5
TORSDOF 2
