REMARK VINA RESULT:      -5.7      1.689      3.018
REMARK  1 active torsions:
REMARK  status: ('A' for Active; 'I' for Inactive)
REMARK    1  A    between atoms: C8_8  and  N1_9 
ROOT
HETATM    1  N1  LIG X 999      45.977 130.637  16.785  1.00  0.00    -0.072 NA
HETATM    2  N2  LIG X 999      45.350 129.932  15.993  1.00  0.00    -0.162 NA
HETATM    3  N3  LIG X 999      44.732 129.224  15.199  1.00  0.00     0.068 N 
ENDROOT
BRANCH   1   4
HETATM    4  C8  LIG X 999      45.552 130.850  18.139  1.00  0.00     0.104 A 
HETATM    5  C7  LIG X 999      46.478 130.552  19.177  1.00  0.00     0.038 A 
HETATM    6  C6  LIG X 999      46.128 130.686  20.538  1.00  0.00     0.035 A 
HETATM    7  C5  LIG X 999      44.844 131.126  20.845  1.00  0.00     0.073 A 
HETATM    8  C4  LIG X 999      43.971 131.435  19.843  1.00  0.00     0.021 A 
HETATM    9  N4  LIG X 999      44.281 131.370  22.138  1.00  0.00    -0.209 NA
HETATM   10  C3  LIG X 999      42.802 131.904  20.349  1.00  0.00     0.047 A 
HETATM   11  C9  LIG X 999      44.259 131.342  18.487  1.00  0.00     0.009 A 
HETATM   12  C2  LIG X 999      41.785 132.345  19.506  1.00  0.00     0.018 A 
HETATM   13  C11 LIG X 999      42.975 131.866  21.797  1.00  0.00     0.278 A 
HETATM   14  C1  LIG X 999      42.022 132.289  18.113  1.00  0.00     0.002 A 
HETATM   15  C10 LIG X 999      43.253 131.801  17.601  1.00  0.00     0.015 A 
HETATM   16  O1  LIG X 999      42.117 132.223  22.646  1.00  0.00    -0.265 OA
ENDBRANCH   1   4
TORSDOF 1
