REMARK VINA RESULT:      -0.0      2.465      5.254
REMARK  4 active torsions:
REMARK  status: ('A' for Active; 'I' for Inactive)
REMARK    1  A    between atoms: C5_5  and  O1_6 
REMARK    2  A    between atoms: O1_6  and  C6_7 
REMARK       I    between atoms: C6_7  and  N1_9 
REMARK    3  A    between atoms: C9_13  and  N2_14 
REMARK    4  A    between atoms: C11_19  and  N5_20 
ROOT
HETATM    1  N2  LIG X 999      44.427 132.216  24.116  1.00  0.00    -0.068 NA
HETATM    2  N3  LIG X 999      45.286 133.063  24.362  1.00  0.00    -0.162 NA
HETATM    3  N4  LIG X 999      46.144 133.908  24.613  1.00  0.00     0.068 N 
ENDROOT
BRANCH   1   4
HETATM    4  C9  LIG X 999      44.283 131.608  22.819  1.00  0.00     0.151 C 
HETATM    5  C5  LIG X 999      43.026 131.077  22.481  1.00  0.00     0.114 C 
HETATM    6  C4  LIG X 999      42.232 130.405  23.436  1.00  0.00     0.040 C 
HETATM    7  C3  LIG X 999      42.731 129.640  24.512  1.00  0.00     0.003 C 
HETATM    8  C2  LIG X 999      44.037 129.123  24.625  1.00  0.00     0.000 C 
HETATM    9  C1  LIG X 999      44.915 128.939  23.550  1.00  0.00     0.000 C 
HETATM   10  C13 LIG X 999      44.464 128.628  22.266  1.00  0.00     0.002 C 
HETATM   11  C12 LIG X 999      44.991 129.192  21.099  1.00  0.00     0.036 C 
HETATM   12  C11 LIG X 999      45.577 130.482  20.986  1.00  0.00     0.117 C 
HETATM   13  C10 LIG X 999      45.373 131.538  21.916  1.00  0.00     0.100 C 
HETATM   14 CL1  LIG X 999      46.510 132.889  21.877  1.00  0.00    -0.079 Cl
BRANCH   5  15
HETATM   15  O1  LIG X 999      42.582 131.255  21.161  1.00  0.00    -0.254 OA
BRANCH  15  16
HETATM   16  C6  LIG X 999      42.105 132.453  20.604  1.00  0.00     0.461 C 
HETATM   17  O2  LIG X 999      41.276 133.171  21.229  1.00  0.00    -0.230 OA
HETATM   18  N1  LIG X 999      42.497 132.820  19.267  1.00  0.00     0.009 N 
HETATM   19  H5  LIG X 999      42.115 133.768  19.039  1.00  0.00     0.292 HD
HETATM   20  C7  LIG X 999      43.964 132.879  19.168  1.00  0.00     0.282 C 
HETATM   21  C8  LIG X 999      41.946 131.853  18.307  1.00  0.00     0.282 C 
ENDBRANCH  15  16
ENDBRANCH   5  15
BRANCH  12  22
HETATM   22  N5  LIG X 999      46.390 130.776  19.837  1.00  0.00    -0.071 NA
HETATM   23  N6  LIG X 999      46.042 130.507  18.686  1.00  0.00    -0.162 NA
HETATM   24  N7  LIG X 999      45.695 130.239  17.537  1.00  0.00     0.068 N 
ENDBRANCH  12  22
ENDBRANCH   1   4
TORSDOF 4
