MODEL 1
REMARK VINA RESULT:      -7.3      0.000      0.000
REMARK  6 active torsions:
REMARK  status: ('A' for Active; 'I' for Inactive)
REMARK    1  A    between atoms: N1_1  and  C1_2 
REMARK    2  A    between atoms: C1_2  and  C2_3 
REMARK    3  A    between atoms: C2_3  and  O1_4 
REMARK    4  A    between atoms: C2_3  and  C3_5 
REMARK    5  A    between atoms: C3_5  and  O2_6 
REMARK    6  A    between atoms: O2_6  and  C4_7 
ROOT
HETATM    1  C4  LIG X 999      44.505 131.494  17.911  1.00  0.00     0.080 A 
HETATM    2  C5  LIG X 999      43.371 131.819  17.140  1.00  0.00     0.037 A 
HETATM    3  C6  LIG X 999      42.149 132.095  17.756  1.00  0.00     0.004 A 
HETATM    4  C7  LIG X 999      42.033 132.056  19.144  1.00  0.00     0.012 A 
HETATM    5  C8  LIG X 999      43.146 131.736  19.935  1.00  0.00    -0.023 A 
HETATM    6  C9  LIG X 999      43.032 131.693  21.334  1.00  0.00     0.012 A 
HETATM    7  C10 LIG X 999      44.142 131.375  22.119  1.00  0.00     0.001 A 
HETATM    8  C11 LIG X 999      45.370 131.095  21.518  1.00  0.00     0.001 A 
HETATM    9  C12 LIG X 999      45.499 131.132  20.127  1.00  0.00     0.015 A 
HETATM   10  C13 LIG X 999      44.391 131.452  19.318  1.00  0.00     0.007 A 
ENDROOT
BRANCH   1  11
HETATM   11  O2  LIG X 999      45.745 131.211  17.315  1.00  0.00    -0.348 OA
BRANCH  11  12
HETATM   12  C3  LIG X 999      46.154 129.922  16.861  1.00  0.00     0.209 C 
BRANCH  12  13
HETATM   13  C2  LIG X 999      45.567 129.661  15.471  1.00  0.00     0.170 C 
BRANCH  13  14
HETATM   14  C1  LIG X 999      46.495 130.192  14.364  1.00  0.00     0.300 C 
BRANCH  14  15
HETATM   15  N1  LIG X 999      46.635 131.643  14.453  1.00  0.00     0.080 N 
HETATM   16  H1  LIG X 999      46.481 132.037  13.497  1.00  0.00     0.312 HD
HETATM   17  H2  LIG X 999      45.861 132.011  15.054  1.00  0.00     0.312 HD
ENDBRANCH  14  15
ENDBRANCH  13  14
BRANCH  13  18
HETATM   18  O1  LIG X 999      45.386 128.278  15.306  1.00  0.00    -0.392 OA
HETATM   19  H6  LIG X 999      45.544 127.859  16.193  1.00  0.00     0.210 HD
ENDBRANCH  13  18
ENDBRANCH  12  13
ENDBRANCH  11  12
ENDBRANCH   1  11
TORSDOF 6
ENDMDL
MODEL 2
REMARK VINA RESULT:      -6.9      1.680      2.810
REMARK  6 active torsions:
REMARK  status: ('A' for Active; 'I' for Inactive)
REMARK    1  A    between atoms: N1_1  and  C1_2 
REMARK    2  A    between atoms: C1_2  and  C2_3 
REMARK    3  A    between atoms: C2_3  and  O1_4 
REMARK    4  A    between atoms: C2_3  and  C3_5 
REMARK    5  A    between atoms: C3_5  and  O2_6 
REMARK    6  A    between atoms: O2_6  and  C4_7 
ROOT
HETATM    1  C4  LIG X 999      44.507 131.452  18.571  1.00  0.00     0.080 A 
HETATM    2  C5  LIG X 999      45.666 130.699  18.844  1.00  0.00     0.037 A 
HETATM    3  C6  LIG X 999      45.966 130.303  20.148  1.00  0.00     0.004 A 
HETATM    4  C7  LIG X 999      45.120 130.647  21.202  1.00  0.00     0.012 A 
HETATM    5  C8  LIG X 999      43.960 131.395  20.958  1.00  0.00    -0.023 A 
HETATM    6  C9  LIG X 999      43.107 131.744  22.018  1.00  0.00     0.012 A 
HETATM    7  C10 LIG X 999      41.952 132.489  21.772  1.00  0.00     0.001 A 
HETATM    8  C11 LIG X 999      41.639 132.893  20.473  1.00  0.00     0.001 A 
HETATM    9  C12 LIG X 999      42.478 132.554  19.409  1.00  0.00     0.015 A 
HETATM   10  C13 LIG X 999      43.648 131.803  19.636  1.00  0.00     0.007 A 
ENDROOT
BRANCH   1  11
HETATM   11  O2  LIG X 999      44.184 131.863  17.267  1.00  0.00    -0.348 OA
BRANCH  11  12
HETATM   12  C3  LIG X 999      44.442 131.103  16.089  1.00  0.00     0.209 C 
BRANCH  12  13
HETATM   13  C2  LIG X 999      45.930 131.195  15.737  1.00  0.00     0.170 C 
BRANCH  13  14
HETATM   14  C1  LIG X 999      46.397 129.954  14.956  1.00  0.00     0.300 C 
BRANCH  14  15
HETATM   15  N1  LIG X 999      45.641 128.771  15.356  1.00  0.00     0.080 N 
HETATM   16  H1  LIG X 999      45.627 128.740  16.401  1.00  0.00     0.312 HD
HETATM   17  H2  LIG X 999      44.648 128.897  15.049  1.00  0.00     0.312 HD
ENDBRANCH  14  15
ENDBRANCH  13  14
BRANCH  13  18
HETATM   18  O1  LIG X 999      46.144 132.344  14.960  1.00  0.00    -0.392 OA
HETATM   19  H6  LIG X 999      45.309 132.504  14.446  1.00  0.00     0.210 HD
ENDBRANCH  13  18
ENDBRANCH  12  13
ENDBRANCH  11  12
ENDBRANCH   1  11
TORSDOF 6
ENDMDL
MODEL 3
REMARK VINA RESULT:      -6.1      3.431      5.542
REMARK  6 active torsions:
REMARK  status: ('A' for Active; 'I' for Inactive)
REMARK    1  A    between atoms: N1_1  and  C1_2 
REMARK    2  A    between atoms: C1_2  and  C2_3 
REMARK    3  A    between atoms: C2_3  and  O1_4 
REMARK    4  A    between atoms: C2_3  and  C3_5 
REMARK    5  A    between atoms: C3_5  and  O2_6 
REMARK    6  A    between atoms: O2_6  and  C4_7 
ROOT
HETATM    1  C4  LIG X 999      43.721 131.745  20.389  1.00  0.00     0.080 A 
HETATM    2  C5  LIG X 999      42.455 132.346  20.537  1.00  0.00     0.037 A 
HETATM    3  C6  LIG X 999      41.673 132.639  19.419  1.00  0.00     0.004 A 
HETATM    4  C7  LIG X 999      42.132 132.341  18.138  1.00  0.00     0.012 A 
HETATM    5  C8  LIG X 999      43.388 131.743  17.962  1.00  0.00    -0.023 A 
HETATM    6  C9  LIG X 999      43.855 131.442  16.672  1.00  0.00     0.012 A 
HETATM    7  C10 LIG X 999      45.105 130.845  16.500  1.00  0.00     0.001 A 
HETATM    8  C11 LIG X 999      45.900 130.546  17.608  1.00  0.00     0.001 A 
HETATM    9  C12 LIG X 999      45.450 130.839  18.898  1.00  0.00     0.015 A 
HETATM   10  C13 LIG X 999      44.191 131.441  19.092  1.00  0.00     0.007 A 
ENDROOT
BRANCH   1  11
HETATM   11  O2  LIG X 999      44.527 131.440  21.498  1.00  0.00    -0.348 OA
BRANCH  11  12
HETATM   12  C3  LIG X 999      44.539 130.184  22.174  1.00  0.00     0.209 C 
BRANCH  12  13
HETATM   13  C2  LIG X 999      43.589 130.241  23.374  1.00  0.00     0.170 C 
BRANCH  13  14
HETATM   14  C1  LIG X 999      43.575 131.642  24.009  1.00  0.00     0.300 C 
BRANCH  14  15
HETATM   15  N1  LIG X 999      44.933 132.101  24.291  1.00  0.00     0.080 N 
HETATM   16  H1  LIG X 999      45.464 131.296  24.695  1.00  0.00     0.312 HD
HETATM   17  H2  LIG X 999      45.395 132.335  23.381  1.00  0.00     0.312 HD
ENDBRANCH  14  15
ENDBRANCH  13  14
BRANCH  13  18
HETATM   18  O1  LIG X 999      42.294 129.908  22.946  1.00  0.00    -0.392 OA
HETATM   19  H6  LIG X 999      41.802 129.581  23.745  1.00  0.00     0.210 HD
ENDBRANCH  13  18
ENDBRANCH  12  13
ENDBRANCH  11  12
ENDBRANCH   1  11
TORSDOF 6
ENDMDL
MODEL 4
REMARK VINA RESULT:      -6.0      2.670      5.707
REMARK  6 active torsions:
REMARK  status: ('A' for Active; 'I' for Inactive)
REMARK    1  A    between atoms: N1_1  and  C1_2 
REMARK    2  A    between atoms: C1_2  and  C2_3 
REMARK    3  A    between atoms: C2_3  and  O1_4 
REMARK    4  A    between atoms: C2_3  and  C3_5 
REMARK    5  A    between atoms: C3_5  and  O2_6 
REMARK    6  A    between atoms: O2_6  and  C4_7 
ROOT
HETATM    1  C4  LIG X 999      45.395 130.790  17.225  1.00  0.00     0.080 A 
HETATM    2  C5  LIG X 999      44.138 131.420  17.322  1.00  0.00     0.037 A 
HETATM    3  C6  LIG X 999      43.473 131.858  16.176  1.00  0.00     0.004 A 
HETATM    4  C7  LIG X 999      44.044 131.679  14.917  1.00  0.00     0.012 A 
HETATM    5  C8  LIG X 999      45.293 131.054  14.793  1.00  0.00    -0.023 A 
HETATM    6  C9  LIG X 999      45.871 130.873  13.525  1.00  0.00     0.012 A 
HETATM    7  C10 LIG X 999      47.115 130.251  13.405  1.00  0.00     0.001 A 
HETATM    8  C11 LIG X 999      47.792 129.807  14.541  1.00  0.00     0.001 A 
HETATM    9  C12 LIG X 999      47.231 129.981  15.809  1.00  0.00     0.015 A 
HETATM   10  C13 LIG X 999      45.976 130.606  15.951  1.00  0.00     0.007 A 
ENDROOT
BRANCH   1  11
HETATM   11  O2  LIG X 999      46.084 130.340  18.364  1.00  0.00    -0.348 OA
BRANCH  11  12
HETATM   12  C3  LIG X 999      45.497 130.165  19.652  1.00  0.00     0.209 C 
BRANCH  12  13
HETATM   13  C2  LIG X 999      45.364 131.527  20.341  1.00  0.00     0.170 C 
BRANCH  13  14
HETATM   14  C1  LIG X 999      44.167 131.548  21.308  1.00  0.00     0.300 C 
BRANCH  14  15
HETATM   15  N1  LIG X 999      44.561 131.088  22.637  1.00  0.00     0.080 N 
HETATM   16  H1  LIG X 999      45.064 131.873  23.109  1.00  0.00     0.312 HD
HETATM   17  H2  LIG X 999      43.692 130.914  23.194  1.00  0.00     0.312 HD
ENDBRANCH  14  15
ENDBRANCH  13  14
BRANCH  13  18
HETATM   18  O1  LIG X 999      46.544 131.795  21.053  1.00  0.00    -0.392 OA
HETATM   19  H6  LIG X 999      46.272 132.175  21.929  1.00  0.00     0.210 HD
ENDBRANCH  13  18
ENDBRANCH  12  13
ENDBRANCH  11  12
ENDBRANCH   1  11
TORSDOF 6
ENDMDL
MODEL 5
REMARK VINA RESULT:      -5.3      2.992      5.991
REMARK  6 active torsions:
REMARK  status: ('A' for Active; 'I' for Inactive)
REMARK    1  A    between atoms: N1_1  and  C1_2 
REMARK    2  A    between atoms: C1_2  and  C2_3 
REMARK    3  A    between atoms: C2_3  and  O1_4 
REMARK    4  A    between atoms: C2_3  and  C3_5 
REMARK    5  A    between atoms: C3_5  and  O2_6 
REMARK    6  A    between atoms: O2_6  and  C4_7 
ROOT
HETATM    1  C4  LIG X 999      44.062 131.477  17.843  1.00  0.00     0.080 A 
HETATM    2  C5  LIG X 999      44.810 131.029  18.950  1.00  0.00     0.037 A 
HETATM    3  C6  LIG X 999      46.018 130.355  18.764  1.00  0.00     0.004 A 
HETATM    4  C7  LIG X 999      46.503 130.115  17.479  1.00  0.00     0.012 A 
HETATM    5  C8  LIG X 999      45.777 130.551  16.361  1.00  0.00    -0.023 A 
HETATM    6  C9  LIG X 999      46.262 130.310  15.065  1.00  0.00     0.012 A 
HETATM    7  C10 LIG X 999      45.539 130.746  13.954  1.00  0.00     0.001 A 
HETATM    8  C11 LIG X 999      44.329 131.421  14.123  1.00  0.00     0.001 A 
HETATM    9  C12 LIG X 999      43.833 131.668  15.406  1.00  0.00     0.015 A 
HETATM   10  C13 LIG X 999      44.549 131.237  16.540  1.00  0.00     0.007 A 
ENDROOT
BRANCH   1  11
HETATM   11  O2  LIG X 999      42.844 132.158  18.004  1.00  0.00    -0.348 OA
BRANCH  11  12
HETATM   12  C3  LIG X 999      41.779 131.730  18.852  1.00  0.00     0.209 C 
BRANCH  12  13
HETATM   13  C2  LIG X 999      41.774 132.574  20.130  1.00  0.00     0.170 C 
BRANCH  13  14
HETATM   14  C1  LIG X 999      42.756 132.013  21.174  1.00  0.00     0.300 C 
BRANCH  14  15
HETATM   15  N1  LIG X 999      42.150 131.993  22.502  1.00  0.00     0.080 N 
HETATM   16  H1  LIG X 999      41.661 131.076  22.616  1.00  0.00     0.312 HD
HETATM   17  H2  LIG X 999      42.919 132.010  23.213  1.00  0.00     0.312 HD
ENDBRANCH  14  15
ENDBRANCH  13  14
BRANCH  13  18
HETATM   18  O1  LIG X 999      42.136 133.891  19.808  1.00  0.00    -0.392 OA
HETATM   19  H6  LIG X 999      43.128 133.915  19.764  1.00  0.00     0.210 HD
ENDBRANCH  13  18
ENDBRANCH  12  13
ENDBRANCH  11  12
ENDBRANCH   1  11
TORSDOF 6
ENDMDL
MODEL 6
REMARK VINA RESULT:      -5.1      8.784     10.457
REMARK  6 active torsions:
REMARK  status: ('A' for Active; 'I' for Inactive)
REMARK    1  A    between atoms: N1_1  and  C1_2 
REMARK    2  A    between atoms: C1_2  and  C2_3 
REMARK    3  A    between atoms: C2_3  and  O1_4 
REMARK    4  A    between atoms: C2_3  and  C3_5 
REMARK    5  A    between atoms: C3_5  and  O2_6 
REMARK    6  A    between atoms: O2_6  and  C4_7 
ROOT
HETATM    1  C4  LIG X 999      51.506 136.856  22.945  1.00  0.00     0.080 A 
HETATM    2  C5  LIG X 999      52.316 137.755  23.667  1.00  0.00     0.037 A 
HETATM    3  C6  LIG X 999      52.267 139.125  23.404  1.00  0.00     0.004 A 
HETATM    4  C7  LIG X 999      51.414 139.625  22.421  1.00  0.00     0.012 A 
HETATM    5  C8  LIG X 999      50.597 138.752  21.688  1.00  0.00    -0.023 A 
HETATM    6  C9  LIG X 999      49.738 139.252  20.696  1.00  0.00     0.012 A 
HETATM    7  C10 LIG X 999      48.925 138.380  19.968  1.00  0.00     0.001 A 
HETATM    8  C11 LIG X 999      48.964 137.008  20.219  1.00  0.00     0.001 A 
HETATM    9  C12 LIG X 999      49.814 136.495  21.202  1.00  0.00     0.015 A 
HETATM   10  C13 LIG X 999      50.641 137.358  21.948  1.00  0.00     0.007 A 
ENDROOT
BRANCH   1  11
HETATM   11  O2  LIG X 999      51.538 135.474  23.191  1.00  0.00    -0.348 OA
BRANCH  11  12
HETATM   12  C3  LIG X 999      52.704 134.658  23.097  1.00  0.00     0.209 C 
BRANCH  12  13
HETATM   13  C2  LIG X 999      52.500 133.378  23.914  1.00  0.00     0.170 C 
BRANCH  13  14
HETATM   14  C1  LIG X 999      51.082 133.316  24.509  1.00  0.00     0.300 C 
BRANCH  14  15
HETATM   15  N1  LIG X 999      50.116 132.870  23.508  1.00  0.00     0.080 N 
HETATM   16  H1  LIG X 999      50.584 132.149  22.913  1.00  0.00     0.312 HD
HETATM   17  H2  LIG X 999      49.332 132.384  24.004  1.00  0.00     0.312 HD
ENDBRANCH  14  15
ENDBRANCH  13  14
BRANCH  13  18
HETATM   18  O1  LIG X 999      52.706 132.268  23.080  1.00  0.00    -0.392 OA
HETATM   19  H6  LIG X 999      53.687 132.182  22.952  1.00  0.00     0.210 HD
ENDBRANCH  13  18
ENDBRANCH  12  13
ENDBRANCH  11  12
ENDBRANCH   1  11
TORSDOF 6
ENDMDL
MODEL 7
REMARK VINA RESULT:      -4.6      4.606      6.396
REMARK  6 active torsions:
REMARK  status: ('A' for Active; 'I' for Inactive)
REMARK    1  A    between atoms: N1_1  and  C1_2 
REMARK    2  A    between atoms: C1_2  and  C2_3 
REMARK    3  A    between atoms: C2_3  and  O1_4 
REMARK    4  A    between atoms: C2_3  and  C3_5 
REMARK    5  A    between atoms: C3_5  and  O2_6 
REMARK    6  A    between atoms: O2_6  and  C4_7 
ROOT
HETATM    1  C4  LIG X 999      44.282 129.595  23.053  1.00  0.00     0.080 A 
HETATM    2  C5  LIG X 999      43.277 130.038  23.935  1.00  0.00     0.037 A 
HETATM    3  C6  LIG X 999      42.506 131.160  23.627  1.00  0.00     0.004 A 
HETATM    4  C7  LIG X 999      42.718 131.858  22.440  1.00  0.00     0.012 A 
HETATM    5  C8  LIG X 999      43.712 131.438  21.544  1.00  0.00    -0.023 A 
HETATM    6  C9  LIG X 999      43.929 132.140  20.347  1.00  0.00     0.012 A 
HETATM    7  C10 LIG X 999      44.919 131.718  19.457  1.00  0.00     0.001 A 
HETATM    8  C11 LIG X 999      45.699 130.599  19.751  1.00  0.00     0.001 A 
HETATM    9  C12 LIG X 999      45.494 129.890  20.938  1.00  0.00     0.015 A 
HETATM   10  C13 LIG X 999      44.501 130.299  21.849  1.00  0.00     0.007 A 
ENDROOT
BRANCH   1  11
HETATM   11  O2  LIG X 999      45.071 128.469  23.341  1.00  0.00    -0.348 OA
BRANCH  11  12
HETATM   12  C3  LIG X 999      45.019 127.730  24.560  1.00  0.00     0.209 C 
BRANCH  12  13
HETATM   13  C2  LIG X 999      45.475 126.290  24.304  1.00  0.00     0.170 C 
BRANCH  13  14
HETATM   14  C1  LIG X 999      44.629 125.624  23.205  1.00  0.00     0.300 C 
BRANCH  14  15
HETATM   15  N1  LIG X 999      43.239 126.066  23.277  1.00  0.00     0.080 N 
HETATM   16  H1  LIG X 999      42.944 126.030  24.280  1.00  0.00     0.312 HD
HETATM   17  H2  LIG X 999      43.200 127.073  22.992  1.00  0.00     0.312 HD
ENDBRANCH  14  15
ENDBRANCH  13  14
BRANCH  13  18
HETATM   18  O1  LIG X 999      46.823 126.302  23.913  1.00  0.00    -0.392 OA
HETATM   19  H6  LIG X 999      47.211 127.157  24.240  1.00  0.00     0.210 HD
ENDBRANCH  13  18
ENDBRANCH  12  13
ENDBRANCH  11  12
ENDBRANCH   1  11
TORSDOF 6
ENDMDL
