REMARK VINA RESULT:      -6.1      4.542      6.367
REMARK  3 active torsions:
REMARK  status: ('A' for Active; 'I' for Inactive)
REMARK    1  A    between atoms: N1_1  and  C1_2 
REMARK    2  A    between atoms: C1_2  and  C2_3 
REMARK    3  A    between atoms: C2_3  and  C3_5 
ROOT
HETATM    1  C3  LIG X 999      43.823 131.326  20.909  1.00  0.00     0.012 A 
HETATM    2  C4  LIG X 999      42.679 131.859  20.285  1.00  0.00     0.016 A 
HETATM    3  C5  LIG X 999      42.618 131.995  18.896  1.00  0.00     0.013 A 
HETATM    4  C6  LIG X 999      43.702 131.603  18.100  1.00  0.00    -0.026 A 
HETATM    5  C7  LIG X 999      43.650 131.737  16.703  1.00  0.00     0.012 A 
HETATM    6  C8  LIG X 999      44.738 131.344  15.920  1.00  0.00     0.001 A 
HETATM    7  C9  LIG X 999      45.884 130.818  16.522  1.00  0.00     0.001 A 
HETATM    8  C10 LIG X 999      45.949 130.680  17.912  1.00  0.00     0.012 A 
HETATM    9  C11 LIG X 999      44.861 131.070  18.711  1.00  0.00    -0.025 A 
HETATM   10  C12 LIG X 999      44.915 130.936  20.106  1.00  0.00     0.027 A 
ENDROOT
BRANCH   1  11
HETATM   11  C2  LIG X 999      43.865 131.192  22.390  1.00  0.00     0.187 C 
HETATM   12  O1  LIG X 999      44.506 132.041  23.069  1.00  0.00    -0.290 OA
BRANCH  11  13
HETATM   13  C1  LIG X 999      43.189 130.045  23.099  1.00  0.00     0.350 C 
BRANCH  13  14
HETATM   14  N1  LIG X 999      42.001 130.495  23.818  1.00  0.00     0.085 N 
HETATM   15  H1  LIG X 999      42.319 130.989  24.684  1.00  0.00     0.313 HD
HETATM   16  H2  LIG X 999      41.471 129.651  24.137  1.00  0.00     0.313 HD
ENDBRANCH  13  14
ENDBRANCH  11  13
ENDBRANCH   1  11
TORSDOF 3
