REMARK VINA RESULT:      -8.4      0.000      0.000
REMARK  8 active torsions:
REMARK  status: ('A' for Active; 'I' for Inactive)
REMARK    1  A    between atoms: O1_2  and  C1_3 
REMARK    2  A    between atoms: C1_3  and  C15_19 
REMARK    3  A    between atoms: N1_4  and  C2_5 
REMARK    4  A    between atoms: C2_5  and  C3_6 
REMARK    5  A    between atoms: C3_6  and  C4_7 
REMARK    6  A    between atoms: C4_7  and  O2_8 
REMARK    7  A    between atoms: O2_8  and  C5_9 
REMARK    8  A    between atoms: C15_19  and  C16_20 
ROOT
HETATM    1  C4  LIG X 999      44.769 131.609  19.625  1.00  0.00     0.177 C 
ENDROOT
BRANCH   1   2
HETATM    2  C3  LIG X 999      43.265 131.727  19.898  1.00  0.00     0.048 C 
BRANCH   2   3
HETATM    3  C2  LIG X 999      42.946 131.655  21.399  1.00  0.00     0.153 C 
BRANCH   3   4
HETATM    4  N1  LIG X 999      43.807 130.694  22.089  1.00  0.00    -0.271 NA
HETATM    5  C1  LIG X 999      43.415 129.795  22.949  1.00  0.00     0.132 C 
BRANCH   5   6
HETATM    6  O1  LIG X 999      42.076 129.667  23.334  1.00  0.00    -0.348 OA
HETATM    7  H1  LIG X 999      41.321 129.490  22.684  1.00  0.00     0.219 HD
ENDBRANCH   5   6
BRANCH   5   8
HETATM    8  C15 LIG X 999      44.423 128.851  23.540  1.00  0.00     0.089 C 
BRANCH   8   9
HETATM    9  C16 LIG X 999      44.290 127.399  23.029  1.00  0.00    -0.015 C 
HETATM   10  C17 LIG X 999      45.532 126.948  22.252  1.00  0.00     0.010 C 
HETATM   11  C18 LIG X 999      43.962 126.415  24.161  1.00  0.00     0.010 C 
ENDBRANCH   8   9
ENDBRANCH   5   8
ENDBRANCH   3   4
ENDBRANCH   2   3
ENDBRANCH   1   2
BRANCH   1  12
HETATM   12  O2  LIG X 999      45.024 130.597  18.650  1.00  0.00    -0.351 OA
BRANCH  12  13
HETATM   13  C5  LIG X 999      45.571 130.803  17.372  1.00  0.00     0.069 A 
HETATM   14  C6  LIG X 999      45.320 132.027  16.742  1.00  0.00     0.037 A 
HETATM   15  C7  LIG X 999      45.827 132.294  15.469  1.00  0.00     0.015 A 
HETATM   16  C8  LIG X 999      46.592 131.330  14.799  1.00  0.00    -0.026 A 
HETATM   17  C9  LIG X 999      47.103 131.586  13.517  1.00  0.00     0.012 A 
HETATM   18  C13 LIG X 999      46.849 130.085  15.422  1.00  0.00    -0.023 A 
HETATM   19  C10 LIG X 999      47.860 130.613  12.857  1.00  0.00     0.001 A 
HETATM   20  C11 LIG X 999      48.110 129.382  13.469  1.00  0.00     0.001 A 
HETATM   21  C12 LIG X 999      47.607 129.116  14.745  1.00  0.00     0.012 A 
HETATM   22  C14 LIG X 999      46.342 129.830  16.705  1.00  0.00     0.049 A 
ENDBRANCH  12  13
ENDBRANCH   1  12
TORSDOF 8
