MODEL 1
REMARK VINA RESULT:      -4.4      0.000      0.000
REMARK  4 active torsions:
REMARK  status: ('A' for Active; 'I' for Inactive)
REMARK    1  A    between atoms: C3_3  and  C4_4 
REMARK    2  A    between atoms: C5_7  and  N3_8 
REMARK    3  A    between atoms: C8_14  and  C9_15 
REMARK    4  A    between atoms: C10_16  and  C11_17 
ROOT
HETATM    1  N3  LIG X 999      39.003 125.382  23.833  1.00  0.00    -0.023 NA
HETATM    2  N4  LIG X 999      38.168 126.286  23.866  1.00  0.00    -0.158 NA
HETATM    3  N5  LIG X 999      37.334 127.190  23.898  1.00  0.00     0.068 N 
ENDROOT
BRANCH   1   4
HETATM    4  C5  LIG X 999      40.397 125.675  23.875  1.00  0.00     0.326 A 
HETATM    5  N2  LIG X 999      40.930 126.655  24.624  1.00  0.00    -0.099 NA
HETATM    6  N1  LIG X 999      42.234 126.614  24.398  1.00  0.00    -0.124 NA
HETATM    7  C4  LIG X 999      42.441 125.613  23.516  1.00  0.00     0.184 A 
HETATM    8  O1  LIG X 999      41.311 125.027  23.194  1.00  0.00    -0.255 OA
BRANCH   7   9
HETATM    9  C3  LIG X 999      43.808 125.206  23.000  1.00  0.00     0.054 C 
HETATM   10  C2  LIG X 999      43.597 124.219  21.861  1.00  0.00    -0.008 C 
HETATM   11  C1  LIG X 999      43.414 122.917  22.116  1.00  0.00    -0.003 C 
HETATM   12  C15 LIG X 999      43.536 122.396  23.492  1.00  0.00    -0.004 C 
HETATM   13  C14 LIG X 999      44.059 123.157  24.461  1.00  0.00    -0.021 C 
HETATM   14  C13 LIG X 999      44.641 124.517  24.138  1.00  0.00     0.030 C 
HETATM   15  C12 LIG X 999      46.126 124.335  23.747  1.00  0.00     0.027 C 
HETATM   16  C8  LIG X 999      46.758 125.660  23.302  1.00  0.00     0.066 C 
HETATM   17  C7  LIG X 999      45.982 126.245  22.116  1.00  0.00     0.019 C 
HETATM   18  C6  LIG X 999      44.519 126.489  22.498  1.00  0.00     0.024 C 
BRANCH  16  19
HETATM   19  C9  LIG X 999      48.163 125.445  22.926  1.00  0.00    -0.090 C 
HETATM   20  C10 LIG X 999      49.315 125.269  22.616  1.00  0.00     0.005 C 
BRANCH  20  21
HETATM   21  C11 LIG X 999      50.687 125.061  22.248  1.00  0.00     0.258 C 
HETATM   22  O2  LIG X 999      51.048 123.954  21.771  1.00  0.00    -0.637 OA
HETATM   23  O3  LIG X 999      51.613 126.080  22.418  1.00  0.00    -0.637 OA
ENDBRANCH  20  21
ENDBRANCH  16  19
ENDBRANCH   7   9
ENDBRANCH   1   4
TORSDOF 4
ENDMDL
MODEL 2
REMARK VINA RESULT:      -4.2      5.372      8.322
REMARK  4 active torsions:
REMARK  status: ('A' for Active; 'I' for Inactive)
REMARK    1  A    between atoms: C3_3  and  C4_4 
REMARK    2  A    between atoms: C5_7  and  N3_8 
REMARK    3  A    between atoms: C8_14  and  C9_15 
REMARK    4  A    between atoms: C10_16  and  C11_17 
ROOT
HETATM    1  N3  LIG X 999      50.477 123.386  18.799  1.00  0.00    -0.023 NA
HETATM    2  N4  LIG X 999      51.346 123.992  18.172  1.00  0.00    -0.158 NA
HETATM    3  N5  LIG X 999      52.215 124.597  17.547  1.00  0.00     0.068 N 
ENDROOT
BRANCH   1   4
HETATM    4  C5  LIG X 999      49.998 123.882  20.047  1.00  0.00     0.326 A 
HETATM    5  N2  LIG X 999      50.801 124.318  21.033  1.00  0.00    -0.099 NA
HETATM    6  N1  LIG X 999      49.996 124.691  22.015  1.00  0.00    -0.124 NA
HETATM    7  C4  LIG X 999      48.735 124.464  21.589  1.00  0.00     0.184 A 
HETATM    8  O1  LIG X 999      48.731 123.968  20.373  1.00  0.00    -0.255 OA
BRANCH   7   9
HETATM    9  C3  LIG X 999      47.495 124.775  22.403  1.00  0.00     0.054 C 
HETATM   10  C2  LIG X 999      47.915 124.890  23.861  1.00  0.00    -0.008 C 
HETATM   11  C1  LIG X 999      48.023 123.796  24.625  1.00  0.00    -0.003 C 
HETATM   12  C15 LIG X 999      47.619 122.474  24.107  1.00  0.00    -0.004 C 
HETATM   13  C14 LIG X 999      46.923 122.376  22.967  1.00  0.00    -0.021 C 
HETATM   14  C13 LIG X 999      46.439 123.622  22.256  1.00  0.00     0.030 C 
HETATM   15  C12 LIG X 999      45.061 124.014  22.836  1.00  0.00     0.027 C 
HETATM   16  C8  LIG X 999      44.551 125.332  22.238  1.00  0.00     0.066 C 
HETATM   17  C7  LIG X 999      45.560 126.458  22.501  1.00  0.00     0.019 C 
HETATM   18  C6  LIG X 999      46.919 126.117  21.883  1.00  0.00     0.024 C 
BRANCH  16  19
HETATM   19  C9  LIG X 999      43.248 125.679  22.823  1.00  0.00    -0.090 C 
HETATM   20  C10 LIG X 999      42.179 125.964  23.304  1.00  0.00     0.005 C 
BRANCH  20  21
HETATM   21  C11 LIG X 999      40.907 126.304  23.875  1.00  0.00     0.258 C 
HETATM   22  O2  LIG X 999      40.225 125.422  24.460  1.00  0.00    -0.637 OA
HETATM   23  O3  LIG X 999      40.431 127.604  23.784  1.00  0.00    -0.637 OA
ENDBRANCH  20  21
ENDBRANCH  16  19
ENDBRANCH   7   9
ENDBRANCH   1   4
TORSDOF 4
ENDMDL
MODEL 3
REMARK VINA RESULT:      -4.2      5.035      7.679
REMARK  4 active torsions:
REMARK  status: ('A' for Active; 'I' for Inactive)
REMARK    1  A    between atoms: C3_3  and  C4_4 
REMARK    2  A    between atoms: C5_7  and  N3_8 
REMARK    3  A    between atoms: C8_14  and  C9_15 
REMARK    4  A    between atoms: C10_16  and  C11_17 
ROOT
HETATM    1  N3  LIG X 999      49.662 122.617  19.935  1.00  0.00    -0.023 NA
HETATM    2  N4  LIG X 999      50.442 123.434  19.447  1.00  0.00    -0.158 NA
HETATM    3  N5  LIG X 999      51.222 124.250  18.959  1.00  0.00     0.068 N 
ENDROOT
BRANCH   1   4
HETATM    4  C5  LIG X 999      48.979 122.900  21.155  1.00  0.00     0.326 A 
HETATM    5  N2  LIG X 999      49.327 122.375  22.342  1.00  0.00    -0.099 NA
HETATM    6  N1  LIG X 999      48.469 122.869  23.220  1.00  0.00    -0.124 NA
HETATM    7  C4  LIG X 999      47.629 123.670  22.531  1.00  0.00     0.184 A 
HETATM    8  O1  LIG X 999      47.943 123.696  21.256  1.00  0.00    -0.255 OA
BRANCH   7   9
HETATM    9  C3  LIG X 999      46.498 124.458  23.163  1.00  0.00     0.054 C 
HETATM   10  C2  LIG X 999      46.063 123.717  24.418  1.00  0.00    -0.008 C 
HETATM   11  C1  LIG X 999      45.186 122.707  24.341  1.00  0.00    -0.003 C 
HETATM   12  C15 LIG X 999      44.533 122.375  23.060  1.00  0.00    -0.004 C 
HETATM   13  C14 LIG X 999      44.618 123.212  22.018  1.00  0.00    -0.021 C 
HETATM   14  C13 LIG X 999      45.284 124.563  22.174  1.00  0.00     0.030 C 
HETATM   15  C12 LIG X 999      44.224 125.580  22.654  1.00  0.00     0.027 C 
HETATM   16  C8  LIG X 999      44.847 126.953  22.937  1.00  0.00     0.066 C 
HETATM   17  C7  LIG X 999      45.954 126.825  23.992  1.00  0.00     0.019 C 
HETATM   18  C6  LIG X 999      47.046 125.865  23.511  1.00  0.00     0.024 C 
BRANCH  16  19
HETATM   19  C9  LIG X 999      43.813 127.888  23.405  1.00  0.00    -0.090 C 
HETATM   20  C10 LIG X 999      42.966 128.655  23.789  1.00  0.00     0.005 C 
BRANCH  20  21
HETATM   21  C11 LIG X 999      41.957 129.568  24.245  1.00  0.00     0.258 C 
HETATM   22  O2  LIG X 999      40.839 129.132  24.624  1.00  0.00    -0.637 OA
HETATM   23  O3  LIG X 999      42.215 130.932  24.269  1.00  0.00    -0.637 OA
ENDBRANCH  20  21
ENDBRANCH  16  19
ENDBRANCH   7   9
ENDBRANCH   1   4
TORSDOF 4
ENDMDL
MODEL 4
REMARK VINA RESULT:      -3.6      3.022      4.750
REMARK  4 active torsions:
REMARK  status: ('A' for Active; 'I' for Inactive)
REMARK    1  A    between atoms: C3_3  and  C4_4 
REMARK    2  A    between atoms: C5_7  and  N3_8 
REMARK    3  A    between atoms: C8_14  and  C9_15 
REMARK    4  A    between atoms: C10_16  and  C11_17 
ROOT
HETATM    1  N3  LIG X 999      43.385 126.321  23.432  1.00  0.00    -0.023 NA
HETATM    2  N4  LIG X 999      42.222 126.038  23.714  1.00  0.00    -0.158 NA
HETATM    3  N5  LIG X 999      41.058 125.756  23.997  1.00  0.00     0.068 N 
ENDROOT
BRANCH   1   4
HETATM    4  C5  LIG X 999      44.416 125.339  23.518  1.00  0.00     0.326 A 
HETATM    5  N2  LIG X 999      44.407 124.326  24.401  1.00  0.00    -0.099 NA
HETATM    6  N1  LIG X 999      45.516 123.640  24.174  1.00  0.00    -0.124 NA
HETATM    7  C4  LIG X 999      46.158 124.266  23.164  1.00  0.00     0.184 A 
HETATM    8  O1  LIG X 999      45.480 125.313  22.753  1.00  0.00    -0.255 OA
BRANCH   7   9
HETATM    9  C3  LIG X 999      47.470 123.793  22.570  1.00  0.00     0.054 C 
HETATM   10  C2  LIG X 999      48.137 122.880  23.588  1.00  0.00    -0.008 C 
HETATM   11  C1  LIG X 999      48.882 123.394  24.575  1.00  0.00    -0.003 C 
HETATM   12  C15 LIG X 999      49.172 124.840  24.624  1.00  0.00    -0.004 C 
HETATM   13  C14 LIG X 999      48.903 125.621  23.570  1.00  0.00    -0.021 C 
HETATM   14  C13 LIG X 999      48.409 125.015  22.274  1.00  0.00     0.030 C 
HETATM   15  C12 LIG X 999      49.635 124.618  21.420  1.00  0.00     0.027 C 
HETATM   16  C8  LIG X 999      49.215 123.898  20.132  1.00  0.00     0.066 C 
HETATM   17  C7  LIG X 999      48.394 122.646  20.468  1.00  0.00     0.019 C 
HETATM   18  C6  LIG X 999      47.142 123.024  21.265  1.00  0.00     0.024 C 
BRANCH  16  19
HETATM   19  C9  LIG X 999      50.406 123.523  19.354  1.00  0.00    -0.090 C 
HETATM   20  C10 LIG X 999      51.382 123.214  18.717  1.00  0.00     0.005 C 
BRANCH  20  21
HETATM   21  C11 LIG X 999      52.543 122.848  17.957  1.00  0.00     0.258 C 
HETATM   22  O2  LIG X 999      53.581 122.450  18.548  1.00  0.00    -0.637 OA
HETATM   23  O3  LIG X 999      52.520 122.931  16.572  1.00  0.00    -0.637 OA
ENDBRANCH  20  21
ENDBRANCH  16  19
ENDBRANCH   7   9
ENDBRANCH   1   4
TORSDOF 4
ENDMDL
MODEL 5
REMARK VINA RESULT:      -3.5      1.578      2.162
REMARK  4 active torsions:
REMARK  status: ('A' for Active; 'I' for Inactive)
REMARK    1  A    between atoms: C3_3  and  C4_4 
REMARK    2  A    between atoms: C5_7  and  N3_8 
REMARK    3  A    between atoms: C8_14  and  C9_15 
REMARK    4  A    between atoms: C10_16  and  C11_17 
ROOT
HETATM    1  N3  LIG X 999      41.133 128.103  24.513  1.00  0.00    -0.023 NA
HETATM    2  N4  LIG X 999      41.602 129.233  24.382  1.00  0.00    -0.158 NA
HETATM    3  N5  LIG X 999      42.070 130.363  24.250  1.00  0.00     0.068 N 
ENDROOT
BRANCH   1   4
HETATM    4  C5  LIG X 999      41.767 126.976  23.912  1.00  0.00     0.326 A 
HETATM    5  N2  LIG X 999      41.096 125.953  23.356  1.00  0.00    -0.099 NA
HETATM    6  N1  LIG X 999      42.019 125.114  22.912  1.00  0.00    -0.124 NA
HETATM    7  C4  LIG X 999      43.215 125.659  23.219  1.00  0.00     0.184 A 
HETATM    8  O1  LIG X 999      43.065 126.811  23.832  1.00  0.00    -0.255 OA
BRANCH   7   9
HETATM    9  C3  LIG X 999      44.550 125.031  22.867  1.00  0.00     0.054 C 
HETATM   10  C2  LIG X 999      44.286 123.912  21.871  1.00  0.00    -0.008 C 
HETATM   11  C1  LIG X 999      43.934 122.692  22.298  1.00  0.00    -0.003 C 
HETATM   12  C15 LIG X 999      43.918 122.376  23.740  1.00  0.00    -0.004 C 
HETATM   13  C14 LIG X 999      44.474 123.214  24.624  1.00  0.00    -0.021 C 
HETATM   14  C13 LIG X 999      45.231 124.436  24.149  1.00  0.00     0.030 C 
HETATM   15  C12 LIG X 999      46.703 124.035  23.897  1.00  0.00     0.027 C 
HETATM   16  C8  LIG X 999      47.512 125.199  23.312  1.00  0.00     0.066 C 
HETATM   17  C7  LIG X 999      46.877 125.679  22.000  1.00  0.00     0.019 C 
HETATM   18  C6  LIG X 999      45.435 126.137  22.237  1.00  0.00     0.024 C 
BRANCH  16  19
HETATM   19  C9  LIG X 999      48.900 124.776  23.072  1.00  0.00    -0.090 C 
HETATM   20  C10 LIG X 999      50.038 124.431  22.876  1.00  0.00     0.005 C 
BRANCH  20  21
HETATM   21  C11 LIG X 999      51.393 124.019  22.643  1.00  0.00     0.258 C 
HETATM   22  O2  LIG X 999      52.343 124.658  23.166  1.00  0.00    -0.637 OA
HETATM   23  O3  LIG X 999      51.656 122.917  21.842  1.00  0.00    -0.637 OA
ENDBRANCH  20  21
ENDBRANCH  16  19
ENDBRANCH   7   9
ENDBRANCH   1   4
TORSDOF 4
ENDMDL
MODEL 6
REMARK VINA RESULT:      -2.7      6.345      7.796
REMARK  4 active torsions:
REMARK  status: ('A' for Active; 'I' for Inactive)
REMARK    1  A    between atoms: C3_3  and  C4_4 
REMARK    2  A    between atoms: C5_7  and  N3_8 
REMARK    3  A    between atoms: C8_14  and  C9_15 
REMARK    4  A    between atoms: C10_16  and  C11_17 
ROOT
HETATM    1  N3  LIG X 999      42.403 128.883  24.364  1.00  0.00    -0.023 NA
HETATM    2  N4  LIG X 999      41.355 128.249  24.242  1.00  0.00    -0.158 NA
HETATM    3  N5  LIG X 999      40.308 127.616  24.119  1.00  0.00     0.068 N 
ENDROOT
BRANCH   1   4
HETATM    4  C5  LIG X 999      42.721 129.947  23.470  1.00  0.00     0.326 A 
HETATM    5  N2  LIG X 999      42.437 131.237  23.717  1.00  0.00    -0.099 NA
HETATM    6  N1  LIG X 999      42.881 131.912  22.668  1.00  0.00    -0.124 NA
HETATM    7  C4  LIG X 999      43.413 131.004  21.822  1.00  0.00     0.184 A 
HETATM    8  O1  LIG X 999      43.321 129.790  22.315  1.00  0.00    -0.255 OA
BRANCH   7   9
HETATM    9  C3  LIG X 999      44.060 131.356  20.497  1.00  0.00     0.054 C 
HETATM   10  C2  LIG X 999      44.132 132.873  20.405  1.00  0.00    -0.008 C 
HETATM   11  C1  LIG X 999      43.079 133.577  19.967  1.00  0.00    -0.003 C 
HETATM   12  C15 LIG X 999      41.879 132.891  19.449  1.00  0.00    -0.004 C 
HETATM   13  C14 LIG X 999      41.908 131.579  19.187  1.00  0.00    -0.021 C 
HETATM   14  C13 LIG X 999      43.203 130.803  19.304  1.00  0.00     0.030 C 
HETATM   15  C12 LIG X 999      43.951 130.891  17.955  1.00  0.00     0.027 C 
HETATM   16  C8  LIG X 999      45.327 130.216  18.028  1.00  0.00     0.066 C 
HETATM   17  C7  LIG X 999      46.176 130.860  19.131  1.00  0.00     0.019 C 
HETATM   18  C6  LIG X 999      45.479 130.732  20.489  1.00  0.00     0.024 C 
BRANCH  16  19
HETATM   19  C9  LIG X 999      46.014 130.332  16.733  1.00  0.00    -0.090 C 
HETATM   20  C10 LIG X 999      46.576 130.428  15.670  1.00  0.00     0.005 C 
BRANCH  20  21
HETATM   21  C11 LIG X 999      47.245 130.542  14.406  1.00  0.00     0.258 C 
HETATM   22  O2  LIG X 999      47.265 131.647  13.803  1.00  0.00    -0.637 OA
HETATM   23  O3  LIG X 999      47.871 129.435  13.850  1.00  0.00    -0.637 OA
ENDBRANCH  20  21
ENDBRANCH  16  19
ENDBRANCH   7   9
ENDBRANCH   1   4
TORSDOF 4
ENDMDL
MODEL 7
REMARK VINA RESULT:      -2.7      1.909      3.102
REMARK  4 active torsions:
REMARK  status: ('A' for Active; 'I' for Inactive)
REMARK    1  A    between atoms: C3_3  and  C4_4 
REMARK    2  A    between atoms: C5_7  and  N3_8 
REMARK    3  A    between atoms: C8_14  and  C9_15 
REMARK    4  A    between atoms: C10_16  and  C11_17 
ROOT
HETATM    1  N3  LIG X 999      40.147 127.095  24.370  1.00  0.00    -0.023 NA
HETATM    2  N4  LIG X 999      40.400 128.292  24.497  1.00  0.00    -0.158 NA
HETATM    3  N5  LIG X 999      40.653 129.489  24.623  1.00  0.00     0.068 N 
ENDROOT
BRANCH   1   4
HETATM    4  C5  LIG X 999      41.187 126.151  24.122  1.00  0.00     0.326 A 
HETATM    5  N2  LIG X 999      40.970 124.842  23.913  1.00  0.00    -0.099 NA
HETATM    6  N1  LIG X 999      42.164 124.304  23.721  1.00  0.00    -0.124 NA
HETATM    7  C4  LIG X 999      43.061 125.308  23.826  1.00  0.00     0.184 A 
HETATM    8  O1  LIG X 999      42.462 126.451  24.069  1.00  0.00    -0.255 OA
BRANCH   7   9
HETATM    9  C3  LIG X 999      44.557 125.132  23.651  1.00  0.00     0.054 C 
HETATM   10  C2  LIG X 999      45.251 126.074  24.624  1.00  0.00    -0.008 C 
HETATM   11  C1  LIG X 999      45.462 127.355  24.295  1.00  0.00    -0.003 C 
HETATM   12  C15 LIG X 999      45.139 127.847  22.941  1.00  0.00    -0.004 C 
HETATM   13  C14 LIG X 999      44.859 126.985  21.956  1.00  0.00    -0.021 C 
HETATM   14  C13 LIG X 999      44.983 125.494  22.184  1.00  0.00     0.030 C 
HETATM   15  C12 LIG X 999      46.438 125.070  21.877  1.00  0.00     0.027 C 
HETATM   16  C8  LIG X 999      46.671 123.586  22.187  1.00  0.00     0.066 C 
HETATM   17  C7  LIG X 999      46.350 123.296  23.659  1.00  0.00     0.019 C 
HETATM   18  C6  LIG X 999      44.894 123.654  23.973  1.00  0.00     0.024 C 
BRANCH  16  19
HETATM   19  C9  LIG X 999      48.066 123.224  21.897  1.00  0.00    -0.090 C 
HETATM   20  C10 LIG X 999      49.210 122.928  21.658  1.00  0.00     0.005 C 
BRANCH  20  21
HETATM   21  C11 LIG X 999      50.572 122.576  21.373  1.00  0.00     0.258 C 
HETATM   22  O2  LIG X 999      51.395 122.438  22.315  1.00  0.00    -0.637 OA
HETATM   23  O3  LIG X 999      50.980 122.387  20.060  1.00  0.00    -0.637 OA
ENDBRANCH  20  21
ENDBRANCH  16  19
ENDBRANCH   7   9
ENDBRANCH   1   4
TORSDOF 4
ENDMDL
MODEL 8
REMARK VINA RESULT:      -2.4      6.328      7.635
REMARK  4 active torsions:
REMARK  status: ('A' for Active; 'I' for Inactive)
REMARK    1  A    between atoms: C3_3  and  C4_4 
REMARK    2  A    between atoms: C5_7  and  N3_8 
REMARK    3  A    between atoms: C8_14  and  C9_15 
REMARK    4  A    between atoms: C10_16  and  C11_17 
ROOT
HETATM    1  N3  LIG X 999      41.025 127.979  23.904  1.00  0.00    -0.023 NA
HETATM    2  N4  LIG X 999      40.842 126.787  23.664  1.00  0.00    -0.158 NA
HETATM    3  N5  LIG X 999      40.660 125.594  23.426  1.00  0.00     0.068 N 
ENDROOT
BRANCH   1   4
HETATM    4  C5  LIG X 999      42.228 128.629  23.500  1.00  0.00     0.326 A 
HETATM    5  N2  LIG X 999      43.404 127.995  23.354  1.00  0.00    -0.099 NA
HETATM    6  N1  LIG X 999      44.269 128.922  22.972  1.00  0.00    -0.124 NA
HETATM    7  C4  LIG X 999      43.585 130.084  22.905  1.00  0.00     0.184 A 
HETATM    8  O1  LIG X 999      42.324 129.907  23.226  1.00  0.00    -0.255 OA
BRANCH   7   9
HETATM    9  C3  LIG X 999      44.196 131.406  22.482  1.00  0.00     0.054 C 
HETATM   10  C2  LIG X 999      43.058 132.345  22.112  1.00  0.00    -0.008 C 
HETATM   11  C1  LIG X 999      42.521 132.311  20.885  1.00  0.00    -0.003 C 
HETATM   12  C15 LIG X 999      43.103 131.454  19.833  1.00  0.00    -0.004 C 
HETATM   13  C14 LIG X 999      44.302 130.884  20.009  1.00  0.00    -0.021 C 
HETATM   14  C13 LIG X 999      45.129 131.204  21.236  1.00  0.00     0.030 C 
HETATM   15  C12 LIG X 999      45.985 132.456  20.937  1.00  0.00     0.027 C 
HETATM   16  C8  LIG X 999      46.776 132.906  22.173  1.00  0.00     0.066 C 
HETATM   17  C7  LIG X 999      45.819 133.201  23.335  1.00  0.00     0.019 C 
HETATM   18  C6  LIG X 999      45.000 131.956  23.687  1.00  0.00     0.024 C 
BRANCH  16  19
HETATM   19  C9  LIG X 999      47.565 134.105  21.855  1.00  0.00    -0.090 C 
HETATM   20  C10 LIG X 999      48.213 135.089  21.596  1.00  0.00     0.005 C 
BRANCH  20  21
HETATM   21  C11 LIG X 999      48.984 136.259  21.287  1.00  0.00     0.258 C 
HETATM   22  O2  LIG X 999      48.520 137.129  20.505  1.00  0.00    -0.637 OA
HETATM   23  O3  LIG X 999      50.240 136.431  21.851  1.00  0.00    -0.637 OA
ENDBRANCH  20  21
ENDBRANCH  16  19
ENDBRANCH   7   9
ENDBRANCH   1   4
TORSDOF 4
ENDMDL
MODEL 9
REMARK VINA RESULT:      -1.9      3.980      5.302
REMARK  4 active torsions:
REMARK  status: ('A' for Active; 'I' for Inactive)
REMARK    1  A    between atoms: C3_3  and  C4_4 
REMARK    2  A    between atoms: C5_7  and  N3_8 
REMARK    3  A    between atoms: C8_14  and  C9_15 
REMARK    4  A    between atoms: C10_16  and  C11_17 
ROOT
HETATM    1  N3  LIG X 999      40.747 122.408  22.944  1.00  0.00    -0.023 NA
HETATM    2  N4  LIG X 999      39.591 122.679  23.267  1.00  0.00    -0.158 NA
HETATM    3  N5  LIG X 999      38.435 122.951  23.588  1.00  0.00     0.068 N 
ENDROOT
BRANCH   1   4
HETATM    4  C5  LIG X 999      41.829 123.254  23.326  1.00  0.00     0.326 A 
HETATM    5  N2  LIG X 999      42.837 122.861  24.123  1.00  0.00    -0.099 NA
HETATM    6  N1  LIG X 999      43.633 123.912  24.244  1.00  0.00    -0.124 NA
HETATM    7  C4  LIG X 999      43.075 124.904  23.519  1.00  0.00     0.184 A 
HETATM    8  O1  LIG X 999      41.963 124.502  22.947  1.00  0.00    -0.255 OA
BRANCH   7   9
HETATM    9  C3  LIG X 999      43.679 126.286  23.366  1.00  0.00     0.054 C 
HETATM   10  C2  LIG X 999      44.519 126.286  22.097  1.00  0.00    -0.008 C 
HETATM   11  C1  LIG X 999      45.783 125.843  22.121  1.00  0.00    -0.003 C 
HETATM   12  C15 LIG X 999      46.424 125.464  23.396  1.00  0.00    -0.004 C 
HETATM   13  C14 LIG X 999      45.847 125.777  24.563  1.00  0.00    -0.021 C 
HETATM   14  C13 LIG X 999      44.594 126.624  24.595  1.00  0.00     0.030 C 
HETATM   15  C12 LIG X 999      45.008 128.113  24.625  1.00  0.00     0.027 C 
HETATM   16  C8  LIG X 999      43.788 129.040  24.552  1.00  0.00     0.066 C 
HETATM   17  C7  LIG X 999      42.981 128.755  23.279  1.00  0.00     0.019 C 
HETATM   18  C6  LIG X 999      42.510 127.298  23.257  1.00  0.00     0.024 C 
BRANCH  16  19
HETATM   19  C9  LIG X 999      44.222 130.444  24.567  1.00  0.00    -0.090 C 
HETATM   20  C10 LIG X 999      44.577 131.597  24.581  1.00  0.00     0.005 C 
BRANCH  20  21
HETATM   21  C11 LIG X 999      45.001 132.968  24.597  1.00  0.00     0.258 C 
HETATM   22  O2  LIG X 999      44.145 133.890  24.625  1.00  0.00    -0.637 OA
HETATM   23  O3  LIG X 999      46.354 133.276  24.583  1.00  0.00    -0.637 OA
ENDBRANCH  20  21
ENDBRANCH  16  19
ENDBRANCH   7   9
ENDBRANCH   1   4
TORSDOF 4
ENDMDL
