REMARK VINA RESULT:      -6.4      2.912      4.499
REMARK  2 active torsions:
REMARK  status: ('A' for Active; 'I' for Inactive)
REMARK    1  A    between atoms: C6_6  and  C7_7 
REMARK    2  A    between atoms: C7_7  and  N1_8 
ROOT
HETATM    1  N1  LIG X 999      42.367 130.468  22.737  1.00  0.00    -0.106 NA
HETATM    2  N2  LIG X 999      42.812 129.372  23.080  1.00  0.00    -0.167 NA
HETATM    3  N3  LIG X 999      43.257 128.277  23.424  1.00  0.00     0.068 N 
ENDROOT
BRANCH   1   4
HETATM    4  C7  LIG X 999      43.262 131.583  22.440  1.00  0.00     0.174 C 
HETATM    5  C8  LIG X 999      44.278 131.735  23.571  1.00  0.00     0.042 C 
BRANCH   4   6
HETATM    6  C6  LIG X 999      43.971 131.366  21.119  1.00  0.00    -0.030 A 
HETATM    7  C5  LIG X 999      43.329 131.663  19.903  1.00  0.00     0.021 A 
HETATM    8  C4  LIG X 999      43.983 131.444  18.681  1.00  0.00    -0.025 A 
HETATM    9  C3  LIG X 999      43.348 131.744  17.466  1.00  0.00     0.012 A 
HETATM   10  C11 LIG X 999      45.296 130.914  18.672  1.00  0.00    -0.026 A 
HETATM   11  C2  LIG X 999      44.009 131.522  16.255  1.00  0.00     0.001 A 
HETATM   12  C1  LIG X 999      45.306 130.999  16.246  1.00  0.00     0.001 A 
HETATM   13  C12 LIG X 999      45.948 130.694  17.450  1.00  0.00     0.012 A 
HETATM   14  C10 LIG X 999      45.928 130.610  19.886  1.00  0.00     0.013 A 
HETATM   15  C9  LIG X 999      45.269 130.831  21.098  1.00  0.00     0.010 A 
ENDBRANCH   4   6
ENDBRANCH   1   4
TORSDOF 2
