REMARK VINA RESULT:      -6.7      2.891      6.108
REMARK  1 active torsions:
REMARK  status: ('A' for Active; 'I' for Inactive)
REMARK    1  A    between atoms: C11_13  and  N2_14 
ROOT
HETATM    1  N2  LIG X 999      44.529 131.371  22.958  1.00  0.00    -0.053 NA
HETATM    2  N3  LIG X 999      43.559 130.981  23.609  1.00  0.00    -0.160 NA
HETATM    3  N4  LIG X 999      42.597 130.594  24.270  1.00  0.00     0.068 N 
ENDROOT
BRANCH   1   4
HETATM    4  C11 LIG X 999      44.573 131.315  21.527  1.00  0.00     0.175 A 
HETATM    5  C10 LIG X 999      43.599 131.759  20.625  1.00  0.00     0.026 A 
HETATM    6  C5  LIG X 999      44.115 131.484  19.400  1.00  0.00     0.017 A 
HETATM    7  C9  LIG X 999      42.340 132.363  20.732  1.00  0.00     0.016 A 
HETATM    8  C4  LIG X 999      45.331 130.907  19.540  1.00  0.00     0.046 A 
HETATM    9  C6  LIG X 999      43.490 131.754  18.203  1.00  0.00     0.005 A 
HETATM   10  C3  LIG X 999      46.114 130.503  18.358  1.00  0.00     0.033 A 
HETATM   11  N5  LIG X 999      45.633 130.793  20.850  1.00  0.00    -0.337 N 
HETATM   12  C2  LIG X 999      45.586 130.726  17.132  1.00  0.00     0.034 A 
HETATM   13  C1  LIG X 999      44.235 131.369  16.975  1.00  0.00     0.059 A 
HETATM   14  N1  LIG X 999      43.730 131.582  15.802  1.00  0.00    -0.300 NA
HETATM   15  H1  LIG X 999      44.238 131.318  14.928  1.00  0.00     0.187 HD
HETATM   16  H7  LIG X 999      46.503 130.387  21.260  1.00  0.00     0.167 HD
HETATM   17  C7  LIG X 999      42.219 132.362  18.266  1.00  0.00     0.015 A 
HETATM   18  C8  LIG X 999      41.650 132.665  19.533  1.00  0.00     0.002 A 
ENDBRANCH   1   4
TORSDOF 1
