REMARK VINA RESULT:      -6.6      1.121      2.845
REMARK  3 active torsions:
REMARK  status: ('A' for Active; 'I' for Inactive)
REMARK    1  A    between atoms: C3_3  and  N1_4 
REMARK    2  A    between atoms: N1_4  and  C6_7 
REMARK    3  A    between atoms: C6_7  and  C7_8 
ROOT
HETATM    1  C1  LIG X 999      43.125 131.580  13.853  1.00  0.00     0.013 C 
HETATM    2  C2  LIG X 999      43.958 131.607  14.724  1.00  0.00    -0.089 C 
HETATM    3  C3  LIG X 999      44.975 131.641  15.793  1.00  0.00     0.329 C 
ENDROOT
BRANCH   3   4
HETATM    4  N1  LIG X 999      45.830 130.416  15.841  1.00  0.00    -0.061 N 
HETATM    5  C4  LIG X 999      46.858 130.522  14.774  1.00  0.00     0.273 C 
HETATM    6  C5  LIG X 999      45.003 129.217  15.544  1.00  0.00     0.273 C 
BRANCH   4   7
HETATM    7  C6  LIG X 999      46.485 130.220  17.174  1.00  0.00     0.276 C 
BRANCH   7   8
HETATM    8  C7  LIG X 999      45.640 130.649  18.362  1.00  0.00    -0.032 A 
HETATM    9  C8  LIG X 999      46.038 130.324  19.669  1.00  0.00     0.010 A 
HETATM   10  C9  LIG X 999      45.265 130.712  20.766  1.00  0.00     0.013 A 
HETATM   11  C10 LIG X 999      44.074 131.424  20.573  1.00  0.00    -0.026 A 
HETATM   12  C11 LIG X 999      43.292 131.821  21.669  1.00  0.00     0.012 A 
HETATM   13  C15 LIG X 999      43.653 131.741  19.260  1.00  0.00    -0.025 A 
HETATM   14  C12 LIG X 999      42.102 132.526  21.461  1.00  0.00     0.001 A 
HETATM   15  C13 LIG X 999      41.686 132.839  20.164  1.00  0.00     0.001 A 
HETATM   16  C14 LIG X 999      42.456 132.448  19.066  1.00  0.00     0.012 A 
HETATM   17  C16 LIG X 999      44.435 131.345  18.164  1.00  0.00     0.021 A 
ENDBRANCH   7   8
ENDBRANCH   4   7
ENDBRANCH   3   4
TORSDOF 3
