REMARK VINA RESULT:      -5.1      5.476      7.781
REMARK  5 active torsions:
REMARK  status: ('A' for Active; 'I' for Inactive)
REMARK    1  A    between atoms: O1_2  and  C1_3 
REMARK    2  A    between atoms: C1_3  and  C13_17 
REMARK    3  A    between atoms: N1_4  and  C2_5 
REMARK    4  A    between atoms: C3_6  and  O2_7 
REMARK    5  A    between atoms: C13_17  and  C15_19 
ROOT
HETATM    1  C2  LIG X 999      44.439 128.047  22.831  1.00  0.00     0.103 A 
HETATM    2  C3  LIG X 999      43.528 127.985  23.908  1.00  0.00     0.097 A 
HETATM    3  C5  LIG X 999      42.806 129.137  24.272  1.00  0.00     0.040 A 
HETATM    4  C6  LIG X 999      43.006 130.343  23.601  1.00  0.00     0.015 A 
HETATM    5  C7  LIG X 999      43.936 130.426  22.559  1.00  0.00    -0.024 A 
HETATM    6  C8  LIG X 999      44.148 131.646  21.896  1.00  0.00     0.012 A 
HETATM    7  C9  LIG X 999      45.076 131.730  20.857  1.00  0.00     0.001 A 
HETATM    8  C10 LIG X 999      45.798 130.600  20.468  1.00  0.00     0.001 A 
HETATM    9  C11 LIG X 999      45.597 129.379  21.117  1.00  0.00     0.014 A 
HETATM   10  C12 LIG X 999      44.666 129.275  22.170  1.00  0.00     0.006 A 
ENDROOT
BRANCH   1  11
HETATM   11  N1  LIG X 999      45.191 126.883  22.449  1.00  0.00    -0.225 NA
HETATM   12  C1  LIG X 999      46.163 126.367  23.142  1.00  0.00     0.142 C 
BRANCH  12  13
HETATM   13  O1  LIG X 999      46.503 126.900  24.387  1.00  0.00    -0.348 OA
HETATM   14  H1  LIG X 999      47.297 126.554  24.913  1.00  0.00     0.219 HD
ENDBRANCH  12  13
BRANCH  12  15
HETATM   15  C13 LIG X 999      46.902 125.164  22.606  1.00  0.00     0.058 C 
HETATM   16  C14 LIG X 999      48.416 125.419  22.653  1.00  0.00     0.018 C 
BRANCH  15  17
HETATM   17  C15 LIG X 999      46.497 123.902  23.399  1.00  0.00     0.008 C 
HETATM   18  C16 LIG X 999      45.152 123.329  22.953  1.00  0.00     0.006 C 
ENDBRANCH  15  17
ENDBRANCH  12  15
ENDBRANCH   1  11
BRANCH   2  19
HETATM   19  O2  LIG X 999      43.384 126.775  24.606  1.00  0.00    -0.354 OA
HETATM   20  C4  LIG X 999      42.351 125.823  24.376  1.00  0.00     0.210 C 
ENDBRANCH   2  19
TORSDOF 5
