REMARK VINA RESULT:      -3.6      6.340      8.555
REMARK  6 active torsions:
REMARK  status: ('A' for Active; 'I' for Inactive)
REMARK    1  A    between atoms: C8_8  and  O1_9 
REMARK    2  A    between atoms: O1_9  and  C9_10 
REMARK    3  A    between atoms: C9_10  and  C10_11 
REMARK    4  A    between atoms: C10_11  and  C11_12 
REMARK    5  A    between atoms: C11_12  and  N1_13 
REMARK    6  A    between atoms: C13_18  and  N4_19 
ROOT
HETATM    1  N1  LIG X 999      42.541 124.598  22.556  1.00  0.00    -0.116 NA
HETATM    2  N2  LIG X 999      41.946 125.379  23.298  1.00  0.00    -0.168 NA
HETATM    3  N3  LIG X 999      41.351 126.161  24.040  1.00  0.00     0.068 N 
ENDROOT
BRANCH   1   4
HETATM    4  C11 LIG X 999      43.995 124.511  22.566  1.00  0.00     0.191 C 
BRANCH   4   5
HETATM    5  C10 LIG X 999      44.621 125.896  22.378  1.00  0.00     0.051 C 
BRANCH   5   6
HETATM    6  C9  LIG X 999      46.147 125.819  22.375  1.00  0.00     0.170 C 
BRANCH   6   7
HETATM    7  O1  LIG X 999      46.551 124.654  23.065  1.00  0.00    -0.384 OA
BRANCH   7   8
HETATM    8  C8  LIG X 999      47.880 124.297  22.718  1.00  0.00     0.146 C 
HETATM    9  C7  LIG X 999      47.916 123.883  21.237  1.00  0.00     0.072 C 
HETATM   10  C5  LIG X 999      49.311 123.834  20.656  1.00  0.00    -0.047 A 
HETATM   11  C4  LIG X 999      50.396 124.514  21.262  1.00  0.00    -0.023 A 
HETATM   12  C6  LIG X 999      49.498 123.202  19.416  1.00  0.00     0.008 A 
HETATM   13  C3  LIG X 999      51.647 124.522  20.620  1.00  0.00     0.010 A 
HETATM   14  C13 LIG X 999      50.262 125.155  22.628  1.00  0.00     0.199 C 
HETATM   15  C2  LIG X 999      51.821 123.876  19.395  1.00  0.00     0.001 A 
HETATM   16  C1  LIG X 999      50.748 123.216  18.795  1.00  0.00     0.001 A 
HETATM   17  C12 LIG X 999      48.796 125.512  22.938  1.00  0.00     0.143 C 
HETATM   18 CL1  LIG X 999      48.641 126.129  24.614  1.00  0.00    -0.120 Cl
BRANCH  14  19
HETATM   19  N4  LIG X 999      50.783 124.252  23.653  1.00  0.00    -0.104 NA
HETATM   20  N5  LIG X 999      51.992 124.157  23.873  1.00  0.00    -0.167 NA
HETATM   21  N6  LIG X 999      53.197 124.061  24.091  1.00  0.00     0.068 N 
ENDBRANCH  14  19
ENDBRANCH   7   8
ENDBRANCH   6   7
ENDBRANCH   5   6
ENDBRANCH   4   5
ENDBRANCH   1   4
TORSDOF 6
