MODEL 1
REMARK VINA RESULT:      -7.8      0.000      0.000
REMARK  1 active torsions:
REMARK  status: ('A' for Active; 'I' for Inactive)
REMARK    1  A    between atoms: C5_8  and  O1_9 
ROOT
HETATM    1  H1  LIG X 999      47.135 129.663  15.792  1.00  0.00     0.187 HD
HETATM    2  N1  LIG X 999      46.845 129.873  16.773  1.00  0.00    -0.300 NA
HETATM    3  C1  LIG X 999      45.732 130.476  17.042  1.00  0.00     0.059 A 
HETATM    4  C2  LIG X 999      44.796 130.905  15.943  1.00  0.00     0.034 A 
HETATM    5  C3  LIG X 999      43.632 131.535  16.224  1.00  0.00     0.035 A 
HETATM    6  C4  LIG X 999      43.297 131.794  17.635  1.00  0.00     0.071 A 
HETATM    7  N2  LIG X 999      42.204 132.400  18.157  1.00  0.00    -0.224 NA
HETATM    8  C5  LIG X 999      42.414 132.368  19.506  1.00  0.00     0.174 A 
HETATM    9  C6  LIG X 999      43.616 131.752  19.813  1.00  0.00     0.030 A 
HETATM   10  C7  LIG X 999      44.296 131.463  20.998  1.00  0.00     0.017 A 
HETATM   11  C8  LIG X 999      45.543 130.799  20.888  1.00  0.00     0.002 A 
HETATM   12  C9  LIG X 999      46.072 130.446  19.615  1.00  0.00     0.015 A 
HETATM   13  C10 LIG X 999      45.343 130.762  18.447  1.00  0.00     0.005 A 
HETATM   14  C11 LIG X 999      44.140 131.407  18.620  1.00  0.00     0.020 A 
ENDROOT
BRANCH   8  15
HETATM   15  O1  LIG X 999      41.525 132.890  20.438  1.00  0.00    -0.344 OA
HETATM   16  H4  LIG X 999      40.671 133.345  20.137  1.00  0.00     0.219 HD
ENDBRANCH   8  15
TORSDOF 1
ENDMDL
MODEL 2
REMARK VINA RESULT:      -6.9      1.839      3.113
REMARK  1 active torsions:
REMARK  status: ('A' for Active; 'I' for Inactive)
REMARK    1  A    between atoms: C5_8  and  O1_9 
ROOT
HETATM    1  H1  LIG X 999      43.907 131.394  14.508  1.00  0.00     0.187 HD
HETATM    2  N1  LIG X 999      43.498 131.631  15.439  1.00  0.00    -0.300 NA
HETATM    3  C1  LIG X 999      44.117 131.364  16.545  1.00  0.00     0.059 A 
HETATM    4  C2  LIG X 999      45.466 130.696  16.537  1.00  0.00     0.034 A 
HETATM    5  C3  LIG X 999      46.113 130.417  17.692  1.00  0.00     0.035 A 
HETATM    6  C4  LIG X 999      45.467 130.784  18.965  1.00  0.00     0.071 A 
HETATM    7  N2  LIG X 999      45.913 130.609  20.231  1.00  0.00    -0.224 NA
HETATM    8  C5  LIG X 999      44.920 131.129  21.012  1.00  0.00     0.174 A 
HETATM    9  C6  LIG X 999      43.878 131.617  20.241  1.00  0.00     0.030 A 
HETATM   10  C7  LIG X 999      42.657 132.232  20.519  1.00  0.00     0.017 A 
HETATM   11  C8  LIG X 999      41.843 132.595  19.417  1.00  0.00     0.002 A 
HETATM   12  C9  LIG X 999      42.266 132.337  18.082  1.00  0.00     0.015 A 
HETATM   13  C10 LIG X 999      43.512 131.711  17.857  1.00  0.00     0.005 A 
HETATM   14  C11 LIG X 999      44.255 131.384  18.967  1.00  0.00     0.020 A 
ENDROOT
BRANCH   8  15
HETATM   15  O1  LIG X 999      44.966 131.157  22.401  1.00  0.00    -0.344 OA
HETATM   16  H4  LIG X 999      45.489 131.876  22.885  1.00  0.00     0.219 HD
ENDBRANCH   8  15
TORSDOF 1
ENDMDL
MODEL 3
REMARK VINA RESULT:      -6.3      2.163      4.025
REMARK  1 active torsions:
REMARK  status: ('A' for Active; 'I' for Inactive)
REMARK    1  A    between atoms: C5_8  and  O1_9 
ROOT
HETATM    1  H1  LIG X 999      45.233 131.247  23.255  1.00  0.00     0.187 HD
HETATM    2  N1  LIG X 999      44.529 131.521  22.535  1.00  0.00    -0.300 NA
HETATM    3  C1  LIG X 999      44.749 131.361  21.269  1.00  0.00     0.059 A 
HETATM    4  C2  LIG X 999      46.042 130.768  20.775  1.00  0.00     0.034 A 
HETATM    5  C3  LIG X 999      46.272 130.601  19.452  1.00  0.00     0.035 A 
HETATM    6  C4  LIG X 999      45.226 131.014  18.500  1.00  0.00     0.071 A 
HETATM    7  N2  LIG X 999      45.228 130.946  17.147  1.00  0.00    -0.224 NA
HETATM    8  C5  LIG X 999      44.015 131.462  16.784  1.00  0.00     0.174 A 
HETATM    9  C6  LIG X 999      43.278 131.842  17.894  1.00  0.00     0.030 A 
HETATM   10  C7  LIG X 999      42.016 132.406  18.087  1.00  0.00     0.017 A 
HETATM   11  C8  LIG X 999      41.609 132.652  19.422  1.00  0.00     0.002 A 
HETATM   12  C9  LIG X 999      42.462 132.330  20.516  1.00  0.00     0.015 A 
HETATM   13  C10 LIG X 999      43.730 131.760  20.264  1.00  0.00     0.005 A 
HETATM   14  C11 LIG X 999      44.066 131.547  18.948  1.00  0.00     0.020 A 
ENDROOT
BRANCH   8  15
HETATM   15  O1  LIG X 999      43.592 131.582  15.466  1.00  0.00    -0.344 OA
HETATM   16  H4  LIG X 999      44.208 131.966  14.760  1.00  0.00     0.219 HD
ENDBRANCH   8  15
TORSDOF 1
ENDMDL
MODEL 4
REMARK VINA RESULT:      -6.3      2.227      3.797
REMARK  1 active torsions:
REMARK  status: ('A' for Active; 'I' for Inactive)
REMARK    1  A    between atoms: C5_8  and  O1_9 
ROOT
HETATM    1  H1  LIG X 999      41.021 132.845  21.792  1.00  0.00     0.187 HD
HETATM    2  N1  LIG X 999      41.974 132.448  21.633  1.00  0.00    -0.300 NA
HETATM    3  C1  LIG X 999      42.433 132.233  20.442  1.00  0.00     0.059 A 
HETATM    4  C2  LIG X 999      41.607 132.549  19.223  1.00  0.00     0.034 A 
HETATM    5  C3  LIG X 999      42.087 132.324  17.977  1.00  0.00     0.035 A 
HETATM    6  C4  LIG X 999      43.442 131.762  17.838  1.00  0.00     0.071 A 
HETATM    7  N2  LIG X 999      44.128 131.455  16.711  1.00  0.00    -0.224 NA
HETATM    8  C5  LIG X 999      45.322 130.972  17.167  1.00  0.00     0.174 A 
HETATM    9  C6  LIG X 999      45.372 130.980  18.551  1.00  0.00     0.030 A 
HETATM   10  C7  LIG X 999      46.325 130.606  19.500  1.00  0.00     0.017 A 
HETATM   11  C8  LIG X 999      45.986 130.775  20.866  1.00  0.00     0.002 A 
HETATM   12  C9  LIG X 999      44.720 131.306  21.243  1.00  0.00     0.015 A 
HETATM   13  C10 LIG X 999      43.792 131.667  20.242  1.00  0.00     0.005 A 
HETATM   14  C11 LIG X 999      44.180 131.480  18.936  1.00  0.00     0.020 A 
ENDROOT
BRANCH   8  15
HETATM   15  O1  LIG X 999      46.344 130.532  16.334  1.00  0.00    -0.344 OA
HETATM   16  H4  LIG X 999      46.943 129.766  16.613  1.00  0.00     0.219 HD
ENDBRANCH   8  15
TORSDOF 1
ENDMDL
MODEL 5
REMARK VINA RESULT:      -5.8      2.345      4.852
REMARK  1 active torsions:
REMARK  status: ('A' for Active; 'I' for Inactive)
REMARK    1  A    between atoms: C5_8  and  O1_9 
ROOT
HETATM    1  H1  LIG X 999      41.471 132.698  22.912  1.00  0.00     0.187 HD
HETATM    2  N1  LIG X 999      41.636 132.600  21.885  1.00  0.00    -0.300 NA
HETATM    3  C1  LIG X 999      42.722 132.076  21.415  1.00  0.00     0.059 A 
HETATM    4  C2  LIG X 999      43.805 131.579  22.336  1.00  0.00     0.034 A 
HETATM    5  C3  LIG X 999      44.941 131.031  21.845  1.00  0.00     0.035 A 
HETATM    6  C4  LIG X 999      45.096 130.929  20.383  1.00  0.00     0.071 A 
HETATM    7  N2  LIG X 999      46.129 130.425  19.667  1.00  0.00    -0.224 NA
HETATM    8  C5  LIG X 999      45.743 130.582  18.365  1.00  0.00     0.174 A 
HETATM    9  C6  LIG X 999      44.494 131.174  18.280  1.00  0.00     0.030 A 
HETATM   10  C7  LIG X 999      43.657 131.551  17.228  1.00  0.00     0.017 A 
HETATM   11  C8  LIG X 999      42.416 132.147  17.564  1.00  0.00     0.002 A 
HETATM   12  C9  LIG X 999      42.047 132.348  18.924  1.00  0.00     0.015 A 
HETATM   13  C10 LIG X 999      42.932 131.948  19.950  1.00  0.00     0.005 A 
HETATM   14  C11 LIG X 999      44.120 131.376  19.560  1.00  0.00     0.020 A 
ENDROOT
BRANCH   8  15
HETATM   15  O1  LIG X 999      46.518 130.193  17.279  1.00  0.00    -0.344 OA
HETATM   16  H4  LIG X 999      46.763 130.858  16.556  1.00  0.00     0.219 HD
ENDBRANCH   8  15
TORSDOF 1
ENDMDL
MODEL 6
REMARK VINA RESULT:      -5.7      2.210      3.973
REMARK  1 active torsions:
REMARK  status: ('A' for Active; 'I' for Inactive)
REMARK    1  A    between atoms: C5_8  and  O1_9 
ROOT
HETATM    1  H1  LIG X 999      44.251 131.283  24.563  1.00  0.00     0.187 HD
HETATM    2  N1  LIG X 999      44.631 131.117  23.604  1.00  0.00    -0.300 NA
HETATM    3  C1  LIG X 999      43.971 131.449  22.541  1.00  0.00     0.059 A 
HETATM    4  C2  LIG X 999      42.613 132.091  22.640  1.00  0.00     0.034 A 
HETATM    5  C3  LIG X 999      41.922 132.437  21.529  1.00  0.00     0.035 A 
HETATM    6  C4  LIG X 999      42.530 132.171  20.213  1.00  0.00     0.071 A 
HETATM    7  N2  LIG X 999      42.038 132.425  18.977  1.00  0.00    -0.224 NA
HETATM    8  C5  LIG X 999      43.012 131.977  18.130  1.00  0.00     0.174 A 
HETATM    9  C6  LIG X 999      44.087 131.455  18.831  1.00  0.00     0.030 A 
HETATM   10  C7  LIG X 999      45.307 130.882  18.470  1.00  0.00     0.017 A 
HETATM   11  C8  LIG X 999      46.163 130.459  19.517  1.00  0.00     0.002 A 
HETATM   12  C9  LIG X 999      45.782 130.617  20.880  1.00  0.00     0.015 A 
HETATM   13  C10 LIG X 999      44.536 131.203  21.189  1.00  0.00     0.005 A 
HETATM   14  C11 LIG X 999      43.751 131.593  20.129  1.00  0.00     0.020 A 
ENDROOT
BRANCH   8  15
HETATM   15  O1  LIG X 999      42.919 132.044  16.745  1.00  0.00    -0.344 OA
HETATM   16  H4  LIG X 999      43.299 131.306  16.166  1.00  0.00     0.219 HD
ENDBRANCH   8  15
TORSDOF 1
ENDMDL
MODEL 7
REMARK VINA RESULT:      -5.5      1.824      3.396
REMARK  1 active torsions:
REMARK  status: ('A' for Active; 'I' for Inactive)
REMARK    1  A    between atoms: C5_8  and  O1_9 
ROOT
HETATM    1  H1  LIG X 999      46.486 130.443  17.034  1.00  0.00     0.187 HD
HETATM    2  N1  LIG X 999      45.592 130.877  17.356  1.00  0.00    -0.300 NA
HETATM    3  C1  LIG X 999      45.258 130.906  18.606  1.00  0.00     0.059 A 
HETATM    4  C2  LIG X 999      46.151 130.310  19.662  1.00  0.00     0.034 A 
HETATM    5  C3  LIG X 999      45.803 130.341  20.970  1.00  0.00     0.035 A 
HETATM    6  C4  LIG X 999      44.524 130.972  21.340  1.00  0.00     0.071 A 
HETATM    7  N2  LIG X 999      43.969 131.122  22.566  1.00  0.00    -0.224 NA
HETATM    8  C5  LIG X 999      42.792 131.772  22.325  1.00  0.00     0.174 A 
HETATM    9  C6  LIG X 999      42.623 132.019  20.972  1.00  0.00     0.030 A 
HETATM   10  C7  LIG X 999      41.632 132.633  20.204  1.00  0.00     0.017 A 
HETATM   11  C8  LIG X 999      41.836 132.690  18.802  1.00  0.00     0.002 A 
HETATM   12  C9  LIG X 999      43.009 132.140  18.213  1.00  0.00     0.015 A 
HETATM   13  C10 LIG X 999      43.980 131.530  19.037  1.00  0.00     0.005 A 
HETATM   14  C11 LIG X 999      43.724 131.506  20.388  1.00  0.00     0.020 A 
ENDROOT
BRANCH   8  15
HETATM   15  O1  LIG X 999      41.891 132.131  23.320  1.00  0.00    -0.344 OA
HETATM   16  H4  LIG X 999      42.156 132.088  24.296  1.00  0.00     0.219 HD
ENDBRANCH   8  15
TORSDOF 1
ENDMDL
MODEL 8
REMARK VINA RESULT:      -5.0      7.943      9.019
REMARK  1 active torsions:
REMARK  status: ('A' for Active; 'I' for Inactive)
REMARK    1  A    between atoms: C5_8  and  O1_9 
ROOT
HETATM    1  H1  LIG X 999      53.021 135.048  25.073  1.00  0.00     0.187 HD
HETATM    2  N1  LIG X 999      52.127 134.878  24.561  1.00  0.00    -0.300 NA
HETATM    3  C1  LIG X 999      51.690 135.698  23.660  1.00  0.00     0.059 A 
HETATM    4  C2  LIG X 999      52.458 136.944  23.307  1.00  0.00     0.034 A 
HETATM    5  C3  LIG X 999      52.002 137.802  22.365  1.00  0.00     0.035 A 
HETATM    6  C4  LIG X 999      50.731 137.489  21.688  1.00  0.00     0.071 A 
HETATM    7  N2  LIG X 999      50.082 138.186  20.724  1.00  0.00    -0.224 NA
HETATM    8  C5  LIG X 999      48.965 137.442  20.467  1.00  0.00     0.174 A 
HETATM    9  C6  LIG X 999      48.925 136.306  21.258  1.00  0.00     0.030 A 
HETATM   10  C7  LIG X 999      48.037 135.238  21.396  1.00  0.00     0.017 A 
HETATM   11  C8  LIG X 999      48.362 134.239  22.347  1.00  0.00     0.002 A 
HETATM   12  C9  LIG X 999      49.550 134.331  23.125  1.00  0.00     0.015 A 
HETATM   13  C10 LIG X 999      50.415 135.433  22.945  1.00  0.00     0.005 A 
HETATM   14  C11 LIG X 999      50.044 136.368  22.008  1.00  0.00     0.020 A 
ENDROOT
BRANCH   8  15
HETATM   15  O1  LIG X 999      48.003 137.796  19.528  1.00  0.00    -0.344 OA
HETATM   16  H4  LIG X 999      48.273 138.067  18.591  1.00  0.00     0.219 HD
ENDBRANCH   8  15
TORSDOF 1
ENDMDL
MODEL 9
REMARK VINA RESULT:      -4.9      1.842      2.722
REMARK  1 active torsions:
REMARK  status: ('A' for Active; 'I' for Inactive)
REMARK    1  A    between atoms: C5_8  and  O1_9 
ROOT
HETATM    1  H1  LIG X 999      47.122 129.216  20.097  1.00  0.00     0.187 HD
HETATM    2  N1  LIG X 999      46.401 129.570  20.766  1.00  0.00    -0.300 NA
HETATM    3  C1  LIG X 999      45.436 130.342  20.382  1.00  0.00     0.059 A 
HETATM    4  C2  LIG X 999      45.307 130.767  18.943  1.00  0.00     0.034 A 
HETATM    5  C3  LIG X 999      44.297 131.575  18.542  1.00  0.00     0.035 A 
HETATM    6  C4  LIG X 999      43.321 132.030  19.547  1.00  0.00     0.071 A 
HETATM    7  N2  LIG X 999      42.241 132.831  19.387  1.00  0.00    -0.224 NA
HETATM    8  C5  LIG X 999      41.702 132.921  20.639  1.00  0.00     0.174 A 
HETATM    9  C6  LIG X 999      42.437 132.189  21.557  1.00  0.00     0.030 A 
HETATM   10  C7  LIG X 999      42.331 131.945  22.927  1.00  0.00     0.017 A 
HETATM   11  C8  LIG X 999      43.315 131.112  23.519  1.00  0.00     0.002 A 
HETATM   12  C9  LIG X 999      44.364 130.553  22.736  1.00  0.00     0.015 A 
HETATM   13  C10 LIG X 999      44.423 130.832  21.353  1.00  0.00     0.005 A 
HETATM   14  C11 LIG X 999      43.441 131.646  20.839  1.00  0.00     0.020 A 
ENDROOT
BRANCH   8  15
HETATM   15  O1  LIG X 999      40.561 133.658  20.937  1.00  0.00    -0.344 OA
HETATM   16  H4  LIG X 999      40.538 134.269  21.743  1.00  0.00     0.219 HD
ENDBRANCH   8  15
TORSDOF 1
ENDMDL
