REMARK VINA RESULT:      -6.9      1.479      2.871
REMARK  3 active torsions:
REMARK  status: ('A' for Active; 'I' for Inactive)
REMARK       I    between atoms: N1_2  and  C3_4 
REMARK    1  A    between atoms: C3_4  and  O2_6 
REMARK    2  A    between atoms: O2_6  and  C4_7 
REMARK    3  A    between atoms: C7_10  and  N2_11 
ROOT
HETATM    1  C4  LIG X 999      44.835 131.148  17.134  1.00  0.00     0.092 A 
HETATM    2  C5  LIG X 999      43.696 131.593  16.449  1.00  0.00     0.040 A 
HETATM    3  C6  LIG X 999      42.575 132.033  17.147  1.00  0.00     0.033 A 
HETATM    4  C7  LIG X 999      42.557 132.054  18.548  1.00  0.00     0.037 A 
HETATM    5  C8  LIG X 999      43.715 131.652  19.265  1.00  0.00     0.003 A 
HETATM    6  C9  LIG X 999      43.786 131.710  20.674  1.00  0.00     0.014 A 
HETATM    7  C10 LIG X 999      44.937 131.302  21.350  1.00  0.00     0.001 A 
HETATM    8  C11 LIG X 999      46.041 130.837  20.639  1.00  0.00     0.001 A 
HETATM    9  C12 LIG X 999      46.006 130.784  19.247  1.00  0.00     0.015 A 
HETATM   10  C13 LIG X 999      44.857 131.193  18.543  1.00  0.00     0.010 A 
ENDROOT
BRANCH   1  11
HETATM   11  O2  LIG X 999      45.973 130.703  16.440  1.00  0.00    -0.261 OA
BRANCH  11  12
HETATM   12  C3  LIG X 999      46.503 131.293  15.283  1.00  0.00     0.367 C 
HETATM   13  N1  LIG X 999      47.120 130.466  14.282  1.00  0.00    -0.336 N 
HETATM   14  C1  LIG X 999      47.660 131.074  13.064  1.00  0.00     0.154 C 
HETATM   15  C2  LIG X 999      47.203 129.020  14.502  1.00  0.00     0.154 C 
HETATM   16  O1  LIG X 999      46.397 132.536  15.095  1.00  0.00    -0.238 OA
ENDBRANCH  11  12
ENDBRANCH   1  11
BRANCH   4  17
HETATM   17  N2  LIG X 999      41.350 132.481  19.200  1.00  0.00    -0.398 N 
HETATM   18  H9  LIG X 999      41.307 133.414  19.667  1.00  0.00     0.156 HD
HETATM   19  H10 LIG X 999      40.454 131.952  19.148  1.00  0.00     0.156 HD
ENDBRANCH   4  17
TORSDOF 3
