REMARK VINA RESULT:      -8.4      0.000      0.000
REMARK  1 active torsions:
REMARK  status: ('A' for Active; 'I' for Inactive)
REMARK    1  A    between atoms: C8_9  and  N2_10 
ROOT
HETATM    1  C1  LIG X 999      46.385 131.675  14.904  1.00  0.00     0.283 C 
HETATM    2  N1  LIG X 999      45.598 130.698  15.686  1.00  0.00    -0.005 N 
HETATM    3  C2  LIG X 999      45.241 129.533  14.851  1.00  0.00     0.283 C 
HETATM    4  C3  LIG X 999      46.333 130.276  16.925  1.00  0.00     0.286 A 
HETATM    5  C4  LIG X 999      45.476 130.705  18.075  1.00  0.00    -0.015 A 
HETATM    6  C5  LIG X 999      45.720 130.541  19.439  1.00  0.00     0.022 A 
HETATM    7  C6  LIG X 999      44.768 131.028  20.358  1.00  0.00    -0.023 A 
HETATM    8  C7  LIG X 999      44.972 130.885  21.739  1.00  0.00     0.041 A 
HETATM    9  C8  LIG X 999      44.022 131.370  22.650  1.00  0.00     0.026 A 
HETATM   10  C9  LIG X 999      42.862 132.001  22.177  1.00  0.00     0.030 A 
HETATM   11  C10 LIG X 999      42.644 132.150  20.805  1.00  0.00     0.014 A 
HETATM   12  C11 LIG X 999      43.586 131.670  19.885  1.00  0.00    -0.025 A 
HETATM   13  C12 LIG X 999      43.374 131.817  18.500  1.00  0.00     0.030 A 
HETATM   14  C13 LIG X 999      44.344 131.321  17.630  1.00  0.00     0.049 A 
HETATM   15  C14 LIG X 999      44.400 131.326  16.194  1.00  0.00     0.351 A 
HETATM   16  O1  LIG X 999      43.504 131.822  15.456  1.00  0.00    -0.259 OA
ENDROOT
BRANCH   9  17
HETATM   17  N2  LIG X 999      44.235 131.222  24.055  1.00  0.00    -0.399 N 
HETATM   18  H11 LIG X 999      44.108 130.295  24.521  1.00  0.00     0.156 HD
HETATM   19  H12 LIG X 999      44.522 132.037  24.643  1.00  0.00     0.156 HD
ENDBRANCH   9  17
TORSDOF 1
