REMARK VINA RESULT:      -6.4      3.521      5.897
REMARK  1 active torsions:
REMARK  status: ('A' for Active; 'I' for Inactive)
REMARK    1  A    between atoms: N1_1  and  C1_2 
ROOT
HETATM    1  C1  LIG X 999      42.895 131.732  22.731  1.00  0.00     0.103 A 
HETATM    2  C2  LIG X 999      42.131 132.204  21.659  1.00  0.00     0.049 A 
HETATM    3  C3  LIG X 999      42.598 132.042  20.351  1.00  0.00     0.001 A 
HETATM    4  C4  LIG X 999      41.858 132.503  19.256  1.00  0.00     0.015 A 
HETATM    5  C5  LIG X 999      42.343 132.331  17.958  1.00  0.00     0.013 A 
HETATM    6  C6  LIG X 999      43.574 131.695  17.739  1.00  0.00    -0.023 A 
HETATM    7  C7  LIG X 999      44.060 131.523  16.433  1.00  0.00     0.012 A 
HETATM    8  C8  LIG X 999      45.287 130.891  16.217  1.00  0.00     0.001 A 
HETATM    9  C9  LIG X 999      46.037 130.426  17.299  1.00  0.00     0.001 A 
HETATM   10  C10 LIG X 999      45.567 130.589  18.604  1.00  0.00     0.015 A 
HETATM   11  C11 LIG X 999      44.334 131.224  18.841  1.00  0.00     0.009 A 
HETATM   12  C12 LIG X 999      43.841 131.400  20.150  1.00  0.00     0.101 A 
HETATM   13  O1  LIG X 999      44.537 130.965  21.200  1.00  0.00    -0.272 OA
HETATM   14  C13 LIG X 999      44.121 131.104  22.454  1.00  0.00     0.314 A 
HETATM   15  O2  LIG X 999      44.838 130.665  23.392  1.00  0.00    -0.257 OA
ENDROOT
BRANCH   1  16
HETATM   16  N1  LIG X 999      42.426 131.893  24.074  1.00  0.00    -0.394 N 
HETATM   17  H1  LIG X 999      41.612 132.510  24.293  1.00  0.00     0.156 HD
HETATM   18  H2  LIG X 999      42.891 131.394  24.865  1.00  0.00     0.156 HD
ENDBRANCH   1  16
TORSDOF 1
