REMARK VINA RESULT:      -6.0      2.559      8.084
REMARK  4 active torsions:
REMARK  status: ('A' for Active; 'I' for Inactive)
REMARK    1  A    between atoms: C2_2  and  N1_3 
REMARK    2  A    between atoms: C3_6  and  O1_7 
REMARK    3  A    between atoms: O1_7  and  C4_8 
REMARK    4  A    between atoms: C4_8  and  C5_9 
ROOT
HETATM    1  N1  LIG X 999      44.459 129.607  23.720  1.00  0.00    -0.070 NA
HETATM    2  N2  LIG X 999      44.629 128.398  23.892  1.00  0.00    -0.162 NA
HETATM    3  N3  LIG X 999      44.798 127.193  24.067  1.00  0.00     0.068 N 
ENDROOT
BRANCH   1   4
HETATM    4  C2  LIG X 999      44.363 130.192  22.411  1.00  0.00     0.127 A 
HETATM    5  C1  LIG X 999      45.163 129.736  21.347  1.00  0.00     0.049 A 
HETATM    6  C14 LIG X 999      45.054 130.317  20.077  1.00  0.00    -0.023 A 
HETATM    7  C9  LIG X 999      44.130 131.377  19.866  1.00  0.00    -0.022 A 
HETATM    8  C13 LIG X 999      45.854 129.863  19.010  1.00  0.00     0.021 A 
HETATM    9  C8  LIG X 999      43.337 131.828  20.930  1.00  0.00     0.051 A 
HETATM   10  C10 LIG X 999      44.019 131.966  18.591  1.00  0.00     0.021 A 
HETATM   11  C3  LIG X 999      43.447 131.237  22.206  1.00  0.00     0.102 A 
HETATM   12  C11 LIG X 999      44.824 131.482  17.559  1.00  0.00    -0.024 A 
HETATM   13  C12 LIG X 999      45.709 130.467  17.761  1.00  0.00    -0.024 A 
HETATM   14  C18 LIG X 999      44.891 131.959  16.161  1.00  0.00     0.276 C 
HETATM   15  C15 LIG X 999      46.452 130.170  16.518  1.00  0.00     0.276 C 
HETATM   16  N4  LIG X 999      45.813 131.013  15.456  1.00  0.00    -0.067 N 
HETATM   17  C16 LIG X 999      46.840 131.757  14.691  1.00  0.00     0.272 C 
HETATM   18  C17 LIG X 999      45.044 130.156  14.522  1.00  0.00     0.272 C 
BRANCH  11  19
HETATM   19  O1  LIG X 999      42.665 131.661  23.296  1.00  0.00    -0.337 OA
BRANCH  19  20
HETATM   20  C4  LIG X 999      43.138 131.870  24.625  1.00  0.00     0.269 C 
BRANCH  20  21
HETATM   21  C5  LIG X 999      44.305 132.758  24.619  1.00  0.00    -0.080 C 
HETATM   22  C6  LIG X 999      45.266 133.487  24.619  1.00  0.00    -0.109 C 
HETATM   23  C7  LIG X 999      46.431 134.371  24.625  1.00  0.00     0.112 C 
ENDBRANCH  20  21
ENDBRANCH  19  20
ENDBRANCH  11  19
ENDBRANCH   1   4
TORSDOF 4
