REMARK VINA RESULT:      -4.7      4.750      6.946
REMARK  5 active torsions:
REMARK  status: ('A' for Active; 'I' for Inactive)
REMARK    1  A    between atoms: O1_2  and  C1_3 
REMARK    2  A    between atoms: C1_3  and  O4_19 
REMARK       I    between atoms: N1_4  and  C2_5 
REMARK    3  A    between atoms: C2_5  and  C3_7 
REMARK    4  A    between atoms: C4_8  and  O3_9 
REMARK    5  A    between atoms: O4_19  and  C13_20 
ROOT
HETATM    1  C3  LIG X 999      43.642 131.549  17.453  1.00  0.00     0.068 A 
HETATM    2  C4  LIG X 999      42.481 132.121  18.010  1.00  0.00     0.082 A 
HETATM    3  C5  LIG X 999      42.320 132.164  19.403  1.00  0.00     0.049 A 
HETATM    4  C6  LIG X 999      43.317 131.660  20.249  1.00  0.00    -0.023 A 
HETATM    5  C7  LIG X 999      43.160 131.704  21.644  1.00  0.00     0.012 A 
HETATM    6  C8  LIG X 999      44.163 131.204  22.478  1.00  0.00     0.001 A 
HETATM    7  C9  LIG X 999      45.327 130.658  21.930  1.00  0.00     0.001 A 
HETATM    8  C10 LIG X 999      45.495 130.610  20.543  1.00  0.00     0.012 A 
HETATM    9  C11 LIG X 999      44.494 131.109  19.694  1.00  0.00    -0.025 A 
HETATM   10  C12 LIG X 999      44.651 131.062  18.301  1.00  0.00     0.032 A 
ENDROOT
BRANCH   1  11
HETATM   11  C2  LIG X 999      43.837 131.482  15.984  1.00  0.00     0.283 C 
HETATM   12  N1  LIG X 999      44.901 130.729  15.384  1.00  0.00    -0.162 NA
HETATM   13  C1  LIG X 999      46.100 130.588  15.870  1.00  0.00     0.289 C 
HETATM   14  O2  LIG X 999      43.020 132.076  15.231  1.00  0.00    -0.265 OA
BRANCH  13  15
HETATM   15  O1  LIG X 999      46.478 131.260  17.030  1.00  0.00    -0.325 OA
HETATM   16  H1  LIG X 999      45.805 131.812  17.548  1.00  0.00     0.221 HD
ENDBRANCH  13  15
BRANCH  13  17
HETATM   17  O4  LIG X 999      47.046 129.781  15.221  1.00  0.00    -0.294 OA
BRANCH  17  18
HETATM   18  C13 LIG X 999      47.374 129.841  13.829  1.00  0.00     0.224 C 
HETATM   19 CL1  LIG X 999      48.978 129.119  13.507  1.00  0.00    -0.095 Cl
HETATM   20  C14 LIG X 999      47.300 131.271  13.299  1.00  0.00     0.057 C 
ENDBRANCH  17  18
ENDBRANCH  13  17
ENDBRANCH   1  11
BRANCH   2  21
HETATM   21  O3  LIG X 999      41.496 132.663  17.183  1.00  0.00    -0.360 OA
HETATM   22  H2  LIG X 999      41.715 133.355  16.477  1.00  0.00     0.217 HD
ENDBRANCH   2  21
TORSDOF 5
