REMARK VINA RESULT:      -4.0      2.873      5.750
REMARK  3 active torsions:
REMARK  status: ('A' for Active; 'I' for Inactive)
REMARK    1  A    between atoms: C3_3  and  S1_4 
REMARK    2  A    between atoms: S1_4  and  C4_7 
REMARK    3  A    between atoms: C6_9  and  N1_10 
ROOT
HETATM    1  C1  LIG X 999      43.673 130.329  22.979  1.00  0.00     0.013 C 
HETATM    2  C2  LIG X 999      43.533 129.168  23.271  1.00  0.00    -0.102 C 
HETATM    3  C3  LIG X 999      43.365 127.758  23.629  1.00  0.00     0.233 C 
ENDROOT
BRANCH   3   4
HETATM    4  S1  LIG X 999      44.720 126.784  22.990  1.00  0.00     0.160 S 
HETATM    5  O1  LIG X 999      45.475 127.625  22.000  1.00  0.00    -0.227 OA
HETATM    6  O2  LIG X 999      45.633 126.454  24.137  1.00  0.00    -0.227 OA
BRANCH   4   7
HETATM    7  C4  LIG X 999      44.155 125.243  22.216  1.00  0.00     0.123 C 
HETATM    8  C5  LIG X 999      42.764 124.827  22.730  1.00  0.00     0.055 C 
HETATM    9  C6  LIG X 999      42.782 124.422  24.218  1.00  0.00     0.170 C 
HETATM   10  C7  LIG X 999      44.010 123.639  24.625  1.00  0.00     0.011 C 
HETATM   11  C8  LIG X 999      45.119 123.572  23.872  1.00  0.00    -0.050 C 
HETATM   12  C9  LIG X 999      46.360 122.991  24.435  1.00  0.00     0.017 C 
HETATM   13  C13 LIG X 999      45.117 124.053  22.420  1.00  0.00     0.060 C 
HETATM   14  C10 LIG X 999      47.503 123.169  23.774  1.00  0.00    -0.024 C 
HETATM   15  C11 LIG X 999      47.580 123.866  22.527  1.00  0.00    -0.027 C 
HETATM   16  C17 LIG X 999      48.861 122.739  24.178  1.00  0.00     0.276 C 
HETATM   17  C12 LIG X 999      46.507 124.326  21.880  1.00  0.00    -0.007 C 
HETATM   18  C14 LIG X 999      48.993 123.934  22.090  1.00  0.00     0.275 C 
HETATM   19  N4  LIG X 999      49.804 123.436  23.247  1.00  0.00    -0.067 N 
HETATM   20  C15 LIG X 999      50.441 124.581  23.942  1.00  0.00     0.272 C 
HETATM   21  C16 LIG X 999      50.861 122.508  22.784  1.00  0.00     0.272 C 
BRANCH   9  22
HETATM   22  N1  LIG X 999      41.591 123.633  24.520  1.00  0.00    -0.106 NA
HETATM   23  N2  LIG X 999      40.483 123.965  24.099  1.00  0.00    -0.167 NA
HETATM   24  N3  LIG X 999      39.375 124.296  23.681  1.00  0.00     0.068 N 
ENDBRANCH   9  22
ENDBRANCH   4   7
ENDBRANCH   3   4
TORSDOF 3
