REMARK VINA RESULT:      -7.8      1.142      2.345
REMARK  3 active torsions:
REMARK  status: ('A' for Active; 'I' for Inactive)
REMARK    1  A    between atoms: C2_2  and  C3_3 
REMARK       I    between atoms: C3_3  and  N1_5 
REMARK    2  A    between atoms: N1_5  and  C4_6 
REMARK    3  A    between atoms: C4_6  and  C6_8 
ROOT
HETATM    1  C6  LIG X 999      44.982 131.099  19.184  1.00  0.00    -0.035 A 
HETATM    2  C7  LIG X 999      43.769 131.690  18.787  1.00  0.00     0.010 A 
HETATM    3  C8  LIG X 999      43.447 131.812  17.434  1.00  0.00     0.013 A 
HETATM    4  C9  LIG X 999      44.335 131.351  16.453  1.00  0.00    -0.026 A 
HETATM    5  C10 LIG X 999      44.020 131.469  15.090  1.00  0.00     0.012 A 
HETATM    6  C11 LIG X 999      44.916 131.008  14.121  1.00  0.00     0.001 A 
HETATM    7  C12 LIG X 999      46.129 130.429  14.503  1.00  0.00     0.001 A 
HETATM    8  C13 LIG X 999      46.454 130.306  15.856  1.00  0.00     0.012 A 
HETATM    9  C14 LIG X 999      45.564 130.764  16.840  1.00  0.00    -0.025 A 
HETATM   10  C15 LIG X 999      45.880 130.646  18.202  1.00  0.00     0.021 A 
ENDROOT
BRANCH   1  11
HETATM   11  C4  LIG X 999      45.339 130.982  20.651  1.00  0.00     0.113 C 
HETATM   12  C5  LIG X 999      46.326 132.084  21.046  1.00  0.00     0.037 C 
BRANCH  11  13
HETATM   13  N1  LIG X 999      44.130 131.050  21.479  1.00  0.00    -0.353 N 
HETATM   14  C3  LIG X 999      43.878 130.111  22.535  1.00  0.00     0.217 C 
HETATM   15  O1  LIG X 999      44.723 129.215  22.806  1.00  0.00    -0.274 OA
HETATM   16  H6  LIG X 999      43.426 131.802  21.304  1.00  0.00     0.163 HD
BRANCH  14  17
HETATM   17  C2  LIG X 999      42.625 130.216  23.350  1.00  0.00     0.098 C 
HETATM   18  C1  LIG X 999      42.476 131.619  23.927  1.00  0.00     0.014 C 
ENDBRANCH  14  17
ENDBRANCH  11  13
ENDBRANCH   1  11
TORSDOF 3
