REMARK VINA RESULT:      -5.8      5.523      7.956
REMARK  5 active torsions:
REMARK  status: ('A' for Active; 'I' for Inactive)
REMARK    1  A    between atoms: O1_2  and  C1_3 
REMARK    2  A    between atoms: C1_3  and  O4_19 
REMARK       I    between atoms: N1_4  and  C2_5 
REMARK    3  A    between atoms: C2_5  and  C3_7 
REMARK    4  A    between atoms: C4_8  and  O3_9 
REMARK    5  A    between atoms: O4_19  and  C13_20 
ROOT
HETATM    1  C3  LIG X 999      44.420 130.974  16.550  1.00  0.00     0.068 A 
HETATM    2  C4  LIG X 999      45.490 130.568  17.373  1.00  0.00     0.082 A 
HETATM    3  C5  LIG X 999      45.434 130.790  18.757  1.00  0.00     0.049 A 
HETATM    4  C6  LIG X 999      44.308 131.394  19.335  1.00  0.00    -0.023 A 
HETATM    5  C7  LIG X 999      44.247 131.615  20.720  1.00  0.00     0.012 A 
HETATM    6  C8  LIG X 999      43.118 132.214  21.285  1.00  0.00     0.001 A 
HETATM    7  C9  LIG X 999      42.044 132.595  20.475  1.00  0.00     0.001 A 
HETATM    8  C10 LIG X 999      42.093 132.379  19.095  1.00  0.00     0.012 A 
HETATM    9  C11 LIG X 999      43.222 131.779  18.515  1.00  0.00    -0.025 A 
HETATM   10  C12 LIG X 999      43.283 131.561  17.131  1.00  0.00     0.032 A 
ENDROOT
BRANCH   1  11
HETATM   11  C2  LIG X 999      44.455 130.759  15.084  1.00  0.00     0.283 C 
HETATM   12  N1  LIG X 999      45.650 130.940  14.310  1.00  0.00    -0.162 NA
HETATM   13  C1  LIG X 999      46.562 131.844  14.520  1.00  0.00     0.289 C 
HETATM   14  O2  LIG X 999      43.411 130.370  14.497  1.00  0.00    -0.265 OA
BRANCH  13  15
HETATM   15  O1  LIG X 999      46.394 132.802  15.518  1.00  0.00    -0.325 OA
HETATM   16  H1  LIG X 999      45.474 133.167  15.732  1.00  0.00     0.221 HD
ENDBRANCH  13  15
BRANCH  13  17
HETATM   17  O4  LIG X 999      47.720 131.893  13.730  1.00  0.00    -0.294 OA
BRANCH  17  18
HETATM   18  C13 LIG X 999      48.281 130.790  13.010  1.00  0.00     0.224 C 
HETATM   19 CL1  LIG X 999      47.668 130.730  11.332  1.00  0.00    -0.095 Cl
HETATM   20  C14 LIG X 999      48.033 129.468  13.733  1.00  0.00     0.057 C 
ENDBRANCH  17  18
ENDBRANCH  13  17
ENDBRANCH   1  11
BRANCH   2  21
HETATM   21  O3  LIG X 999      46.601 129.930  16.821  1.00  0.00    -0.360 OA
HETATM   22  H2  LIG X 999      47.547 130.216  17.046  1.00  0.00     0.217 HD
ENDBRANCH   2  21
TORSDOF 5
