REMARK VINA RESULT:      -7.5      1.292      2.408
REMARK  5 active torsions:
REMARK  status: ('A' for Active; 'I' for Inactive)
REMARK    1  A    between atoms: C3_3  and  O1_4 
REMARK    2  A    between atoms: O1_4  and  C4_5 
REMARK    3  A    between atoms: C5_6  and  C6_7 
REMARK    4  A    between atoms: C6_7  and  O2_8 
REMARK    5  A    between atoms: C10_13  and  N1_14 
ROOT
HETATM    1  C1  LIG X 999      47.031 130.898  13.384  1.00  0.00     0.014 C 
HETATM    2  C2  LIG X 999      46.069 131.381  13.927  1.00  0.00    -0.091 C 
HETATM    3  C3  LIG X 999      44.901 131.967  14.586  1.00  0.00     0.268 C 
ENDROOT
BRANCH   3   4
HETATM    4  O1  LIG X 999      44.326 131.001  15.461  1.00  0.00    -0.339 OA
BRANCH   4   5
HETATM    5  C4  LIG X 999      44.373 131.066  16.864  1.00  0.00     0.079 A 
HETATM    6  C5  LIG X 999      45.469 130.483  17.533  1.00  0.00    -0.001 A 
HETATM    7  C7  LIG X 999      45.525 130.508  18.935  1.00  0.00     0.024 A 
HETATM    8  C8  LIG X 999      44.515 131.131  19.680  1.00  0.00    -0.023 A 
HETATM    9  C9  LIG X 999      44.577 131.164  21.083  1.00  0.00     0.046 A 
HETATM   10  C13 LIG X 999      43.424 131.731  19.012  1.00  0.00    -0.023 A 
HETATM   11  C10 LIG X 999      43.560 131.791  21.825  1.00  0.00     0.094 A 
HETATM   12  C11 LIG X 999      42.483 132.383  21.153  1.00  0.00     0.035 A 
HETATM   13  C12 LIG X 999      42.413 132.354  19.758  1.00  0.00     0.014 A 
HETATM   14  C14 LIG X 999      43.359 131.693  17.613  1.00  0.00     0.049 A 
BRANCH   6  15
HETATM   15  C6  LIG X 999      46.555 129.784  16.756  1.00  0.00     0.205 C 
BRANCH  15  16
HETATM   16  O2  LIG X 999      45.999 128.787  15.943  1.00  0.00    -0.396 OA
HETATM   17  H6  LIG X 999      46.750 128.386  15.432  1.00  0.00     0.209 HD
ENDBRANCH  15  16
ENDBRANCH   6  15
BRANCH  11  18
HETATM   18  N1  LIG X 999      43.591 131.844  23.257  1.00  0.00    -0.073 NA
HETATM   19  N2  LIG X 999      44.025 130.915  23.941  1.00  0.00    -0.162 NA
HETATM   20  N3  LIG X 999      44.458 129.989  24.625  1.00  0.00     0.068 N 
ENDBRANCH  11  18
ENDBRANCH   4   5
ENDBRANCH   3   4
TORSDOF 5
