REMARK VINA RESULT:      -5.3      7.953      9.628
REMARK  1 active torsions:
REMARK  status: ('A' for Active; 'I' for Inactive)
REMARK    1  A    between atoms: C12_14  and  N2_15 
ROOT
HETATM    1  C1  LIG X 999      44.465 128.786  23.374  1.00  0.00     0.001 A 
HETATM    2  C2  LIG X 999      43.181 128.806  23.910  1.00  0.00     0.001 A 
HETATM    3  C3  LIG X 999      42.408 127.642  23.945  1.00  0.00     0.013 A 
HETATM    4  C4  LIG X 999      42.912 126.422  23.440  1.00  0.00    -0.012 A 
HETATM    5  C5  LIG X 999      44.234 126.419  22.892  1.00  0.00    -0.025 A 
HETATM    6  C6  LIG X 999      44.992 127.601  22.868  1.00  0.00     0.012 A 
HETATM    7  C7  LIG X 999      44.793 125.234  22.374  1.00  0.00     0.013 A 
HETATM    8  C8  LIG X 999      44.068 124.045  22.383  1.00  0.00     0.021 A 
HETATM    9  C9  LIG X 999      42.786 124.050  22.914  1.00  0.00     0.020 A 
HETATM   10  S1  LIG X 999      41.762 122.731  23.016  1.00  0.00    -0.076 SA
HETATM   11  C10 LIG X 999      40.502 123.570  23.740  1.00  0.00     0.118 A 
HETATM   12  C11 LIG X 999      39.258 122.944  24.102  1.00  0.00     0.109 C 
HETATM   13  N1  LIG X 999      38.260 122.434  24.390  1.00  0.00    -0.191 NA
HETATM   14  C12 LIG X 999      40.869 124.917  23.918  1.00  0.00     0.133 A 
HETATM   15  C13 LIG X 999      42.182 125.195  23.442  1.00  0.00     0.026 A 
ENDROOT
BRANCH  14  16
HETATM   16  N2  LIG X 999      40.017 125.909  24.511  1.00  0.00    -0.070 NA
HETATM   17  N3  LIG X 999      38.976 126.312  23.990  1.00  0.00    -0.162 NA
HETATM   18  N4  LIG X 999      37.935 126.722  23.479  1.00  0.00     0.068 N 
ENDBRANCH  14  16
TORSDOF 1
