REMARK VINA RESULT:      -4.9      5.091      7.234
REMARK  5 active torsions:
REMARK  status: ('A' for Active; 'I' for Inactive)
REMARK    1  A    between atoms: C6_6  and  C7_7 
REMARK       I    between atoms: C7_7  and  N1_9 
REMARK    2  A    between atoms: N1_9  and  C8_11 
REMARK    3  A    between atoms: C8_11  and  C9_12 
REMARK    4  A    between atoms: C9_12  and  N2_13 
REMARK    5  A    between atoms: C13_19  and  N5_20 
ROOT
HETATM    1  N2  LIG X 999      44.511 132.059  20.155  1.00  0.00    -0.114 NA
HETATM    2  N3  LIG X 999      43.366 132.083  19.704  1.00  0.00    -0.168 NA
HETATM    3  N4  LIG X 999      42.221 132.107  19.254  1.00  0.00     0.068 N 
ENDROOT
BRANCH   1   4
HETATM    4  C9  LIG X 999      44.863 131.150  21.235  1.00  0.00     0.208 C 
BRANCH   4   5
HETATM    5  C8  LIG X 999      43.953 131.400  22.437  1.00  0.00     0.147 C 
BRANCH   5   6
HETATM    6  N1  LIG X 999      42.990 130.312  22.600  1.00  0.00    -0.355 N 
HETATM    7  C7  LIG X 999      43.280 129.181  23.436  1.00  0.00     0.251 C 
HETATM    8  O1  LIG X 999      44.315 129.192  24.158  1.00  0.00    -0.268 OA
HETATM    9  H4  LIG X 999      42.056 130.381  22.137  1.00  0.00     0.162 HD
BRANCH   7  10
HETATM   10  C6  LIG X 999      42.377 128.005  23.479  1.00  0.00     0.032 A 
HETATM   11  C1  LIG X 999      40.996 128.159  23.666  1.00  0.00     0.017 A 
HETATM   12  C2  LIG X 999      40.157 127.044  23.708  1.00  0.00     0.011 A 
HETATM   13  C3  LIG X 999      40.677 125.746  23.576  1.00  0.00    -0.024 A 
HETATM   14  C4  LIG X 999      42.061 125.586  23.325  1.00  0.00    -0.049 A 
HETATM   15  C13 LIG X 999      39.725 124.558  23.567  1.00  0.00     0.179 C 
HETATM   16  C5  LIG X 999      42.898 126.713  23.300  1.00  0.00     0.024 A 
HETATM   17  C10 LIG X 999      42.683 124.218  23.166  1.00  0.00     0.039 C 
HETATM   18  C11 LIG X 999      41.659 123.160  22.750  1.00  0.00     0.007 C 
HETATM   19  C12 LIG X 999      40.452 123.205  23.684  1.00  0.00     0.035 C 
BRANCH  15  20
HETATM   20  N5  LIG X 999      38.721 124.676  24.625  1.00  0.00    -0.105 NA
HETATM   21  N6  LIG X 999      37.742 125.414  24.507  1.00  0.00    -0.167 NA
HETATM   22  N7  LIG X 999      36.764 126.151  24.390  1.00  0.00     0.068 N 
ENDBRANCH  15  20
ENDBRANCH   7  10
ENDBRANCH   5   6
ENDBRANCH   4   5
ENDBRANCH   1   4
TORSDOF 5
