MODEL 1
REMARK VINA RESULT:      -8.4      0.000      0.000
REMARK  4 active torsions:
REMARK  status: ('A' for Active; 'I' for Inactive)
REMARK    1  A    between atoms: C3_4  and  O1_5 
REMARK    2  A    between atoms: C3_4  and  O2_6 
REMARK    3  A    between atoms: O2_6  and  C4_7 
REMARK    4  A    between atoms: C13_16  and  N2_17 
ROOT
HETATM    1  C4  LIG X 999      44.482 131.388  17.997  1.00  0.00     0.106 A 
HETATM    2  C5  LIG X 999      45.623 130.827  18.590  1.00  0.00     0.040 A 
HETATM    3  C6  LIG X 999      45.732 130.734  19.974  1.00  0.00     0.015 A 
HETATM    4  C7  LIG X 999      44.689 131.172  20.796  1.00  0.00    -0.024 A 
HETATM    5  C8  LIG X 999      44.808 131.058  22.191  1.00  0.00     0.012 A 
HETATM    6  C9  LIG X 999      43.764 131.461  23.021  1.00  0.00     0.001 A 
HETATM    7  C10 LIG X 999      42.590 131.972  22.469  1.00  0.00     0.001 A 
HETATM    8  C11 LIG X 999      42.455 132.094  21.084  1.00  0.00     0.014 A 
HETATM    9  C12 LIG X 999      43.507 131.713  20.220  1.00  0.00     0.003 A 
HETATM   10  C13 LIG X 999      43.414 131.830  18.805  1.00  0.00     0.071 A 
ENDROOT
BRANCH   1  11
HETATM   11  O2  LIG X 999      44.369 131.487  16.602  1.00  0.00    -0.272 OA
BRANCH  11  12
HETATM   12  C3  LIG X 999      45.446 131.573  15.708  1.00  0.00     0.265 C 
HETATM   13  N1  LIG X 999      45.851 130.493  15.078  1.00  0.00    -0.350 N 
HETATM   14  C1  LIG X 999      46.964 130.537  14.119  1.00  0.00     0.153 C 
HETATM   15  C2  LIG X 999      45.181 129.211  15.340  1.00  0.00     0.153 C 
BRANCH  12  16
HETATM   16  O1  LIG X 999      46.039 132.822  15.480  1.00  0.00    -0.327 OA
HETATM   17  H7  LIG X 999      46.586 133.326  16.165  1.00  0.00     0.221 HD
ENDBRANCH  12  16
ENDBRANCH  11  12
ENDBRANCH   1  11
BRANCH  10  18
HETATM   18  N2  LIG X 999      42.265 132.416  18.168  1.00  0.00    -0.396 N 
HETATM   19  H14 LIG X 999      42.126 132.408  17.135  1.00  0.00     0.156 HD
HETATM   20  H15 LIG X 999      41.461 132.772  18.731  1.00  0.00     0.156 HD
ENDBRANCH  10  18
TORSDOF 4
ENDMDL
MODEL 2
REMARK VINA RESULT:      -7.7      0.943      1.386
REMARK  4 active torsions:
REMARK  status: ('A' for Active; 'I' for Inactive)
REMARK    1  A    between atoms: C3_4  and  O1_5 
REMARK    2  A    between atoms: C3_4  and  O2_6 
REMARK    3  A    between atoms: O2_6  and  C4_7 
REMARK    4  A    between atoms: C13_16  and  N2_17 
ROOT
HETATM    1  C4  LIG X 999      44.776 131.051  17.981  1.00  0.00     0.106 A 
HETATM    2  C5  LIG X 999      45.852 130.537  18.722  1.00  0.00     0.040 A 
HETATM    3  C6  LIG X 999      45.845 130.588  20.112  1.00  0.00     0.015 A 
HETATM    4  C7  LIG X 999      44.750 131.126  20.795  1.00  0.00    -0.024 A 
HETATM    5  C8  LIG X 999      44.751 131.157  22.199  1.00  0.00     0.012 A 
HETATM    6  C9  LIG X 999      43.653 131.662  22.892  1.00  0.00     0.001 A 
HETATM    7  C10 LIG X 999      42.541 132.131  22.195  1.00  0.00     0.001 A 
HETATM    8  C11 LIG X 999      42.522 132.108  20.798  1.00  0.00     0.014 A 
HETATM    9  C12 LIG X 999      43.632 131.622  20.070  1.00  0.00     0.003 A 
HETATM   10  C13 LIG X 999      43.657 131.591  18.647  1.00  0.00     0.071 A 
ENDROOT
BRANCH   1  11
HETATM   11  O2  LIG X 999      44.780 131.003  16.579  1.00  0.00    -0.272 OA
BRANCH  11  12
HETATM   12  C3  LIG X 999      45.525 130.103  15.802  1.00  0.00     0.265 C 
HETATM   13  N1  LIG X 999      46.425 130.564  14.963  1.00  0.00    -0.350 N 
HETATM   14  C1  LIG X 999      47.241 129.660  14.142  1.00  0.00     0.153 C 
HETATM   15  C2  LIG X 999      46.619 132.017  14.840  1.00  0.00     0.153 C 
BRANCH  12  16
HETATM   16  O1  LIG X 999      45.314 128.728  15.972  1.00  0.00    -0.327 OA
HETATM   17  H7  LIG X 999      44.601 128.198  15.488  1.00  0.00     0.221 HD
ENDBRANCH  12  16
ENDBRANCH  11  12
ENDBRANCH   1  11
BRANCH  10  18
HETATM   18  N2  LIG X 999      42.578 132.125  17.859  1.00  0.00    -0.396 N 
HETATM   19  H14 LIG X 999      41.721 131.578  17.630  1.00  0.00     0.156 HD
HETATM   20  H15 LIG X 999      42.562 133.131  17.581  1.00  0.00     0.156 HD
ENDBRANCH  10  18
TORSDOF 4
ENDMDL
MODEL 3
REMARK VINA RESULT:      -7.5      1.950      6.443
REMARK  4 active torsions:
REMARK  status: ('A' for Active; 'I' for Inactive)
REMARK    1  A    between atoms: C3_4  and  O1_5 
REMARK    2  A    between atoms: C3_4  and  O2_6 
REMARK    3  A    between atoms: O2_6  and  C4_7 
REMARK    4  A    between atoms: C13_16  and  N2_17 
ROOT
HETATM    1  C4  LIG X 999      44.320 131.088  16.968  1.00  0.00     0.106 A 
HETATM    2  C5  LIG X 999      43.742 131.716  15.854  1.00  0.00     0.040 A 
HETATM    3  C6  LIG X 999      44.397 131.731  14.627  1.00  0.00     0.015 A 
HETATM    4  C7  LIG X 999      45.632 131.092  14.477  1.00  0.00    -0.024 A 
HETATM    5  C8  LIG X 999      46.274 131.102  13.228  1.00  0.00     0.012 A 
HETATM    6  C9  LIG X 999      47.490 130.443  13.057  1.00  0.00     0.001 A 
HETATM    7  C10 LIG X 999      48.070 129.760  14.125  1.00  0.00     0.001 A 
HETATM    8  C11 LIG X 999      47.446 129.739  15.373  1.00  0.00     0.014 A 
HETATM    9  C12 LIG X 999      46.224 130.418  15.581  1.00  0.00     0.003 A 
HETATM   10  C13 LIG X 999      45.561 130.430  16.840  1.00  0.00     0.071 A 
ENDROOT
BRANCH   1  11
HETATM   11  O2  LIG X 999      43.664 131.073  18.208  1.00  0.00    -0.272 OA
BRANCH  11  12
HETATM   12  C3  LIG X 999      42.691 131.998  18.619  1.00  0.00     0.265 C 
HETATM   13  N1  LIG X 999      42.582 132.296  19.894  1.00  0.00    -0.350 N 
HETATM   14  C1  LIG X 999      41.591 133.271  20.371  1.00  0.00     0.153 C 
HETATM   15  C2  LIG X 999      43.466 131.638  20.868  1.00  0.00     0.153 C 
BRANCH  12  16
HETATM   16  O1  LIG X 999      41.886 132.610  17.649  1.00  0.00    -0.327 OA
HETATM   17  H7  LIG X 999      40.905 132.405  17.512  1.00  0.00     0.221 HD
ENDBRANCH  12  16
ENDBRANCH  11  12
ENDBRANCH   1  11
BRANCH  10  18
HETATM   18  N2  LIG X 999      46.135 129.810  18.004  1.00  0.00    -0.396 N 
HETATM   19  H14 LIG X 999      45.565 129.512  18.824  1.00  0.00     0.156 HD
HETATM   20  H15 LIG X 999      47.139 129.527  18.022  1.00  0.00     0.156 HD
ENDBRANCH  10  18
TORSDOF 4
ENDMDL
MODEL 4
REMARK VINA RESULT:      -7.5      2.870      6.207
REMARK  4 active torsions:
REMARK  status: ('A' for Active; 'I' for Inactive)
REMARK    1  A    between atoms: C3_4  and  O1_5 
REMARK    2  A    between atoms: C3_4  and  O2_6 
REMARK    3  A    between atoms: O2_6  and  C4_7 
REMARK    4  A    between atoms: C13_16  and  N2_17 
ROOT
HETATM    1  C4  LIG X 999      44.123 131.527  19.998  1.00  0.00     0.106 A 
HETATM    2  C5  LIG X 999      42.976 131.985  19.331  1.00  0.00     0.040 A 
HETATM    3  C6  LIG X 999      42.909 131.968  17.941  1.00  0.00     0.015 A 
HETATM    4  C7  LIG X 999      43.974 131.464  17.189  1.00  0.00    -0.024 A 
HETATM    5  C8  LIG X 999      43.886 131.440  15.787  1.00  0.00     0.012 A 
HETATM    6  C9  LIG X 999      44.927 130.913  15.025  1.00  0.00     0.001 A 
HETATM    7  C10 LIG X 999      46.059 130.396  15.653  1.00  0.00     0.001 A 
HETATM    8  C11 LIG X 999      46.165 130.413  17.045  1.00  0.00     0.014 A 
HETATM    9  C12 LIG X 999      45.134 130.963  17.841  1.00  0.00     0.003 A 
HETATM   10  C13 LIG X 999      45.207 131.008  19.261  1.00  0.00     0.071 A 
ENDROOT
BRANCH   1  11
HETATM   11  O2  LIG X 999      44.196 131.545  21.400  1.00  0.00    -0.272 OA
BRANCH  11  12
HETATM   12  C3  LIG X 999      43.176 131.127  22.268  1.00  0.00     0.265 C 
HETATM   13  N1  LIG X 999      43.299 129.984  22.906  1.00  0.00    -0.350 N 
HETATM   14  C1  LIG X 999      42.266 129.513  23.838  1.00  0.00     0.153 C 
HETATM   15  C2  LIG X 999      44.493 129.157  22.680  1.00  0.00     0.153 C 
BRANCH  12  16
HETATM   16  O1  LIG X 999      42.067 131.962  22.462  1.00  0.00    -0.327 OA
HETATM   17  H7  LIG X 999      41.233 131.691  22.967  1.00  0.00     0.221 HD
ENDBRANCH  12  16
ENDBRANCH  11  12
ENDBRANCH   1  11
BRANCH  10  18
HETATM   18  N2  LIG X 999      46.374 130.562  19.974  1.00  0.00    -0.396 N 
HETATM   19  H14 LIG X 999      46.508 130.722  20.995  1.00  0.00     0.156 HD
HETATM   20  H15 LIG X 999      47.085 129.953  19.513  1.00  0.00     0.156 HD
ENDBRANCH  10  18
TORSDOF 4
ENDMDL
MODEL 5
REMARK VINA RESULT:      -7.5      1.627      2.403
REMARK  4 active torsions:
REMARK  status: ('A' for Active; 'I' for Inactive)
REMARK    1  A    between atoms: C3_4  and  O1_5 
REMARK    2  A    between atoms: C3_4  and  O2_6 
REMARK    3  A    between atoms: O2_6  and  C4_7 
REMARK    4  A    between atoms: C13_16  and  N2_17 
ROOT
HETATM    1  C4  LIG X 999      44.972 131.059  17.319  1.00  0.00     0.106 A 
HETATM    2  C5  LIG X 999      43.779 131.578  16.792  1.00  0.00     0.040 A 
HETATM    3  C6  LIG X 999      42.762 132.015  17.634  1.00  0.00     0.015 A 
HETATM    4  C7  LIG X 999      42.926 131.973  19.022  1.00  0.00    -0.024 A 
HETATM    5  C8  LIG X 999      41.896 132.433  19.858  1.00  0.00     0.012 A 
HETATM    6  C9  LIG X 999      42.058 132.425  21.243  1.00  0.00     0.001 A 
HETATM    7  C10 LIG X 999      43.250 131.970  21.804  1.00  0.00     0.001 A 
HETATM    8  C11 LIG X 999      44.284 131.509  20.988  1.00  0.00     0.014 A 
HETATM    9  C12 LIG X 999      44.138 131.485  19.582  1.00  0.00     0.003 A 
HETATM   10  C13 LIG X 999      45.164 131.013  18.715  1.00  0.00     0.071 A 
ENDROOT
BRANCH   1  11
HETATM   11  O2  LIG X 999      46.000 130.614  16.474  1.00  0.00    -0.272 OA
BRANCH  11  12
HETATM   12  C3  LIG X 999      46.437 131.275  15.315  1.00  0.00     0.265 C 
HETATM   13  N1  LIG X 999      47.034 130.589  14.366  1.00  0.00    -0.350 N 
HETATM   14  C1  LIG X 999      47.493 131.233  13.128  1.00  0.00     0.153 C 
HETATM   15  C2  LIG X 999      47.251 129.146  14.547  1.00  0.00     0.153 C 
BRANCH  12  16
HETATM   16  O1  LIG X 999      46.188 132.648  15.184  1.00  0.00    -0.327 OA
HETATM   17  H7  LIG X 999      45.713 133.208  15.880  1.00  0.00     0.221 HD
ENDBRANCH  12  16
ENDBRANCH  11  12
ENDBRANCH   1  11
BRANCH  10  18
HETATM   18  N2  LIG X 999      46.391 130.461  19.224  1.00  0.00    -0.396 N 
HETATM   19  H14 LIG X 999      47.081 129.965  18.620  1.00  0.00     0.156 HD
HETATM   20  H15 LIG X 999      46.694 130.640  20.207  1.00  0.00     0.156 HD
ENDBRANCH  10  18
TORSDOF 4
ENDMDL
MODEL 6
REMARK VINA RESULT:      -7.5      1.534      2.647
REMARK  4 active torsions:
REMARK  status: ('A' for Active; 'I' for Inactive)
REMARK    1  A    between atoms: C3_4  and  O1_5 
REMARK    2  A    between atoms: C3_4  and  O2_6 
REMARK    3  A    between atoms: O2_6  and  C4_7 
REMARK    4  A    between atoms: C13_16  and  N2_17 
ROOT
HETATM    1  C4  LIG X 999      44.328 131.274  16.874  1.00  0.00     0.106 A 
HETATM    2  C5  LIG X 999      43.034 131.788  17.052  1.00  0.00     0.040 A 
HETATM    3  C6  LIG X 999      42.518 131.986  18.329  1.00  0.00     0.015 A 
HETATM    4  C7  LIG X 999      43.296 131.705  19.457  1.00  0.00    -0.024 A 
HETATM    5  C8  LIG X 999      42.767 131.925  20.739  1.00  0.00     0.012 A 
HETATM    6  C9  LIG X 999      43.541 131.679  21.871  1.00  0.00     0.001 A 
HETATM    7  C10 LIG X 999      44.851 131.221  21.736  1.00  0.00     0.001 A 
HETATM    8  C11 LIG X 999      45.393 130.996  20.469  1.00  0.00     0.014 A 
HETATM    9  C12 LIG X 999      44.622 131.216  19.304  1.00  0.00     0.003 A 
HETATM   10  C13 LIG X 999      45.134 130.990  17.996  1.00  0.00     0.071 A 
ENDROOT
BRANCH   1  11
HETATM   11  O2  LIG X 999      44.851 131.069  15.588  1.00  0.00    -0.272 OA
BRANCH  11  12
HETATM   12  C3  LIG X 999      45.671 129.996  15.210  1.00  0.00     0.265 C 
HETATM   13  N1  LIG X 999      46.752 130.227  14.499  1.00  0.00    -0.350 N 
HETATM   14  C1  LIG X 999      47.651 129.138  14.095  1.00  0.00     0.153 C 
HETATM   15  C2  LIG X 999      47.068 131.605  14.095  1.00  0.00     0.153 C 
BRANCH  12  16
HETATM   16  O1  LIG X 999      45.335 128.704  15.638  1.00  0.00    -0.327 OA
HETATM   17  H7  LIG X 999      45.894 128.153  16.277  1.00  0.00     0.221 HD
ENDBRANCH  12  16
ENDBRANCH  11  12
ENDBRANCH   1  11
BRANCH  10  18
HETATM   18  N2  LIG X 999      46.449 130.449  17.780  1.00  0.00    -0.396 N 
HETATM   19  H14 LIG X 999      47.310 131.035  17.796  1.00  0.00     0.156 HD
HETATM   20  H15 LIG X 999      46.602 129.419  17.713  1.00  0.00     0.156 HD
ENDBRANCH  10  18
TORSDOF 4
ENDMDL
MODEL 7
REMARK VINA RESULT:      -7.3      1.734      6.402
REMARK  4 active torsions:
REMARK  status: ('A' for Active; 'I' for Inactive)
REMARK    1  A    between atoms: C3_4  and  O1_5 
REMARK    2  A    between atoms: C3_4  and  O2_6 
REMARK    3  A    between atoms: O2_6  and  C4_7 
REMARK    4  A    between atoms: C13_16  and  N2_17 
ROOT
HETATM    1  C4  LIG X 999      45.363 131.254  16.913  1.00  0.00     0.106 A 
HETATM    2  C5  LIG X 999      45.612 129.892  17.144  1.00  0.00     0.040 A 
HETATM    3  C6  LIG X 999      46.361 129.144  16.241  1.00  0.00     0.015 A 
HETATM    4  C7  LIG X 999      46.905 129.748  15.103  1.00  0.00    -0.024 A 
HETATM    5  C8  LIG X 999      47.672 128.984  14.209  1.00  0.00     0.012 A 
HETATM    6  C9  LIG X 999      48.245 129.579  13.087  1.00  0.00     0.001 A 
HETATM    7  C10 LIG X 999      48.068 130.942  12.852  1.00  0.00     0.001 A 
HETATM    8  C11 LIG X 999      47.308 131.717  13.730  1.00  0.00     0.014 A 
HETATM    9  C12 LIG X 999      46.697 131.134  14.863  1.00  0.00     0.003 A 
HETATM   10  C13 LIG X 999      45.906 131.887  15.777  1.00  0.00     0.071 A 
ENDROOT
BRANCH   1  11
HETATM   11  O2  LIG X 999      44.605 132.011  17.820  1.00  0.00    -0.272 OA
BRANCH  11  12
HETATM   12  C3  LIG X 999      44.464 131.731  19.188  1.00  0.00     0.265 C 
HETATM   13  N1  LIG X 999      43.266 131.732  19.728  1.00  0.00    -0.350 N 
HETATM   14  C1  LIG X 999      43.067 131.428  21.152  1.00  0.00     0.153 C 
HETATM   15  C2  LIG X 999      42.099 132.048  18.892  1.00  0.00     0.153 C 
BRANCH  12  16
HETATM   16  O1  LIG X 999      45.608 131.418  19.935  1.00  0.00    -0.327 OA
HETATM   17  H7  LIG X 999      46.305 132.094  20.218  1.00  0.00     0.221 HD
ENDBRANCH  12  16
ENDBRANCH  11  12
ENDBRANCH   1  11
BRANCH  10  18
HETATM   18  N2  LIG X 999      45.619 133.279  15.560  1.00  0.00    -0.396 N 
HETATM   19  H14 LIG X 999      46.243 134.044  15.895  1.00  0.00     0.156 HD
HETATM   20  H15 LIG X 999      44.825 133.576  14.952  1.00  0.00     0.156 HD
ENDBRANCH  10  18
TORSDOF 4
ENDMDL
MODEL 8
REMARK VINA RESULT:      -7.1      1.816      6.564
REMARK  4 active torsions:
REMARK  status: ('A' for Active; 'I' for Inactive)
REMARK    1  A    between atoms: C3_4  and  O1_5 
REMARK    2  A    between atoms: C3_4  and  O2_6 
REMARK    3  A    between atoms: O2_6  and  C4_7 
REMARK    4  A    between atoms: C13_16  and  N2_17 
ROOT
HETATM    1  C4  LIG X 999      45.264 131.188  16.953  1.00  0.00     0.106 A 
HETATM    2  C5  LIG X 999      45.318 132.402  16.251  1.00  0.00     0.040 A 
HETATM    3  C6  LIG X 999      46.082 132.521  15.095  1.00  0.00     0.015 A 
HETATM    4  C7  LIG X 999      46.784 131.420  14.595  1.00  0.00    -0.024 A 
HETATM    5  C8  LIG X 999      47.538 131.552  13.418  1.00  0.00     0.012 A 
HETATM    6  C9  LIG X 999      48.218 130.455  12.891  1.00  0.00     0.001 A 
HETATM    7  C10 LIG X 999      48.144 129.217  13.527  1.00  0.00     0.001 A 
HETATM    8  C11 LIG X 999      47.399 129.068  14.699  1.00  0.00     0.014 A 
HETATM    9  C12 LIG X 999      46.719 130.169  15.266  1.00  0.00     0.003 A 
HETATM   10  C13 LIG X 999      45.957 130.061  16.464  1.00  0.00     0.071 A 
ENDROOT
BRANCH   1  11
HETATM   11  O2  LIG X 999      44.497 131.064  18.121  1.00  0.00    -0.272 OA
BRANCH  11  12
HETATM   12  C3  LIG X 999      45.007 131.084  19.429  1.00  0.00     0.265 C 
HETATM   13  N1  LIG X 999      44.279 131.588  20.399  1.00  0.00    -0.350 N 
HETATM   14  C1  LIG X 999      44.762 131.615  21.786  1.00  0.00     0.153 C 
HETATM   15  C2  LIG X 999      42.951 132.141  20.092  1.00  0.00     0.153 C 
BRANCH  12  16
HETATM   16  O1  LIG X 999      46.270 130.526  19.671  1.00  0.00    -0.327 OA
HETATM   17  H7  LIG X 999      47.145 130.971  19.425  1.00  0.00     0.221 HD
ENDBRANCH  12  16
ENDBRANCH  11  12
ENDBRANCH   1  11
BRANCH  10  18
HETATM   18  N2  LIG X 999      45.895 128.836  17.214  1.00  0.00    -0.396 N 
HETATM   19  H14 LIG X 999      46.629 128.554  17.899  1.00  0.00     0.156 HD
HETATM   20  H15 LIG X 999      45.045 128.231  17.186  1.00  0.00     0.156 HD
ENDBRANCH  10  18
TORSDOF 4
ENDMDL
MODEL 9
REMARK VINA RESULT:      -7.1      1.435      2.151
REMARK  4 active torsions:
REMARK  status: ('A' for Active; 'I' for Inactive)
REMARK    1  A    between atoms: C3_4  and  O1_5 
REMARK    2  A    between atoms: C3_4  and  O2_6 
REMARK    3  A    between atoms: O2_6  and  C4_7 
REMARK    4  A    between atoms: C13_16  and  N2_17 
ROOT
HETATM    1  C4  LIG X 999      44.862 131.239  18.459  1.00  0.00     0.106 A 
HETATM    2  C5  LIG X 999      43.614 131.794  18.137  1.00  0.00     0.040 A 
HETATM    3  C6  LIG X 999      42.697 132.108  19.135  1.00  0.00     0.015 A 
HETATM    4  C7  LIG X 999      43.019 131.903  20.480  1.00  0.00    -0.024 A 
HETATM    5  C8  LIG X 999      42.088 132.240  21.476  1.00  0.00     0.012 A 
HETATM    6  C9  LIG X 999      42.407 132.070  22.822  1.00  0.00     0.001 A 
HETATM    7  C10 LIG X 999      43.658 131.574  23.187  1.00  0.00     0.001 A 
HETATM    8  C11 LIG X 999      44.595 131.234  22.209  1.00  0.00     0.014 A 
HETATM    9  C12 LIG X 999      44.289 131.374  20.836  1.00  0.00     0.003 A 
HETATM   10  C13 LIG X 999      45.212 131.030  19.809  1.00  0.00     0.071 A 
ENDROOT
BRANCH   1  11
HETATM   11  O2  LIG X 999      45.789 130.917  17.456  1.00  0.00    -0.272 OA
BRANCH  11  12
HETATM   12  C3  LIG X 999      45.741 131.381  16.132  1.00  0.00     0.265 C 
HETATM   13  N1  LIG X 999      45.512 130.531  15.157  1.00  0.00    -0.350 N 
HETATM   14  C1  LIG X 999      45.435 130.972  13.758  1.00  0.00     0.153 C 
HETATM   15  C2  LIG X 999      45.331 129.105  15.471  1.00  0.00     0.153 C 
BRANCH  12  16
HETATM   16  O1  LIG X 999      45.900 132.752  15.889  1.00  0.00    -0.327 OA
HETATM   17  H7  LIG X 999      45.338 133.284  15.237  1.00  0.00     0.221 HD
ENDBRANCH  12  16
ENDBRANCH  11  12
ENDBRANCH   1  11
BRANCH  10  18
HETATM   18  N2  LIG X 999      46.492 130.444  20.106  1.00  0.00    -0.396 N 
HETATM   19  H14 LIG X 999      47.383 130.795  19.695  1.00  0.00     0.156 HD
HETATM   20  H15 LIG X 999      46.589 129.712  20.843  1.00  0.00     0.156 HD
ENDBRANCH  10  18
TORSDOF 4
ENDMDL
