REMARK VINA RESULT:      -7.8      4.407      6.611
REMARK  3 active torsions:
REMARK  status: ('A' for Active; 'I' for Inactive)
REMARK    1  A    between atoms: C6_6  and  C7_7 
REMARK    2  A    between atoms: C7_7  and  N1_8 
REMARK    3  A    between atoms: C8_12  and  N4_13 
ROOT
HETATM    1  N1  LIG X 999      45.898 131.293  20.819  1.00  0.00    -0.065 NA
HETATM    2  N2  LIG X 999      46.478 132.316  21.186  1.00  0.00    -0.164 NA
HETATM    3  N3  LIG X 999      47.058 133.337  21.553  1.00  0.00     0.068 N 
ENDROOT
BRANCH   1   4
HETATM    4  C7  LIG X 999      44.633 131.346  20.086  1.00  0.00     0.267 A 
HETATM    5  O1  LIG X 999      43.735 132.305  20.598  1.00  0.00    -0.314 OA
HETATM    6  C8  LIG X 999      43.391 130.950  20.793  1.00  0.00     0.349 A 
BRANCH   4   7
HETATM    7  C6  LIG X 999      44.682 131.316  18.590  1.00  0.00     0.007 A 
HETATM    8  C5  LIG X 999      45.781 130.745  17.931  1.00  0.00     0.024 A 
HETATM    9  C4  LIG X 999      45.818 130.695  16.529  1.00  0.00    -0.025 A 
HETATM   10  C3  LIG X 999      46.917 130.133  15.861  1.00  0.00     0.012 A 
HETATM   11  C11 LIG X 999      44.733 131.214  15.780  1.00  0.00    -0.026 A 
HETATM   12  C2  LIG X 999      46.941 130.088  14.464  1.00  0.00     0.001 A 
HETATM   13  C1  LIG X 999      45.871 130.601  13.725  1.00  0.00     0.001 A 
HETATM   14  C12 LIG X 999      44.770 131.163  14.378  1.00  0.00     0.012 A 
HETATM   15  C10 LIG X 999      43.632 131.770  16.447  1.00  0.00     0.013 A 
HETATM   16  C9  LIG X 999      43.606 131.816  17.843  1.00  0.00     0.013 A 
ENDBRANCH   4   7
BRANCH   6  17
HETATM   17  N4  LIG X 999      43.549 130.586  22.192  1.00  0.00    -0.077 NA
HETATM   18  N5  LIG X 999      42.914 131.181  23.062  1.00  0.00    -0.165 NA
HETATM   19  N6  LIG X 999      42.279 131.774  23.931  1.00  0.00     0.068 N 
ENDBRANCH   6  17
ENDBRANCH   1   4
TORSDOF 3
