REMARK VINA RESULT:      -7.5      0.983      1.927
REMARK  4 active torsions:
REMARK  status: ('A' for Active; 'I' for Inactive)
REMARK    1  A    between atoms: C3_3  and  O1_4 
REMARK    2  A    between atoms: O1_4  and  C4_5 
REMARK    3  A    between atoms: C4_5  and  O2_6 
REMARK    4  A    between atoms: C5_8  and  C6_9 
ROOT
HETATM    1  C1  LIG X 999      44.576 130.060  22.216  1.00  0.00     0.014 C 
HETATM    2  C2  LIG X 999      44.939 130.953  21.493  1.00  0.00    -0.091 C 
HETATM    3  C3  LIG X 999      45.381 132.037  20.615  1.00  0.00     0.270 C 
ENDROOT
BRANCH   3   4
HETATM    4  O1  LIG X 999      44.857 131.824  19.311  1.00  0.00    -0.319 OA
BRANCH   4   5
HETATM    5  C4  LIG X 999      43.484 131.751  19.057  1.00  0.00     0.179 C 
HETATM    6  C5  LIG X 999      43.031 131.533  17.814  1.00  0.00     0.075 C 
BRANCH   5   7
HETATM    7  O2  LIG X 999      42.581 131.878  20.115  1.00  0.00    -0.341 OA
HETATM    8  H4  LIG X 999      41.844 131.201  20.278  1.00  0.00     0.220 HD
ENDBRANCH   5   7
BRANCH   6   9
HETATM    9  C6  LIG X 999      43.902 131.391  16.625  1.00  0.00    -0.031 A 
HETATM   10  C7  LIG X 999      43.539 131.917  15.371  1.00  0.00     0.012 A 
HETATM   11  C8  LIG X 999      44.371 131.746  14.262  1.00  0.00     0.013 A 
HETATM   12  C9  LIG X 999      45.571 131.033  14.382  1.00  0.00    -0.026 A 
HETATM   13  C10 LIG X 999      46.414 130.857  13.273  1.00  0.00     0.012 A 
HETATM   14  C14 LIG X 999      45.932 130.477  15.633  1.00  0.00    -0.025 A 
HETATM   15  C11 LIG X 999      47.605 130.137  13.406  1.00  0.00     0.001 A 
HETATM   16  C12 LIG X 999      47.961 129.587  14.640  1.00  0.00     0.001 A 
HETATM   17  C13 LIG X 999      47.131 129.754  15.751  1.00  0.00     0.012 A 
HETATM   18  C15 LIG X 999      45.091 130.653  16.742  1.00  0.00     0.024 A 
ENDBRANCH   6   9
ENDBRANCH   4   5
ENDBRANCH   3   4
TORSDOF 4
