REMARK VINA RESULT:      -6.3      2.487      3.823
REMARK  7 active torsions:
REMARK  status: ('A' for Active; 'I' for Inactive)
REMARK    1  A    between atoms: S1_2  and  C1_3 
REMARK    2  A    between atoms: C1_3  and  N2_11 
REMARK    3  A    between atoms: N1_4  and  C2_6 
REMARK    4  A    between atoms: C2_6  and  C3_7 
REMARK    5  A    between atoms: C3_7  and  C4_8 
REMARK    6  A    between atoms: C4_8  and  S2_9 
REMARK    7  A    between atoms: N2_11  and  C5_14 
ROOT
HETATM    1  N2  LIG X 999      45.269 131.109  21.707  1.00  0.00     0.006 N 
HETATM    2  H10 LIG X 999      45.551 132.034  22.104  1.00  0.00     0.293 HD
HETATM    3  H11 LIG X 999      46.117 130.497  21.762  1.00  0.00     0.293 HD
ENDROOT
BRANCH   1   4
HETATM    4  C1  LIG X 999      44.215 130.529  22.516  1.00  0.00     0.240 C 
HETATM    5  N1  LIG X 999      44.113 129.253  22.746  1.00  0.00    -0.365 N 
HETATM    6  H2  LIG X 999      43.326 128.925  23.328  1.00  0.00     0.161 HD
BRANCH   4   7
HETATM    7  S1  LIG X 999      42.928 131.615  23.159  1.00  0.00    -0.100 SA
HETATM    8  H1  LIG X 999      42.565 132.056  21.873  1.00  0.00     0.110 HD
ENDBRANCH   4   7
BRANCH   5   9
HETATM    9  C2  LIG X 999      45.054 128.238  22.306  1.00  0.00     0.122 C 
BRANCH   9  10
HETATM   10  C3  LIG X 999      45.043 127.050  23.278  1.00  0.00     0.029 C 
BRANCH  10  11
HETATM   11  C4  LIG X 999      43.672 126.369  23.359  1.00  0.00     0.072 C 
BRANCH  11  12
HETATM   12  S2  LIG X 999      43.651 124.788  22.453  1.00  0.00    -0.182 SA
HETATM   13  H9  LIG X 999      44.828 125.084  21.741  1.00  0.00     0.101 HD
ENDBRANCH  11  12
ENDBRANCH  10  11
ENDBRANCH   9  10
ENDBRANCH   5   9
ENDBRANCH   1   4
BRANCH   1  14
HETATM   14  C5  LIG X 999      44.894 131.202  20.315  1.00  0.00     0.141 A 
HETATM   15  C6  LIG X 999      43.712 131.865  19.941  1.00  0.00     0.038 A 
HETATM   16  C7  LIG X 999      43.338 131.955  18.597  1.00  0.00     0.014 A 
HETATM   17  C8  LIG X 999      44.155 131.403  17.600  1.00  0.00    -0.026 A 
HETATM   18  C9  LIG X 999      43.785 131.483  16.249  1.00  0.00     0.012 A 
HETATM   19  C13 LIG X 999      45.366 130.768  17.960  1.00  0.00    -0.024 A 
HETATM   20  C10 LIG X 999      44.612 130.937  15.263  1.00  0.00     0.001 A 
HETATM   21  C11 LIG X 999      45.810 130.310  15.617  1.00  0.00     0.001 A 
HETATM   22  C12 LIG X 999      46.188 130.226  16.960  1.00  0.00     0.012 A 
HETATM   23  C14 LIG X 999      45.733 130.683  19.311  1.00  0.00     0.049 A 
ENDBRANCH   1  14
TORSDOF 7
