REMARK VINA RESULT:      -3.8      3.127      3.827
REMARK  6 active torsions:
REMARK  status: ('A' for Active; 'I' for Inactive)
REMARK    1  A    between atoms: C8_8  and  O1_9 
REMARK    2  A    between atoms: O1_9  and  C9_10 
REMARK    3  A    between atoms: C9_10  and  C10_11 
REMARK    4  A    between atoms: C10_11  and  C11_12 
REMARK    5  A    between atoms: C11_12  and  N1_13 
REMARK    6  A    between atoms: C13_18  and  N4_19 
ROOT
HETATM    1  N1  LIG X 999      44.364 131.365  16.536  1.00  0.00    -0.116 NA
HETATM    2  N2  LIG X 999      45.429 131.054  16.001  1.00  0.00    -0.168 NA
HETATM    3  N3  LIG X 999      46.491 130.744  15.466  1.00  0.00     0.068 N 
ENDROOT
BRANCH   1   4
HETATM    4  C11 LIG X 999      44.278 131.513  17.981  1.00  0.00     0.191 C 
BRANCH   4   5
HETATM    5  C10 LIG X 999      42.822 131.746  18.387  1.00  0.00     0.051 C 
BRANCH   5   6
HETATM    6  C9  LIG X 999      42.698 132.110  19.868  1.00  0.00     0.170 C 
BRANCH   6   7
HETATM    7  O1  LIG X 999      43.040 130.990  20.659  1.00  0.00    -0.384 OA
BRANCH   7   8
HETATM    8  C8  LIG X 999      43.780 131.385  21.804  1.00  0.00     0.146 C 
HETATM    9  C7  LIG X 999      42.875 131.361  23.042  1.00  0.00     0.072 C 
HETATM   10  C5  LIG X 999      42.461 129.962  23.426  1.00  0.00    -0.047 A 
HETATM   11  C4  LIG X 999      43.239 128.833  23.065  1.00  0.00    -0.023 A 
HETATM   12  C6  LIG X 999      41.319 129.790  24.225  1.00  0.00     0.008 A 
HETATM   13  C3  LIG X 999      42.803 127.552  23.453  1.00  0.00     0.010 A 
HETATM   14  C13 LIG X 999      44.457 128.958  22.163  1.00  0.00     0.199 C 
HETATM   15  C2  LIG X 999      41.655 127.397  24.233  1.00  0.00     0.001 A 
HETATM   16  C1  LIG X 999      40.919 128.514  24.624  1.00  0.00     0.001 A 
HETATM   17  C12 LIG X 999      44.949 130.413  22.017  1.00  0.00     0.143 C 
HETATM   18 CL1  LIG X 999      46.098 130.540  20.653  1.00  0.00    -0.120 Cl
BRANCH  14  19
HETATM   19  N4  LIG X 999      45.550 128.143  22.691  1.00  0.00    -0.104 NA
HETATM   20  N5  LIG X 999      45.719 126.983  22.315  1.00  0.00    -0.167 NA
HETATM   21  N6  LIG X 999      45.887 125.823  21.938  1.00  0.00     0.068 N 
ENDBRANCH  14  19
ENDBRANCH   7   8
ENDBRANCH   6   7
ENDBRANCH   5   6
ENDBRANCH   4   5
ENDBRANCH   1   4
TORSDOF 6
