REMARK VINA RESULT:      -5.3      7.932     10.601
REMARK  2 active torsions:
REMARK  status: ('A' for Active; 'I' for Inactive)
REMARK    1  A    between atoms: C9_10  and  N2_11 
REMARK       I    between atoms: N2_11  and  C10_12 
REMARK    2  A    between atoms: C10_12  and  C11_14 
ROOT
HETATM    1  C11 LIG X 999      39.025 125.886  24.487  1.00  0.00     0.282 C 
HETATM    2 CL1  LIG X 999      37.788 126.693  23.492  1.00  0.00    -0.099 Cl
HETATM    3  C12 LIG X 999      38.862 124.432  24.385  1.00  0.00     0.089 C 
HETATM    4  N3  LIG X 999      38.733 123.285  24.304  1.00  0.00    -0.195 NA
ENDROOT
BRANCH   1   5
HETATM    5  C10 LIG X 999      40.391 126.284  24.024  1.00  0.00     0.276 C 
HETATM    6  N2  LIG X 999      41.254 125.306  23.423  1.00  0.00    -0.212 NA
HETATM    7  O1  LIG X 999      40.750 127.489  24.112  1.00  0.00    -0.268 OA
BRANCH   6   8
HETATM    8  C9  LIG X 999      42.657 125.451  23.160  1.00  0.00     0.061 A 
HETATM    9  C8  LIG X 999      43.331 126.670  23.363  1.00  0.00     0.032 A 
HETATM   10  C7  LIG X 999      44.702 126.772  23.117  1.00  0.00     0.014 A 
HETATM   11  C6  LIG X 999      45.426 125.656  22.678  1.00  0.00    -0.025 A 
HETATM   12  C5  LIG X 999      46.810 125.749  22.431  1.00  0.00     0.021 A 
HETATM   13  C14 LIG X 999      44.756 124.413  22.494  1.00  0.00    -0.023 A 
HETATM   14  C4  LIG X 999      47.489 124.609  21.998  1.00  0.00    -0.024 A 
HETATM   15  C3  LIG X 999      48.931 124.470  21.702  1.00  0.00     0.276 C 
HETATM   16  C16 LIG X 999      46.848 123.420  21.822  1.00  0.00    -0.024 A 
HETATM   17  N1  LIG X 999      49.100 123.084  21.158  1.00  0.00    -0.067 N 
HETATM   18  C1  LIG X 999      50.209 122.385  21.844  1.00  0.00     0.272 C 
HETATM   19  C2  LIG X 999      49.391 123.143  19.706  1.00  0.00     0.272 C 
HETATM   20  C17 LIG X 999      47.801 122.376  21.392  1.00  0.00     0.276 C 
HETATM   21  C15 LIG X 999      45.480 123.284  22.065  1.00  0.00     0.021 A 
HETATM   22  C13 LIG X 999      43.380 124.325  22.745  1.00  0.00     0.044 A 
ENDBRANCH   6   8
ENDBRANCH   1   5
TORSDOF 2
