REMARK VINA RESULT:      -8.5      0.000      0.000
REMARK  3 active torsions:
REMARK  status: ('A' for Active; 'I' for Inactive)
REMARK    1  A    between atoms: C2_2  and  N1_3 
REMARK       I    between atoms: N2_8  and  C7_9 
REMARK    2  A    between atoms: C7_9  and  C8_11 
REMARK    3  A    between atoms: C9_12  and  C10_13 
ROOT
HETATM    1  C8  LIG X 999      45.035 130.626  20.235  1.00  0.00     0.001 C 
HETATM    2  C9  LIG X 999      45.332 130.773  19.076  1.00  0.00    -0.057 C 
ENDROOT
BRANCH   1   3
HETATM    3  C7  LIG X 999      44.675 130.457  21.618  1.00  0.00     0.313 C 
HETATM    4  N2  LIG X 999      44.724 129.162  22.242  1.00  0.00    -0.269 N 
HETATM    5  N1  LIG X 999      44.384 128.986  23.597  1.00  0.00    -0.226 NA
HETATM    6  C6  LIG X 999      45.352 128.012  21.614  1.00  0.00     0.153 C 
HETATM    7  C3  LIG X 999      45.041 127.723  23.979  1.00  0.00     0.119 C 
HETATM    8  C4  LIG X 999      45.315 126.941  22.690  1.00  0.00     0.016 C 
HETATM    9  C5  LIG X 999      46.605 126.116  22.759  1.00  0.00     0.013 C 
HETATM   10  O1  LIG X 999      44.314 131.463  22.282  1.00  0.00    -0.257 OA
BRANCH   5  11
HETATM   11  C2  LIG X 999      42.914 128.885  23.702  1.00  0.00     0.109 C 
HETATM   12  C1  LIG X 999      42.525 127.735  24.625  1.00  0.00     0.023 C 
ENDBRANCH   5  11
ENDBRANCH   1   3
BRANCH   2  13
HETATM   13  C10 LIG X 999      45.687 130.952  17.694  1.00  0.00     0.019 A 
HETATM   14  C11 LIG X 999      45.253 132.089  17.001  1.00  0.00     0.021 A 
HETATM   15  C12 LIG X 999      45.592 132.269  15.657  1.00  0.00     0.013 A 
HETATM   16  C13 LIG X 999      46.370 131.309  14.992  1.00  0.00    -0.026 A 
HETATM   17  C14 LIG X 999      46.717 131.478  13.642  1.00  0.00     0.012 A 
HETATM   18  C18 LIG X 999      46.812 130.158  15.690  1.00  0.00    -0.025 A 
HETATM   19  C15 LIG X 999      47.493 130.516  12.992  1.00  0.00     0.001 A 
HETATM   20  C16 LIG X 999      47.928 129.378  13.680  1.00  0.00     0.001 A 
HETATM   21  C17 LIG X 999      47.590 129.198  15.024  1.00  0.00     0.012 A 
HETATM   22  C19 LIG X 999      46.465 129.987  17.039  1.00  0.00     0.032 A 
ENDBRANCH   2  13
TORSDOF 3
