REMARK VINA RESULT:      -4.8      8.223      9.719
REMARK  1 active torsions:
REMARK  status: ('A' for Active; 'I' for Inactive)
REMARK    1  A    between atoms: C11_13  and  N2_14 
ROOT
HETATM    1  N2  LIG X 999      44.765 127.684  23.458  1.00  0.00    -0.053 NA
HETATM    2  N3  LIG X 999      44.660 128.774  22.896  1.00  0.00    -0.160 NA
HETATM    3  N4  LIG X 999      44.565 129.868  22.342  1.00  0.00     0.068 N 
ENDROOT
BRANCH   1   4
HETATM    4  C11 LIG X 999      43.908 126.575  23.161  1.00  0.00     0.175 A 
HETATM    5  C10 LIG X 999      42.558 126.426  23.501  1.00  0.00     0.026 A 
HETATM    6  C5  LIG X 999      42.209 125.215  22.998  1.00  0.00     0.017 A 
HETATM    7  C9  LIG X 999      41.609 127.198  24.181  1.00  0.00     0.016 A 
HETATM    8  C4  LIG X 999      43.278 124.653  22.387  1.00  0.00     0.046 A 
HETATM    9  C6  LIG X 999      40.957 124.650  23.098  1.00  0.00     0.005 A 
HETATM   10  C3  LIG X 999      43.173 123.327  21.752  1.00  0.00     0.033 A 
HETATM   11  N5  LIG X 999      44.341 125.481  22.478  1.00  0.00    -0.337 N 
HETATM   12  C2  LIG X 999      41.982 122.687  21.795  1.00  0.00     0.034 A 
HETATM   13  C1  LIG X 999      40.793 123.310  22.474  1.00  0.00     0.059 A 
HETATM   14  N1  LIG X 999      39.652 122.698  22.516  1.00  0.00    -0.300 NA
HETATM   15  H1  LIG X 999      39.517 121.757  22.083  1.00  0.00     0.187 HD
HETATM   16  H7  LIG X 999      45.300 125.313  22.099  1.00  0.00     0.167 HD
HETATM   17  C7  LIG X 999      39.972 125.395  23.776  1.00  0.00     0.015 A 
HETATM   18  C8  LIG X 999      40.301 126.667  24.316  1.00  0.00     0.002 A 
ENDBRANCH   1   4
TORSDOF 1
