REMARK VINA RESULT:      -7.9      0.000      0.000
REMARK  7 active torsions:
REMARK  status: ('A' for Active; 'I' for Inactive)
REMARK    1  A    between atoms: N1_2  and  C2_3 
REMARK    2  A    between atoms: C2_3  and  C4_5 
REMARK    3  A    between atoms: C4_5  and  C5_6 
REMARK    4  A    between atoms: C5_6  and  C6_7 
REMARK    5  A    between atoms: C6_7  and  C7_8 
REMARK    6  A    between atoms: C7_8  and  N2_9 
REMARK    7  A    between atoms: N2_9  and  C8_10 
ROOT
HETATM    1  C8  LIG X 999      43.635 131.852  17.663  1.00  0.00     0.101 C 
HETATM    2  C9  LIG X 999      44.757 131.232  18.222  1.00  0.00     0.056 C 
HETATM    3  C10 LIG X 999      44.870 131.081  19.611  1.00  0.00    -0.045 C 
HETATM    4  C11 LIG X 999      46.231 130.682  20.127  1.00  0.00     0.049 C 
HETATM    5  C12 LIG X 999      43.768 131.442  20.446  1.00  0.00     0.008 C 
HETATM    6  C13 LIG X 999      42.725 132.198  19.839  1.00  0.00     0.045 C 
HETATM    7  C14 LIG X 999      41.738 132.803  20.628  1.00  0.00     0.031 C 
HETATM    8  C15 LIG X 999      41.745 132.659  22.008  1.00  0.00     0.014 C 
HETATM    9  C16 LIG X 999      42.672 131.815  22.623  1.00  0.00    -0.025 C 
HETATM   10  C17 LIG X 999      42.587 131.598  24.009  1.00  0.00     0.012 C 
HETATM   11  C18 LIG X 999      43.411 130.660  24.625  1.00  0.00     0.001 C 
HETATM   12  C19 LIG X 999      44.295 129.904  23.861  1.00  0.00     0.001 C 
HETATM   13  C20 LIG X 999      44.400 130.121  22.484  1.00  0.00     0.013 C 
HETATM   14  C21 LIG X 999      43.656 131.141  21.845  1.00  0.00    -0.013 C 
HETATM   15  N3  LIG X 999      42.681 132.361  18.486  1.00  0.00    -0.342 N 
HETATM   16  H28 LIG X 999      41.884 132.886  18.058  1.00  0.00     0.167 HD
ENDROOT
BRANCH   1  17
HETATM   17  N2  LIG X 999      43.501 132.028  16.239  1.00  0.00    -0.376 N 
HETATM   18  H17 LIG X 999      43.096 132.926  15.889  1.00  0.00     0.161 HD
BRANCH  17  19
HETATM   19  C7  LIG X 999      43.829 131.012  15.234  1.00  0.00     0.121 C 
BRANCH  19  20
HETATM   20  C6  LIG X 999      44.743 131.579  14.138  1.00  0.00     0.020 C 
BRANCH  20  21
HETATM   21  C5  LIG X 999      46.129 131.951  14.682  1.00  0.00     0.004 C 
BRANCH  21  22
HETATM   22  C4  LIG X 999      47.241 131.337  13.818  1.00  0.00     0.035 C 
BRANCH  22  23
HETATM   23  C2  LIG X 999      47.333 129.811  14.002  1.00  0.00     0.216 C 
HETATM   24  C3  LIG X 999      48.670 129.296  13.439  1.00  0.00     0.042 C 
BRANCH  23  25
HETATM   25  N1  LIG X 999      47.184 129.481  15.433  1.00  0.00     0.083 N 
HETATM   26  C1  LIG X 999      45.933 128.771  15.710  1.00  0.00     0.307 C 
HETATM   27  H4  LIG X 999      47.986 128.887  15.754  1.00  0.00     0.315 HD
ENDBRANCH  23  25
ENDBRANCH  22  23
ENDBRANCH  21  22
ENDBRANCH  20  21
ENDBRANCH  19  20
ENDBRANCH  17  19
ENDBRANCH   1  17
TORSDOF 7
