REMARK VINA RESULT:      -7.7      0.000      0.000
REMARK  1 active torsions:
REMARK  status: ('A' for Active; 'I' for Inactive)
REMARK    1  A    between atoms: C8_8  and  N1_9 
ROOT
HETATM    1  N1  LIG X 999      46.606 129.949  16.439  1.00  0.00    -0.072 NA
HETATM    2  N2  LIG X 999      46.898 129.938  15.242  1.00  0.00    -0.162 NA
HETATM    3  N3  LIG X 999      47.192 129.918  14.047  1.00  0.00     0.068 N 
ENDROOT
BRANCH   1   4
HETATM    4  C8  LIG X 999      45.428 130.593  16.944  1.00  0.00     0.104 A 
HETATM    5  C7  LIG X 999      44.448 131.010  16.001  1.00  0.00     0.038 A 
HETATM    6  C6  LIG X 999      43.280 131.694  16.405  1.00  0.00     0.035 A 
HETATM    7  C5  LIG X 999      43.106 131.949  17.762  1.00  0.00     0.073 A 
HETATM    8  C4  LIG X 999      44.038 131.522  18.662  1.00  0.00     0.021 A 
HETATM    9  N4  LIG X 999      41.997 132.588  18.404  1.00  0.00    -0.209 NA
HETATM   10  C3  LIG X 999      43.653 131.811  19.931  1.00  0.00     0.047 A 
HETATM   11  C9  LIG X 999      45.197 130.831  18.332  1.00  0.00     0.009 A 
HETATM   12  C2  LIG X 999      44.421 131.408  21.020  1.00  0.00     0.018 A 
HETATM   13  C11 LIG X 999      42.369 132.489  19.790  1.00  0.00     0.278 A 
HETATM   14  C1  LIG X 999      45.606 130.687  20.751  1.00  0.00     0.002 A 
HETATM   15  C10 LIG X 999      45.992 130.388  19.418  1.00  0.00     0.015 A 
HETATM   16  O1  LIG X 999      41.663 132.924  20.737  1.00  0.00    -0.265 OA
ENDBRANCH   1   4
TORSDOF 1
