MODEL 1
REMARK VINA RESULT:      -5.7      0.000      0.000
REMARK  2 active torsions:
REMARK  status: ('A' for Active; 'I' for Inactive)
REMARK    1  A    between atoms: C9_10  and  N2_11 
REMARK       I    between atoms: N2_11  and  C10_12 
REMARK    2  A    between atoms: C10_12  and  C11_14 
ROOT
HETATM    1  C11 LIG X 999      42.847 131.774  23.608  1.00  0.00     0.282 C 
HETATM    2 CL1  LIG X 999      42.135 130.496  24.625  1.00  0.00    -0.099 Cl
HETATM    3  C12 LIG X 999      44.153 132.159  24.152  1.00  0.00     0.089 C 
HETATM    4  N3  LIG X 999      45.183 132.464  24.581  1.00  0.00    -0.195 NA
ENDROOT
BRANCH   1   5
HETATM    5  C10 LIG X 999      43.001 131.287  22.202  1.00  0.00     0.276 C 
HETATM    6  N2  LIG X 999      42.699 132.163  21.107  1.00  0.00    -0.212 NA
HETATM    7  O1  LIG X 999      43.331 130.088  21.993  1.00  0.00    -0.268 OA
BRANCH   6   8
HETATM    8  C9  LIG X 999      43.025 131.948  19.726  1.00  0.00     0.061 A 
HETATM    9  C8  LIG X 999      42.052 132.226  18.759  1.00  0.00     0.032 A 
HETATM   10  C7  LIG X 999      42.325 132.051  17.400  1.00  0.00     0.014 A 
HETATM   11  C6  LIG X 999      43.587 131.610  16.986  1.00  0.00    -0.025 A 
HETATM   12  C5  LIG X 999      43.873 131.429  15.618  1.00  0.00     0.021 A 
HETATM   13  C14 LIG X 999      44.593 131.347  17.959  1.00  0.00    -0.023 A 
HETATM   14  C4  LIG X 999      45.149 131.002  15.252  1.00  0.00    -0.024 A 
HETATM   15  C3  LIG X 999      45.660 130.728  13.891  1.00  0.00     0.276 C 
HETATM   16  C16 LIG X 999      46.113 130.755  16.183  1.00  0.00    -0.024 A 
HETATM   17  N1  LIG X 999      47.118 130.431  14.059  1.00  0.00    -0.067 N 
HETATM   18  C1  LIG X 999      47.482 129.184  13.351  1.00  0.00     0.272 C 
HETATM   19  C2  LIG X 999      47.929 131.547  13.517  1.00  0.00     0.272 C 
HETATM   20  C17 LIG X 999      47.357 130.292  15.531  1.00  0.00     0.276 C 
HETATM   21  C15 LIG X 999      45.869 130.914  17.547  1.00  0.00     0.021 A 
HETATM   22  C13 LIG X 999      44.304 131.527  19.321  1.00  0.00     0.044 A 
ENDBRANCH   6   8
ENDBRANCH   1   5
TORSDOF 2
ENDMDL
MODEL 2
REMARK VINA RESULT:      -5.3      8.047      9.066
REMARK  2 active torsions:
REMARK  status: ('A' for Active; 'I' for Inactive)
REMARK    1  A    between atoms: C9_10  and  N2_11 
REMARK       I    between atoms: N2_11  and  C10_12 
REMARK    2  A    between atoms: C10_12  and  C11_14 
ROOT
HETATM    1  C11 LIG X 999      39.753 123.949  23.118  1.00  0.00     0.282 C 
HETATM    2 CL1  LIG X 999      39.889 122.569  24.236  1.00  0.00    -0.099 Cl
HETATM    3  C12 LIG X 999      39.209 125.107  23.834  1.00  0.00     0.089 C 
HETATM    4  N3  LIG X 999      38.780 126.020  24.399  1.00  0.00    -0.195 NA
ENDROOT
BRANCH   1   5
HETATM    5  C10 LIG X 999      41.096 124.283  22.547  1.00  0.00     0.276 C 
HETATM    6  N2  LIG X 999      42.075 124.940  23.366  1.00  0.00    -0.212 NA
HETATM    7  O1  LIG X 999      41.331 124.044  21.332  1.00  0.00    -0.268 OA
BRANCH   6   8
HETATM    8  C9  LIG X 999      43.468 125.104  23.065  1.00  0.00     0.061 A 
HETATM    9  C8  LIG X 999      44.024 126.385  23.154  1.00  0.00     0.032 A 
HETATM   10  C7  LIG X 999      45.380 126.595  22.889  1.00  0.00     0.014 A 
HETATM   11  C6  LIG X 999      46.206 125.518  22.547  1.00  0.00    -0.025 A 
HETATM   12  C5  LIG X 999      47.574 125.719  22.277  1.00  0.00     0.021 A 
HETATM   13  C14 LIG X 999      45.657 124.206  22.477  1.00  0.00    -0.023 A 
HETATM   14  C4  LIG X 999      48.362 124.613  21.954  1.00  0.00    -0.024 A 
HETATM   15  C3  LIG X 999      49.801 124.592  21.616  1.00  0.00     0.276 C 
HETATM   16  C16 LIG X 999      47.837 123.358  21.891  1.00  0.00    -0.024 A 
HETATM   17  N1  LIG X 999      50.164 123.144  21.487  1.00  0.00    -0.067 N 
HETATM   18  C1  LIG X 999      50.900 122.900  20.228  1.00  0.00     0.272 C 
HETATM   19  C2  LIG X 999      51.014 122.731  22.630  1.00  0.00     0.272 C 
HETATM   20  C17 LIG X 999      48.876 122.380  21.504  1.00  0.00     0.276 C 
HETATM   21  C15 LIG X 999      46.486 123.117  22.144  1.00  0.00     0.021 A 
HETATM   22  C13 LIG X 999      44.293 124.010  22.744  1.00  0.00     0.044 A 
ENDBRANCH   6   8
ENDBRANCH   1   5
TORSDOF 2
ENDMDL
MODEL 3
REMARK VINA RESULT:      -5.1      9.117     11.286
REMARK  2 active torsions:
REMARK  status: ('A' for Active; 'I' for Inactive)
REMARK    1  A    between atoms: C9_10  and  N2_11 
REMARK       I    between atoms: N2_11  and  C10_12 
REMARK    2  A    between atoms: C10_12  and  C11_14 
ROOT
HETATM    1  C11 LIG X 999      52.148 123.105  19.413  1.00  0.00     0.282 C 
HETATM    2 CL1  LIG X 999      52.409 123.098  17.651  1.00  0.00    -0.099 Cl
HETATM    3  C12 LIG X 999      52.973 124.150  20.026  1.00  0.00     0.089 C 
HETATM    4  N3  LIG X 999      53.625 124.975  20.509  1.00  0.00    -0.195 NA
ENDROOT
BRANCH   1   5
HETATM    5  C10 LIG X 999      50.703 123.348  19.719  1.00  0.00     0.276 C 
HETATM    6  N2  LIG X 999      50.246 123.311  21.078  1.00  0.00    -0.212 NA
HETATM    7  O1  LIG X 999      49.889 123.517  18.771  1.00  0.00    -0.268 OA
BRANCH   6   8
HETATM    8  C9  LIG X 999      48.973 123.761  21.563  1.00  0.00     0.061 A 
HETATM    9  C8  LIG X 999      48.858 125.081  22.014  1.00  0.00     0.032 A 
HETATM   10  C7  LIG X 999      47.636 125.573  22.480  1.00  0.00     0.014 A 
HETATM   11  C6  LIG X 999      46.501 124.752  22.484  1.00  0.00    -0.025 A 
HETATM   12  C5  LIG X 999      45.264 125.238  22.952  1.00  0.00     0.021 A 
HETATM   13  C14 LIG X 999      46.600 123.415  22.005  1.00  0.00    -0.023 A 
HETATM   14  C4  LIG X 999      44.158 124.389  22.924  1.00  0.00    -0.024 A 
HETATM   15  C3  LIG X 999      42.781 124.676  23.380  1.00  0.00     0.276 C 
HETATM   16  C16 LIG X 999      44.252 123.111  22.462  1.00  0.00    -0.024 A 
HETATM   17  N1  LIG X 999      41.971 123.475  23.001  1.00  0.00    -0.067 N 
HETATM   18  C1  LIG X 999      41.170 123.000  24.151  1.00  0.00     0.272 C 
HETATM   19  C2  LIG X 999      41.057 123.811  21.883  1.00  0.00     0.272 C 
HETATM   20  C17 LIG X 999      42.947 122.424  22.567  1.00  0.00     0.276 C 
HETATM   21  C15 LIG X 999      45.459 122.589  21.996  1.00  0.00     0.021 A 
HETATM   22  C13 LIG X 999      47.835 122.934  21.542  1.00  0.00     0.044 A 
ENDBRANCH   6   8
ENDBRANCH   1   5
TORSDOF 2
ENDMDL
MODEL 4
REMARK VINA RESULT:      -4.1      5.398      7.696
REMARK  2 active torsions:
REMARK  status: ('A' for Active; 'I' for Inactive)
REMARK    1  A    between atoms: C9_10  and  N2_11 
REMARK       I    between atoms: N2_11  and  C10_12 
REMARK    2  A    between atoms: C10_12  and  C11_14 
ROOT
HETATM    1  C11 LIG X 999      42.785 132.650  19.657  1.00  0.00     0.282 C 
HETATM    2 CL1  LIG X 999      42.068 131.787  18.273  1.00  0.00    -0.099 Cl
HETATM    3  C12 LIG X 999      41.717 133.149  20.529  1.00  0.00     0.089 C 
HETATM    4  N3  LIG X 999      40.874 133.542  21.217  1.00  0.00    -0.195 NA
ENDROOT
BRANCH   1   5
HETATM    5  C10 LIG X 999      43.687 131.734  20.424  1.00  0.00     0.276 C 
HETATM    6  N2  LIG X 999      43.238 131.163  21.661  1.00  0.00    -0.212 NA
HETATM    7  O1  LIG X 999      44.858 131.525  20.008  1.00  0.00    -0.268 OA
BRANCH   6   8
HETATM    8  C9  LIG X 999      43.860 130.091  22.383  1.00  0.00     0.061 A 
HETATM    9  C8  LIG X 999      43.716 130.049  23.774  1.00  0.00     0.032 A 
HETATM   10  C7  LIG X 999      44.287 129.015  24.521  1.00  0.00     0.014 A 
HETATM   11  C6  LIG X 999      45.000 127.994  23.881  1.00  0.00    -0.025 A 
HETATM   12  C5  LIG X 999      45.581 126.948  24.625  1.00  0.00     0.021 A 
HETATM   13  C14 LIG X 999      45.133 128.013  22.463  1.00  0.00    -0.023 A 
HETATM   14  C4  LIG X 999      46.269 125.945  23.943  1.00  0.00    -0.024 A 
HETATM   15  C3  LIG X 999      46.969 124.774  24.514  1.00  0.00     0.276 C 
HETATM   16  C16 LIG X 999      46.393 125.960  22.586  1.00  0.00    -0.024 A 
HETATM   17  N1  LIG X 999      47.416 123.959  23.341  1.00  0.00    -0.067 N 
HETATM   18  C1  LIG X 999      48.847 123.602  23.467  1.00  0.00     0.272 C 
HETATM   19  C2  LIG X 999      46.615 122.714  23.253  1.00  0.00     0.272 C 
HETATM   20  C17 LIG X 999      47.187 124.802  22.125  1.00  0.00     0.276 C 
HETATM   21  C15 LIG X 999      45.839 126.981  21.813  1.00  0.00     0.021 A 
HETATM   22  C13 LIG X 999      44.554 129.058  21.726  1.00  0.00     0.044 A 
ENDBRANCH   6   8
ENDBRANCH   1   5
TORSDOF 2
ENDMDL
MODEL 5
REMARK VINA RESULT:      -3.9      8.142      8.994
REMARK  2 active torsions:
REMARK  status: ('A' for Active; 'I' for Inactive)
REMARK    1  A    between atoms: C9_10  and  N2_11 
REMARK       I    between atoms: N2_11  and  C10_12 
REMARK    2  A    between atoms: C10_12  and  C11_14 
ROOT
HETATM    1  C11 LIG X 999      41.039 125.676  23.472  1.00  0.00     0.282 C 
HETATM    2 CL1  LIG X 999      40.005 124.794  24.625  1.00  0.00    -0.099 Cl
HETATM    3  C12 LIG X 999      41.571 126.881  24.117  1.00  0.00     0.089 C 
HETATM    4  N3  LIG X 999      41.990 127.832  24.625  1.00  0.00    -0.195 NA
ENDROOT
BRANCH   1   5
HETATM    5  C10 LIG X 999      42.163 124.801  23.015  1.00  0.00     0.276 C 
HETATM    6  N2  LIG X 999      43.402 125.392  22.598  1.00  0.00    -0.212 NA
HETATM    7  O1  LIG X 999      41.987 123.555  22.937  1.00  0.00    -0.268 OA
BRANCH   6   8
HETATM    8  C9  LIG X 999      44.643 124.706  22.375  1.00  0.00     0.061 A 
HETATM    9  C8  LIG X 999      44.606 123.342  22.062  1.00  0.00     0.032 A 
HETATM   10  C7  LIG X 999      45.784 122.633  21.818  1.00  0.00     0.014 A 
HETATM   11  C6  LIG X 999      47.022 123.285  21.866  1.00  0.00    -0.025 A 
HETATM   12  C5  LIG X 999      48.217 122.579  21.623  1.00  0.00     0.021 A 
HETATM   13  C14 LIG X 999      47.071 124.678  22.160  1.00  0.00    -0.023 A 
HETATM   14  C4  LIG X 999      49.425 123.274  21.667  1.00  0.00    -0.024 A 
HETATM   15  C3  LIG X 999      50.789 122.738  21.467  1.00  0.00     0.276 C 
HETATM   16  C16 LIG X 999      49.472 124.607  21.944  1.00  0.00    -0.024 A 
HETATM   17  N1  LIG X 999      51.698 123.928  21.491  1.00  0.00    -0.067 N 
HETATM   18  C1  LIG X 999      52.836 123.698  22.408  1.00  0.00     0.272 C 
HETATM   19  C2  LIG X 999      52.223 124.193  20.129  1.00  0.00     0.272 C 
HETATM   20  C17 LIG X 999      50.870 125.086  21.955  1.00  0.00     0.276 C 
HETATM   21  C15 LIG X 999      48.313 125.342  22.198  1.00  0.00     0.021 A 
HETATM   22  C13 LIG X 999      45.878 125.377  22.404  1.00  0.00     0.044 A 
ENDBRANCH   6   8
ENDBRANCH   1   5
TORSDOF 2
ENDMDL
MODEL 6
REMARK VINA RESULT:      -3.9      9.550     11.773
REMARK  2 active torsions:
REMARK  status: ('A' for Active; 'I' for Inactive)
REMARK    1  A    between atoms: C9_10  and  N2_11 
REMARK       I    between atoms: N2_11  and  C10_12 
REMARK    2  A    between atoms: C10_12  and  C11_14 
ROOT
HETATM    1  C11 LIG X 999      51.053 123.139  19.765  1.00  0.00     0.282 C 
HETATM    2 CL1  LIG X 999      50.631 123.231  18.037  1.00  0.00    -0.099 Cl
HETATM    3  C12 LIG X 999      52.129 124.092  20.057  1.00  0.00     0.089 C 
HETATM    4  N3  LIG X 999      52.978 124.844  20.287  1.00  0.00    -0.195 NA
ENDROOT
BRANCH   1   5
HETATM    5  C10 LIG X 999      49.854 123.448  20.605  1.00  0.00     0.276 C 
HETATM    6  N2  LIG X 999      48.722 122.566  20.582  1.00  0.00    -0.212 NA
HETATM    7  O1  LIG X 999      49.823 124.515  21.274  1.00  0.00    -0.268 OA
BRANCH   6   8
HETATM    8  C9  LIG X 999      47.615 122.573  21.495  1.00  0.00     0.061 A 
HETATM    9  C8  LIG X 999      47.873 122.398  22.860  1.00  0.00     0.032 A 
HETATM   10  C7  LIG X 999      46.832 122.415  23.791  1.00  0.00     0.014 A 
HETATM   11  C6  LIG X 999      45.513 122.627  23.371  1.00  0.00    -0.025 A 
HETATM   12  C5  LIG X 999      44.456 122.646  24.302  1.00  0.00     0.021 A 
HETATM   13  C14 LIG X 999      45.241 122.832  21.988  1.00  0.00    -0.023 A 
HETATM   14  C4  LIG X 999      43.161 122.875  23.839  1.00  0.00    -0.024 A 
HETATM   15  C3  LIG X 999      41.909 122.916  24.625  1.00  0.00     0.276 C 
HETATM   16  C16 LIG X 999      42.901 123.074  22.516  1.00  0.00    -0.024 A 
HETATM   17  N1  LIG X 999      40.839 123.327  23.661  1.00  0.00    -0.067 N 
HETATM   18  C1  LIG X 999      39.676 122.417  23.752  1.00  0.00     0.272 C 
HETATM   19  C2  LIG X 999      40.394 124.710  23.955  1.00  0.00     0.272 C 
HETATM   20  C17 LIG X 999      41.452 123.266  22.295  1.00  0.00     0.276 C 
HETATM   21  C15 LIG X 999      43.918 123.057  21.561  1.00  0.00     0.021 A 
HETATM   22  C13 LIG X 999      46.297 122.810  21.063  1.00  0.00     0.044 A 
ENDBRANCH   6   8
ENDBRANCH   1   5
TORSDOF 2
ENDMDL
MODEL 7
REMARK VINA RESULT:      -3.8      8.881      9.949
REMARK  2 active torsions:
REMARK  status: ('A' for Active; 'I' for Inactive)
REMARK    1  A    between atoms: C9_10  and  N2_11 
REMARK       I    between atoms: N2_11  and  C10_12 
REMARK    2  A    between atoms: C10_12  and  C11_14 
ROOT
HETATM    1  C11 LIG X 999      39.751 123.918  23.190  1.00  0.00     0.282 C 
HETATM    2 CL1  LIG X 999      39.240 122.763  24.446  1.00  0.00    -0.099 Cl
HETATM    3  C12 LIG X 999      39.383 125.278  23.597  1.00  0.00     0.089 C 
HETATM    4  N3  LIG X 999      39.092 126.350  23.919  1.00  0.00    -0.195 NA
ENDROOT
BRANCH   1   5
HETATM    5  C10 LIG X 999      41.231 123.830  22.980  1.00  0.00     0.276 C 
HETATM    6  N2  LIG X 999      42.124 124.211  24.036  1.00  0.00    -0.212 NA
HETATM    7  O1  LIG X 999      41.678 123.483  21.853  1.00  0.00    -0.268 OA
BRANCH   6   8
HETATM    8  C9  LIG X 999      43.535 123.956  24.094  1.00  0.00     0.061 A 
HETATM    9  C8  LIG X 999      43.968 122.680  24.474  1.00  0.00     0.032 A 
HETATM   10  C7  LIG X 999      45.330 122.375  24.529  1.00  0.00     0.014 A 
HETATM   11  C6  LIG X 999      46.283 123.342  24.186  1.00  0.00    -0.025 A 
HETATM   12  C5  LIG X 999      47.660 123.045  24.240  1.00  0.00     0.021 A 
HETATM   13  C14 LIG X 999      45.854 124.636  23.775  1.00  0.00    -0.023 A 
HETATM   14  C4  LIG X 999      48.572 124.035  23.875  1.00  0.00    -0.024 A 
HETATM   15  C3  LIG X 999      50.049 123.954  23.875  1.00  0.00     0.276 C 
HETATM   16  C16 LIG X 999      48.161 125.272  23.477  1.00  0.00    -0.024 A 
HETATM   17  N1  LIG X 999      50.524 125.240  23.273  1.00  0.00    -0.067 N 
HETATM   18  C1  LIG X 999      51.568 125.859  24.119  1.00  0.00     0.272 C 
HETATM   19  C2  LIG X 999      51.083 124.992  21.922  1.00  0.00     0.272 C 
HETATM   20  C17 LIG X 999      49.325 126.133  23.175  1.00  0.00     0.276 C 
HETATM   21  C15 LIG X 999      46.809 125.609  23.418  1.00  0.00     0.021 A 
HETATM   22  C13 LIG X 999      44.482 124.928  23.725  1.00  0.00     0.044 A 
ENDBRANCH   6   8
ENDBRANCH   1   5
TORSDOF 2
ENDMDL
MODEL 8
REMARK VINA RESULT:      -3.6      3.413      8.014
REMARK  2 active torsions:
REMARK  status: ('A' for Active; 'I' for Inactive)
REMARK    1  A    between atoms: C9_10  and  N2_11 
REMARK       I    between atoms: N2_11  and  C10_12 
REMARK    2  A    between atoms: C10_12  and  C11_14 
ROOT
HETATM    1  C11 LIG X 999      47.026 129.792  13.515  1.00  0.00     0.282 C 
HETATM    2 CL1  LIG X 999      46.898 131.389  12.736  1.00  0.00    -0.099 Cl
HETATM    3  C12 LIG X 999      48.439 129.465  13.729  1.00  0.00     0.089 C 
HETATM    4  N3  LIG X 999      49.554 129.207  13.898  1.00  0.00    -0.195 NA
ENDROOT
BRANCH   1   5
HETATM    5  C10 LIG X 999      46.297 129.797  14.822  1.00  0.00     0.276 C 
HETATM    6  N2  LIG X 999      46.161 131.022  15.558  1.00  0.00    -0.212 NA
HETATM    7  O1  LIG X 999      45.866 128.712  15.296  1.00  0.00    -0.268 OA
BRANCH   6   8
HETATM    8  C9  LIG X 999      45.295 131.253  16.678  1.00  0.00     0.061 A 
HETATM    9  C8  LIG X 999      43.977 131.652  16.433  1.00  0.00     0.032 A 
HETATM   10  C7  LIG X 999      43.089 131.872  17.489  1.00  0.00     0.014 A 
HETATM   11  C6  LIG X 999      43.505 131.678  18.812  1.00  0.00    -0.025 A 
HETATM   12  C5  LIG X 999      42.618 131.899  19.884  1.00  0.00     0.021 A 
HETATM   13  C14 LIG X 999      44.837 131.248  19.073  1.00  0.00    -0.023 A 
HETATM   14  C4  LIG X 999      43.073 131.678  21.184  1.00  0.00    -0.024 A 
HETATM   15  C3  LIG X 999      42.331 131.864  22.450  1.00  0.00     0.276 C 
HETATM   16  C16 LIG X 999      44.346 131.263  21.434  1.00  0.00    -0.024 A 
HETATM   17  N1  LIG X 999      43.239 131.360  23.529  1.00  0.00    -0.067 N 
HETATM   18  C1  LIG X 999      43.346 132.348  24.625  1.00  0.00     0.272 C 
HETATM   19  C2  LIG X 999      42.717 130.086  24.078  1.00  0.00     0.272 C 
HETATM   20  C17 LIG X 999      44.574 131.134  22.889  1.00  0.00     0.276 C 
HETATM   21  C15 LIG X 999      45.258 131.040  20.401  1.00  0.00     0.021 A 
HETATM   22  C13 LIG X 999      45.719 131.032  18.002  1.00  0.00     0.044 A 
ENDBRANCH   6   8
ENDBRANCH   1   5
TORSDOF 2
ENDMDL
MODEL 9
REMARK VINA RESULT:      -3.1      8.627     10.621
REMARK  2 active torsions:
REMARK  status: ('A' for Active; 'I' for Inactive)
REMARK    1  A    between atoms: C9_10  and  N2_11 
REMARK       I    between atoms: N2_11  and  C10_12 
REMARK    2  A    between atoms: C10_12  and  C11_14 
ROOT
HETATM    1  C11 LIG X 999      50.000 123.156  22.006  1.00  0.00     0.282 C 
HETATM    2 CL1  LIG X 999      50.121 123.738  20.327  1.00  0.00    -0.099 Cl
HETATM    3  C12 LIG X 999      51.300 123.300  22.668  1.00  0.00     0.089 C 
HETATM    4  N3  LIG X 999      52.326 123.414  23.191  1.00  0.00    -0.195 NA
ENDROOT
BRANCH   1   5
HETATM    5  C10 LIG X 999      48.958 123.934  22.748  1.00  0.00     0.276 C 
HETATM    6  N2  LIG X 999      47.787 124.393  22.058  1.00  0.00    -0.212 NA
HETATM    7  O1  LIG X 999      49.152 124.234  23.956  1.00  0.00    -0.268 OA
BRANCH   6   8
HETATM    8  C9  LIG X 999      46.596 124.922  22.657  1.00  0.00     0.061 A 
HETATM    9  C8  LIG X 999      46.719 125.968  23.578  1.00  0.00     0.032 A 
HETATM   10  C7  LIG X 999      45.589 126.531  24.176  1.00  0.00     0.014 A 
HETATM   11  C6  LIG X 999      44.311 126.064  23.846  1.00  0.00    -0.025 A 
HETATM   12  C5  LIG X 999      43.164 126.623  24.444  1.00  0.00     0.021 A 
HETATM   13  C14 LIG X 999      44.171 125.016  22.892  1.00  0.00    -0.023 A 
HETATM   14  C4  LIG X 999      41.911 126.136  24.073  1.00  0.00    -0.024 A 
HETATM   15  C3  LIG X 999      40.587 126.554  24.582  1.00  0.00     0.276 C 
HETATM   16  C16 LIG X 999      41.777 125.136  23.157  1.00  0.00    -0.024 A 
HETATM   17  N1  LIG X 999      39.584 125.809  23.756  1.00  0.00    -0.067 N 
HETATM   18  C1  LIG X 999      38.581 125.150  24.622  1.00  0.00     0.272 C 
HETATM   19  C2  LIG X 999      38.888 126.743  22.838  1.00  0.00     0.272 C 
HETATM   20  C17 LIG X 999      40.351 124.793  22.968  1.00  0.00     0.276 C 
HETATM   21  C15 LIG X 999      42.887 124.550  22.547  1.00  0.00     0.021 A 
HETATM   22  C13 LIG X 999      45.316 124.460  22.300  1.00  0.00     0.044 A 
ENDBRANCH   6   8
ENDBRANCH   1   5
TORSDOF 2
ENDMDL
