MODEL 1
REMARK VINA RESULT:      -8.0      0.000      0.000
REMARK  3 active torsions:
REMARK  status: ('A' for Active; 'I' for Inactive)
REMARK    1  A    between atoms: C3_3  and  S1_4 
REMARK    2  A    between atoms: S1_4  and  C4_5 
REMARK    3  A    between atoms: C8_9  and  N1_10 
ROOT
HETATM    1  C1  LIG X 999      47.246 131.175  13.373  1.00  0.00     0.013 C 
HETATM    2  C2  LIG X 999      46.828 131.323  14.494  1.00  0.00    -0.107 C 
HETATM    3  C3  LIG X 999      46.325 131.506  15.858  1.00  0.00     0.172 C 
ENDROOT
BRANCH   3   4
HETATM    4  S1  LIG X 999      45.911 129.894  16.606  1.00  0.00    -0.117 SA
BRANCH   4   5
HETATM    5  C4  LIG X 999      45.412 130.578  18.196  1.00  0.00     0.015 A 
HETATM    6  C5  LIG X 999      46.237 130.269  19.316  1.00  0.00     0.020 A 
HETATM    7  C6  LIG X 999      45.851 130.614  20.630  1.00  0.00     0.018 A 
HETATM    8  C7  LIG X 999      44.635 131.269  20.788  1.00  0.00     0.026 A 
HETATM    9  C8  LIG X 999      43.893 131.651  21.894  1.00  0.00     0.175 A 
HETATM   10  C10 LIG X 999      43.876 131.592  19.711  1.00  0.00     0.019 A 
HETATM   11  N4  LIG X 999      42.700 132.177  21.503  1.00  0.00    -0.337 N 
HETATM   12  H6  LIG X 999      41.921 132.512  22.112  1.00  0.00     0.167 HD
HETATM   13  C9  LIG X 999      42.710 132.130  20.151  1.00  0.00     0.046 A 
HETATM   14  C14 LIG X 999      41.633 132.462  19.210  1.00  0.00     0.033 C 
HETATM   15  C13 LIG X 999      41.859 132.281  17.893  1.00  0.00     0.034 C 
HETATM   16  C12 LIG X 999      43.182 131.785  17.389  1.00  0.00     0.060 C 
HETATM   17  C11 LIG X 999      44.202 131.314  18.394  1.00  0.00     0.022 A 
HETATM   18  N5  LIG X 999      43.438 131.927  16.127  1.00  0.00    -0.299 NA
HETATM   19  H7  LIG X 999      44.353 131.725  15.678  1.00  0.00     0.187 HD
BRANCH   9  20
HETATM   20  N1  LIG X 999      44.290 131.463  23.254  1.00  0.00    -0.053 NA
HETATM   21  N2  LIG X 999      44.298 130.343  23.767  1.00  0.00    -0.160 NA
HETATM   22  N3  LIG X 999      44.305 129.226  24.280  1.00  0.00     0.068 N 
ENDBRANCH   9  20
ENDBRANCH   4   5
ENDBRANCH   3   4
TORSDOF 3
ENDMDL
MODEL 2
REMARK VINA RESULT:      -6.9      2.610      5.847
REMARK  3 active torsions:
REMARK  status: ('A' for Active; 'I' for Inactive)
REMARK    1  A    between atoms: C3_3  and  S1_4 
REMARK    2  A    between atoms: S1_4  and  C4_5 
REMARK    3  A    between atoms: C8_9  and  N1_10 
ROOT
HETATM    1  C1  LIG X 999      44.720 128.203  23.260  1.00  0.00     0.013 C 
HETATM    2  C2  LIG X 999      44.168 129.266  23.394  1.00  0.00    -0.107 C 
HETATM    3  C3  LIG X 999      43.493 130.557  23.554  1.00  0.00     0.172 C 
ENDROOT
BRANCH   3   4
HETATM    4  S1  LIG X 999      44.601 131.921  23.063  1.00  0.00    -0.117 SA
BRANCH   4   5
HETATM    5  C4  LIG X 999      44.714 131.422  21.336  1.00  0.00     0.015 A 
HETATM    6  C5  LIG X 999      45.920 130.781  20.929  1.00  0.00     0.020 A 
HETATM    7  C6  LIG X 999      46.180 130.497  19.571  1.00  0.00     0.018 A 
HETATM    8  C7  LIG X 999      45.211 130.867  18.645  1.00  0.00     0.026 A 
HETATM    9  C8  LIG X 999      45.163 130.858  17.260  1.00  0.00     0.175 A 
HETATM   10  C10 LIG X 999      44.051 131.441  19.046  1.00  0.00     0.019 A 
HETATM   11  N4  LIG X 999      44.007 131.433  16.825  1.00  0.00    -0.337 N 
HETATM   12  H6  LIG X 999      43.712 131.602  15.837  1.00  0.00     0.167 HD
HETATM   13  C9  LIG X 999      43.336 131.786  17.944  1.00  0.00     0.046 A 
HETATM   14  C14 LIG X 999      42.084 132.544  18.067  1.00  0.00     0.033 C 
HETATM   15  C13 LIG X 999      41.630 132.829  19.304  1.00  0.00     0.034 C 
HETATM   16  C12 LIG X 999      42.359 132.362  20.530  1.00  0.00     0.060 C 
HETATM   17  C11 LIG X 999      43.713 131.722  20.360  1.00  0.00     0.022 A 
HETATM   18  N5  LIG X 999      41.724 132.395  21.659  1.00  0.00    -0.299 NA
HETATM   19  H7  LIG X 999      42.076 132.002  22.553  1.00  0.00     0.187 HD
BRANCH   9  20
HETATM   20  N1  LIG X 999      46.201 130.377  16.404  1.00  0.00    -0.053 NA
HETATM   21  N2  LIG X 999      46.523 130.988  15.385  1.00  0.00    -0.160 NA
HETATM   22  N3  LIG X 999      46.843 131.599  14.367  1.00  0.00     0.068 N 
ENDBRANCH   9  20
ENDBRANCH   4   5
ENDBRANCH   3   4
TORSDOF 3
ENDMDL
MODEL 3
REMARK VINA RESULT:      -5.9      6.464      8.314
REMARK  3 active torsions:
REMARK  status: ('A' for Active; 'I' for Inactive)
REMARK    1  A    between atoms: C3_3  and  S1_4 
REMARK    2  A    between atoms: S1_4  and  C4_5 
REMARK    3  A    between atoms: C8_9  and  N1_10 
ROOT
HETATM    1  C1  LIG X 999      43.307 131.313  21.711  1.00  0.00     0.013 C 
HETATM    2  C2  LIG X 999      43.679 130.425  22.436  1.00  0.00    -0.107 C 
HETATM    3  C3  LIG X 999      44.135 129.344  23.314  1.00  0.00     0.172 C 
ENDROOT
BRANCH   3   4
HETATM    4  S1  LIG X 999      42.759 128.206  23.691  1.00  0.00    -0.117 SA
BRANCH   4   5
HETATM    5  C4  LIG X 999      43.714 126.703  23.421  1.00  0.00     0.015 A 
HETATM    6  C5  LIG X 999      45.122 126.790  23.624  1.00  0.00     0.020 A 
HETATM    7  C6  LIG X 999      45.981 125.723  23.284  1.00  0.00     0.018 A 
HETATM    8  C7  LIG X 999      45.400 124.582  22.744  1.00  0.00     0.026 A 
HETATM    9  C8  LIG X 999      45.913 123.415  22.200  1.00  0.00     0.175 A 
HETATM   10  C10 LIG X 999      44.055 124.494  22.591  1.00  0.00     0.019 A 
HETATM   11  N4  LIG X 999      44.906 122.642  21.708  1.00  0.00    -0.337 N 
HETATM   12  H6  LIG X 999      44.990 121.729  21.207  1.00  0.00     0.167 HD
HETATM   13  C9  LIG X 999      43.768 123.327  21.959  1.00  0.00     0.046 A 
HETATM   14  C14 LIG X 999      42.394 123.015  21.545  1.00  0.00     0.033 C 
HETATM   15  C13 LIG X 999      41.417 123.887  21.867  1.00  0.00     0.034 C 
HETATM   16  C12 LIG X 999      41.709 125.129  22.657  1.00  0.00     0.060 C 
HETATM   17  C11 LIG X 999      43.149 125.486  22.929  1.00  0.00     0.022 A 
HETATM   18  N5  LIG X 999      40.708 125.752  23.193  1.00  0.00    -0.299 NA
HETATM   19  H7  LIG X 999      40.787 126.555  23.848  1.00  0.00     0.187 HD
BRANCH   9  20
HETATM   20  N1  LIG X 999      47.302 123.094  22.107  1.00  0.00    -0.053 NA
HETATM   21  N2  LIG X 999      47.914 123.209  21.045  1.00  0.00    -0.160 NA
HETATM   22  N3  LIG X 999      48.525 123.325  19.984  1.00  0.00     0.068 N 
ENDBRANCH   9  20
ENDBRANCH   4   5
ENDBRANCH   3   4
TORSDOF 3
ENDMDL
MODEL 4
REMARK VINA RESULT:      -5.6      5.742      7.643
REMARK  3 active torsions:
REMARK  status: ('A' for Active; 'I' for Inactive)
REMARK    1  A    between atoms: C3_3  and  S1_4 
REMARK    2  A    between atoms: S1_4  and  C4_5 
REMARK    3  A    between atoms: C8_9  and  N1_10 
ROOT
HETATM    1  C1  LIG X 999      42.998 131.905  20.648  1.00  0.00     0.013 C 
HETATM    2  C2  LIG X 999      43.466 131.251  21.547  1.00  0.00    -0.107 C 
HETATM    3  C3  LIG X 999      44.036 130.455  22.636  1.00  0.00     0.172 C 
ENDROOT
BRANCH   3   4
HETATM    4  S1  LIG X 999      42.713 129.802  23.709  1.00  0.00    -0.117 SA
BRANCH   4   5
HETATM    5  C4  LIG X 999      43.203 128.077  23.537  1.00  0.00     0.015 A 
HETATM    6  C5  LIG X 999      44.567 127.825  23.210  1.00  0.00     0.020 A 
HETATM    7  C6  LIG X 999      45.019 126.526  22.893  1.00  0.00     0.018 A 
HETATM    8  C7  LIG X 999      44.080 125.501  22.913  1.00  0.00     0.026 A 
HETATM    9  C8  LIG X 999      44.122 124.162  22.557  1.00  0.00     0.175 A 
HETATM   10  C10 LIG X 999      42.793 125.744  23.263  1.00  0.00     0.019 A 
HETATM   11  N4  LIG X 999      42.884 123.606  22.669  1.00  0.00    -0.337 N 
HETATM   12  H6  LIG X 999      42.600 122.629  22.432  1.00  0.00     0.167 HD
HETATM   13  C9  LIG X 999      42.079 124.600  23.105  1.00  0.00     0.046 A 
HETATM   14  C14 LIG X 999      40.622 124.593  23.289  1.00  0.00     0.033 C 
HETATM   15  C13 LIG X 999      40.023 125.735  23.684  1.00  0.00     0.034 C 
HETATM   16  C12 LIG X 999      40.817 126.977  23.962  1.00  0.00     0.060 C 
HETATM   17  C11 LIG X 999      42.284 126.984  23.615  1.00  0.00     0.022 A 
HETATM   18  N5  LIG X 999      40.238 127.928  24.625  1.00  0.00    -0.299 NA
HETATM   19  H7  LIG X 999      40.710 128.786  24.972  1.00  0.00     0.187 HD
BRANCH   9  20
HETATM   20  N1  LIG X 999      45.279 123.474  22.080  1.00  0.00    -0.053 NA
HETATM   21  N2  LIG X 999      46.147 123.070  22.855  1.00  0.00    -0.160 NA
HETATM   22  N3  LIG X 999      47.014 122.668  23.629  1.00  0.00     0.068 N 
ENDBRANCH   9  20
ENDBRANCH   4   5
ENDBRANCH   3   4
TORSDOF 3
ENDMDL
MODEL 5
REMARK VINA RESULT:      -5.6      4.360      6.149
REMARK  3 active torsions:
REMARK  status: ('A' for Active; 'I' for Inactive)
REMARK    1  A    between atoms: C3_3  and  S1_4 
REMARK    2  A    between atoms: S1_4  and  C4_5 
REMARK    3  A    between atoms: C8_9  and  N1_10 
ROOT
HETATM    1  C1  LIG X 999      44.839 131.520  18.203  1.00  0.00     0.013 C 
HETATM    2  C2  LIG X 999      45.208 131.144  19.288  1.00  0.00    -0.107 C 
HETATM    3  C3  LIG X 999      45.657 130.682  20.604  1.00  0.00     0.172 C 
ENDROOT
BRANCH   3   4
HETATM    4  S1  LIG X 999      44.366 130.980  21.858  1.00  0.00    -0.117 SA
BRANCH   4   5
HETATM    5  C4  LIG X 999      44.356 129.292  22.484  1.00  0.00     0.015 A 
HETATM    6  C5  LIG X 999      45.415 128.440  22.055  1.00  0.00     0.020 A 
HETATM    7  C6  LIG X 999      45.414 127.060  22.351  1.00  0.00     0.018 A 
HETATM    8  C7  LIG X 999      44.340 126.563  23.080  1.00  0.00     0.026 A 
HETATM    9  C8  LIG X 999      43.946 125.288  23.450  1.00  0.00     0.175 A 
HETATM   10  C10 LIG X 999      43.357 127.389  23.517  1.00  0.00     0.019 A 
HETATM   11  N4  LIG X 999      42.739 125.331  24.080  1.00  0.00    -0.337 N 
HETATM   12  H6  LIG X 999      42.176 124.526  24.434  1.00  0.00     0.167 HD
HETATM   13  C9  LIG X 999      42.394 126.637  24.110  1.00  0.00     0.046 A 
HETATM   14  C14 LIG X 999      41.140 127.249  24.570  1.00  0.00     0.033 C 
HETATM   15  C13 LIG X 999      41.000 128.584  24.448  1.00  0.00     0.034 C 
HETATM   16  C12 LIG X 999      42.101 129.437  23.889  1.00  0.00     0.060 C 
HETATM   17  C11 LIG X 999      43.305 128.755  23.291  1.00  0.00     0.022 A 
HETATM   18  N5  LIG X 999      42.031 130.716  24.084  1.00  0.00    -0.299 NA
HETATM   19  H7  LIG X 999      42.778 131.397  23.844  1.00  0.00     0.187 HD
BRANCH   9  20
HETATM   20  N1  LIG X 999      44.665 124.088  23.157  1.00  0.00    -0.053 NA
HETATM   21  N2  LIG X 999      45.819 123.923  23.554  1.00  0.00    -0.160 NA
HETATM   22  N3  LIG X 999      46.971 123.759  23.949  1.00  0.00     0.068 N 
ENDBRANCH   9  20
ENDBRANCH   4   5
ENDBRANCH   3   4
TORSDOF 3
ENDMDL
MODEL 6
REMARK VINA RESULT:      -5.4      1.685      2.534
REMARK  3 active torsions:
REMARK  status: ('A' for Active; 'I' for Inactive)
REMARK    1  A    between atoms: C3_3  and  S1_4 
REMARK    2  A    between atoms: S1_4  and  C4_5 
REMARK    3  A    between atoms: C8_9  and  N1_10 
ROOT
HETATM    1  C1  LIG X 999      46.453 131.340  14.616  1.00  0.00     0.013 C 
HETATM    2  C2  LIG X 999      46.128 131.032  15.736  1.00  0.00    -0.107 C 
HETATM    3  C3  LIG X 999      45.732 130.653  17.095  1.00  0.00     0.172 C 
ENDROOT
BRANCH   3   4
HETATM    4  S1  LIG X 999      44.355 131.701  17.673  1.00  0.00    -0.117 SA
BRANCH   4   5
HETATM    5  C4  LIG X 999      44.505 131.223  19.403  1.00  0.00     0.015 A 
HETATM    6  C5  LIG X 999      45.513 130.267  19.722  1.00  0.00     0.020 A 
HETATM    7  C6  LIG X 999      45.609 129.703  21.012  1.00  0.00     0.018 A 
HETATM    8  C7  LIG X 999      44.682 130.116  21.961  1.00  0.00     0.026 A 
HETATM    9  C8  LIG X 999      44.397 129.714  23.256  1.00  0.00     0.175 A 
HETATM   10  C10 LIG X 999      43.751 131.055  21.658  1.00  0.00     0.019 A 
HETATM   11  N4  LIG X 999      43.304 130.378  23.727  1.00  0.00    -0.337 N 
HETATM   12  H6  LIG X 999      42.833 130.255  24.651  1.00  0.00     0.167 HD
HETATM   13  C9  LIG X 999      42.921 131.200  22.724  1.00  0.00     0.046 A 
HETATM   14  C14 LIG X 999      41.735 132.061  22.641  1.00  0.00     0.033 C 
HETATM   15  C13 LIG X 999      41.529 132.756  21.504  1.00  0.00     0.034 C 
HETATM   16  C12 LIG X 999      42.497 132.684  20.359  1.00  0.00     0.060 C 
HETATM   17  C11 LIG X 999      43.615 131.674  20.427  1.00  0.00     0.022 A 
HETATM   18  N5  LIG X 999      42.413 133.593  19.440  1.00  0.00    -0.299 NA
HETATM   19  H7  LIG X 999      43.088 133.715  18.660  1.00  0.00     0.187 HD
BRANCH   9  20
HETATM   20  N1  LIG X 999      45.103 128.702  23.976  1.00  0.00    -0.053 NA
HETATM   21  N2  LIG X 999      44.964 127.510  23.704  1.00  0.00    -0.160 NA
HETATM   22  N3  LIG X 999      44.824 126.319  23.432  1.00  0.00     0.068 N 
ENDBRANCH   9  20
ENDBRANCH   4   5
ENDBRANCH   3   4
TORSDOF 3
ENDMDL
