REMARK VINA RESULT:      -6.2      5.193      6.889
REMARK  3 active torsions:
REMARK  status: ('A' for Active; 'I' for Inactive)
REMARK    1  A    between atoms: C6_6  and  C7_7 
REMARK    2  A    between atoms: C7_7  and  N1_8 
REMARK    3  A    between atoms: C8_12  and  N4_13 
ROOT
HETATM    1  N1  LIG X 999      45.035 130.205  22.289  1.00  0.00    -0.065 NA
HETATM    2  N2  LIG X 999      44.928 128.979  22.344  1.00  0.00    -0.164 NA
HETATM    3  N3  LIG X 999      44.822 127.756  22.399  1.00  0.00     0.068 N 
ENDROOT
BRANCH   1   4
HETATM    4  C7  LIG X 999      43.977 131.017  21.702  1.00  0.00     0.267 A 
HETATM    5  O1  LIG X 999      43.773 132.212  22.422  1.00  0.00    -0.314 OA
HETATM    6  C8  LIG X 999      42.744 131.248  22.496  1.00  0.00     0.349 A 
BRANCH   4   7
HETATM    7  C6  LIG X 999      43.963 131.213  20.215  1.00  0.00     0.007 A 
HETATM    8  C5  LIG X 999      45.060 130.813  19.438  1.00  0.00     0.024 A 
HETATM    9  C4  LIG X 999      45.035 130.974  18.044  1.00  0.00    -0.025 A 
HETATM   10  C3  LIG X 999      46.130 130.582  17.258  1.00  0.00     0.012 A 
HETATM   11  C11 LIG X 999      43.892 131.534  17.423  1.00  0.00    -0.026 A 
HETATM   12  C2  LIG X 999      46.092 130.747  15.870  1.00  0.00     0.001 A 
HETATM   13  C1  LIG X 999      44.965 131.301  15.258  1.00  0.00     0.001 A 
HETATM   14  C12 LIG X 999      43.867 131.694  16.028  1.00  0.00     0.012 A 
HETATM   15  C10 LIG X 999      42.795 131.921  18.207  1.00  0.00     0.013 A 
HETATM   16  C9  LIG X 999      42.831 131.757  19.594  1.00  0.00     0.013 A 
ENDBRANCH   4   7
BRANCH   6  17
HETATM   17  N4  LIG X 999      42.707 130.646  23.821  1.00  0.00    -0.077 NA
HETATM   18  N5  LIG X 999      41.938 129.718  24.068  1.00  0.00    -0.165 NA
HETATM   19  N6  LIG X 999      41.168 128.791  24.313  1.00  0.00     0.068 N 
ENDBRANCH   6  17
ENDBRANCH   1   4
TORSDOF 3
