REMARK VINA RESULT:      -6.4      2.693      5.139
REMARK  2 active torsions:
REMARK  status: ('A' for Active; 'I' for Inactive)
REMARK    1  A    between atoms: N1_1  and  C1_2 
REMARK    2  A    between atoms: C2_5  and  C3_6 
ROOT
HETATM    1  C3  LIG X 999      44.873 131.127  16.937  1.00  0.00     0.030 A 
HETATM    2  C4  LIG X 999      43.617 131.691  16.654  1.00  0.00     0.017 A 
HETATM    3  C5  LIG X 999      43.219 131.934  15.341  1.00  0.00     0.002 A 
HETATM    4  C6  LIG X 999      44.064 131.618  14.281  1.00  0.00     0.012 A 
HETATM    5  C7  LIG X 999      45.312 131.029  14.524  1.00  0.00    -0.025 A 
HETATM    6  C8  LIG X 999      46.144 130.690  13.445  1.00  0.00     0.012 A 
HETATM    7  C9  LIG X 999      47.372 130.070  13.669  1.00  0.00     0.001 A 
HETATM    8  C10 LIG X 999      47.774 129.768  14.969  1.00  0.00     0.001 A 
HETATM    9  C11 LIG X 999      46.962 130.100  16.056  1.00  0.00     0.013 A 
HETATM   10  C12 LIG X 999      45.727 130.760  15.859  1.00  0.00    -0.011 A 
ENDROOT
BRANCH   1  11
HETATM   11  C2  LIG X 999      45.254 130.980  18.364  1.00  0.00     0.205 A 
HETATM   12  N3  LIG X 999      45.838 129.878  18.878  1.00  0.00    -0.119 NA
HETATM   13  N2  LIG X 999      45.992 130.100  20.175  1.00  0.00    -0.103 NA
HETATM   14  C1  LIG X 999      45.489 131.327  20.396  1.00  0.00     0.265 A 
HETATM   15  O1  LIG X 999      45.030 131.874  19.299  1.00  0.00    -0.255 OA
BRANCH  14  16
HETATM   16  N1  LIG X 999      45.459 131.954  21.675  1.00  0.00    -0.362 N 
HETATM   17  H1  LIG X 999      45.626 131.395  22.540  1.00  0.00     0.159 HD
HETATM   18  H2  LIG X 999      45.268 132.977  21.753  1.00  0.00     0.159 HD
ENDBRANCH  14  16
ENDBRANCH   1  11
TORSDOF 2
