REMARK VINA RESULT:      -6.9      2.171      4.784
REMARK  1 active torsions:
REMARK  status: ('A' for Active; 'I' for Inactive)
REMARK    1  A    between atoms: N1_2  and  C1_3 
ROOT
HETATM    1  C1  LIG X 999      44.270 131.349  17.078  1.00  0.00     0.143 C 
HETATM    2  N2  LIG X 999      43.176 131.916  17.639  1.00  0.00    -0.229 NA
HETATM    3  C2  LIG X 999      43.009 131.996  18.984  1.00  0.00     0.070 C 
HETATM    4  C3  LIG X 999      41.884 132.658  19.475  1.00  0.00     0.033 C 
HETATM    5  C4  LIG X 999      41.674 132.775  20.842  1.00  0.00     0.014 C 
HETATM    6  C5  LIG X 999      42.527 132.133  21.744  1.00  0.00    -0.025 C 
HETATM    7  C6  LIG X 999      42.230 132.177  23.116  1.00  0.00     0.012 C 
HETATM    8  C7  LIG X 999      42.986 131.439  24.022  1.00  0.00     0.001 C 
HETATM    9  C8  LIG X 999      44.014 130.620  23.565  1.00  0.00     0.001 C 
HETATM   10  C9  LIG X 999      44.330 130.578  22.204  1.00  0.00     0.013 C 
HETATM   11  C10 LIG X 999      43.652 131.397  21.271  1.00  0.00    -0.013 C 
HETATM   12  C11 LIG X 999      43.974 131.437  19.871  1.00  0.00     0.010 C 
HETATM   13  C12 LIG X 999      45.204 130.994  19.287  1.00  0.00    -0.045 C 
HETATM   14  C13 LIG X 999      46.480 130.761  20.060  1.00  0.00     0.049 C 
HETATM   15  C14 LIG X 999      45.305 130.893  17.889  1.00  0.00     0.059 C 
ENDROOT
BRANCH   1  16
HETATM   16  N1  LIG X 999      44.374 131.271  15.790  1.00  0.00    -0.282 NA
HETATM   17  H1  LIG X 999      45.211 131.643  15.286  1.00  0.00     0.188 HD
ENDBRANCH   1  16
TORSDOF 1
