REMARK VINA RESULT:      -6.6      1.406      2.708
REMARK  3 active torsions:
REMARK  status: ('A' for Active; 'I' for Inactive)
REMARK    1  A    between atoms: C7_9  and  C8_10 
REMARK    2  A    between atoms: C9_13  and  N4_14 
REMARK    3  A    between atoms: N7_23  and  C14_24 
ROOT
HETATM    1  N4  LIG X 999      47.031 131.002  13.745  1.00  0.00    -0.023 NA
HETATM    2  N5  LIG X 999      47.929 130.245  13.376  1.00  0.00    -0.158 NA
HETATM    3  N6  LIG X 999      48.825 129.488  13.007  1.00  0.00     0.068 N 
ENDROOT
BRANCH   1   4
HETATM    4  C9  LIG X 999      46.211 130.670  14.864  1.00  0.00     0.326 A 
HETATM    5  N3  LIG X 999      45.155 129.842  14.792  1.00  0.00    -0.099 NA
HETATM    6  N2  LIG X 999      44.659 129.785  16.019  1.00  0.00    -0.119 NA
HETATM    7  C8  LIG X 999      45.438 130.573  16.787  1.00  0.00     0.205 A 
HETATM    8  O1  LIG X 999      46.391 131.129  16.078  1.00  0.00    -0.252 OA
BRANCH   7   9
HETATM    9  C7  LIG X 999      45.202 130.819  18.224  1.00  0.00     0.032 A 
HETATM   10  C6  LIG X 999      43.992 131.391  18.728  1.00  0.00     0.020 A 
HETATM   11  C1  LIG X 999      42.860 132.019  17.969  1.00  0.00     0.060 A 
HETATM   12  C5  LIG X 999      43.864 131.443  20.105  1.00  0.00     0.019 A 
HETATM   13  N1  LIG X 999      42.924 132.199  16.689  1.00  0.00    -0.299 NA
HETATM   14  C2  LIG X 999      41.677 132.543  18.736  1.00  0.00     0.034 A 
HETATM   15  H1  LIG X 999      42.158 132.666  16.155  1.00  0.00     0.187 HD
HETATM   16  C3  LIG X 999      41.651 132.518  20.084  1.00  0.00     0.033 A 
HETATM   17  C4  LIG X 999      42.808 131.951  20.795  1.00  0.00     0.048 A 
HETATM   18  N7  LIG X 999      43.055 131.871  22.126  1.00  0.00    -0.324 N 
HETATM   19  C13 LIG X 999      44.298 131.325  22.241  1.00  0.00     0.193 A 
HETATM   20  C12 LIG X 999      44.814 131.045  20.987  1.00  0.00     0.032 A 
HETATM   21  O2  LIG X 999      44.949 131.104  23.450  1.00  0.00    -0.171 OA
HETATM   22  C11 LIG X 999      46.024 130.526  20.543  1.00  0.00     0.018 A 
HETATM   23  C10 LIG X 999      46.212 130.411  19.148  1.00  0.00     0.018 A 
BRANCH  18  24
HETATM   24  C14 LIG X 999      42.218 132.377  23.213  1.00  0.00     0.127 C 
HETATM   25  C15 LIG X 999      41.980 131.286  24.249  1.00  0.00     0.027 C 
ENDBRANCH  18  24
ENDBRANCH   7   9
ENDBRANCH   1   4
TORSDOF 3
