REMARK VINA RESULT:      -7.5      1.534      2.647
REMARK  4 active torsions:
REMARK  status: ('A' for Active; 'I' for Inactive)
REMARK    1  A    between atoms: C3_4  and  O1_5 
REMARK    2  A    between atoms: C3_4  and  O2_6 
REMARK    3  A    between atoms: O2_6  and  C4_7 
REMARK    4  A    between atoms: C13_16  and  N2_17 
ROOT
HETATM    1  C4  LIG X 999      44.328 131.274  16.874  1.00  0.00     0.106 A 
HETATM    2  C5  LIG X 999      43.034 131.788  17.052  1.00  0.00     0.040 A 
HETATM    3  C6  LIG X 999      42.518 131.986  18.329  1.00  0.00     0.015 A 
HETATM    4  C7  LIG X 999      43.296 131.705  19.457  1.00  0.00    -0.024 A 
HETATM    5  C8  LIG X 999      42.767 131.925  20.739  1.00  0.00     0.012 A 
HETATM    6  C9  LIG X 999      43.541 131.679  21.871  1.00  0.00     0.001 A 
HETATM    7  C10 LIG X 999      44.851 131.221  21.736  1.00  0.00     0.001 A 
HETATM    8  C11 LIG X 999      45.393 130.996  20.469  1.00  0.00     0.014 A 
HETATM    9  C12 LIG X 999      44.622 131.216  19.304  1.00  0.00     0.003 A 
HETATM   10  C13 LIG X 999      45.134 130.990  17.996  1.00  0.00     0.071 A 
ENDROOT
BRANCH   1  11
HETATM   11  O2  LIG X 999      44.851 131.069  15.588  1.00  0.00    -0.272 OA
BRANCH  11  12
HETATM   12  C3  LIG X 999      45.671 129.996  15.210  1.00  0.00     0.265 C 
HETATM   13  N1  LIG X 999      46.752 130.227  14.499  1.00  0.00    -0.350 N 
HETATM   14  C1  LIG X 999      47.651 129.138  14.095  1.00  0.00     0.153 C 
HETATM   15  C2  LIG X 999      47.068 131.605  14.095  1.00  0.00     0.153 C 
BRANCH  12  16
HETATM   16  O1  LIG X 999      45.335 128.704  15.638  1.00  0.00    -0.327 OA
HETATM   17  H7  LIG X 999      45.894 128.153  16.277  1.00  0.00     0.221 HD
ENDBRANCH  12  16
ENDBRANCH  11  12
ENDBRANCH   1  11
BRANCH  10  18
HETATM   18  N2  LIG X 999      46.449 130.449  17.780  1.00  0.00    -0.396 N 
HETATM   19  H14 LIG X 999      47.310 131.035  17.796  1.00  0.00     0.156 HD
HETATM   20  H15 LIG X 999      46.602 129.419  17.713  1.00  0.00     0.156 HD
ENDBRANCH  10  18
TORSDOF 4
