REMARK VINA RESULT:      -8.0      0.000      0.000
REMARK  1 active torsions:
REMARK  status: ('A' for Active; 'I' for Inactive)
REMARK    1  A    between atoms: C14_14  and  N1_15 
ROOT
HETATM    1  N1  LIG X 999      42.711 131.466  23.505  1.00  0.00    -0.054 NA
HETATM    2  N2  LIG X 999      42.358 130.425  24.063  1.00  0.00    -0.160 NA
HETATM    3  N3  LIG X 999      42.006 129.388  24.622  1.00  0.00     0.068 N 
ENDROOT
BRANCH   1   4
HETATM    4  C14 LIG X 999      43.260 131.481  22.179  1.00  0.00     0.165 C 
HETATM    5  C13 LIG X 999      44.627 131.298  21.952  1.00  0.00     0.061 C 
HETATM    6  C11 LIG X 999      45.143 131.335  20.648  1.00  0.00    -0.045 C 
HETATM    7  C10 LIG X 999      44.241 131.419  19.541  1.00  0.00     0.008 C 
HETATM    8  C12 LIG X 999      46.645 131.437  20.531  1.00  0.00     0.049 C 
HETATM    9  C4  LIG X 999      44.604 131.250  18.162  1.00  0.00    -0.013 C 
HETATM   10  C9  LIG X 999      42.885 131.736  19.841  1.00  0.00     0.045 C 
HETATM   11  C3  LIG X 999      45.787 130.595  17.742  1.00  0.00     0.013 C 
HETATM   12  C5  LIG X 999      43.690 131.658  17.149  1.00  0.00    -0.025 C 
HETATM   13  C2  LIG X 999      46.122 130.506  16.389  1.00  0.00     0.001 C 
HETATM   14  C1  LIG X 999      45.267 131.020  15.419  1.00  0.00     0.001 C 
HETATM   15  C6  LIG X 999      44.047 131.576  15.793  1.00  0.00     0.012 C 
HETATM   16  C7  LIG X 999      42.408 132.091  17.491  1.00  0.00     0.014 C 
HETATM   17  C8  LIG X 999      41.993 132.076  18.815  1.00  0.00     0.031 C 
HETATM   18  N4  LIG X 999      42.439 131.736  21.130  1.00  0.00    -0.338 N 
HETATM   19  H11 LIG X 999      41.431 131.933  21.330  1.00  0.00     0.167 HD
ENDBRANCH   1   4
TORSDOF 1
