REMARK VINA RESULT:      -5.6      0.000      0.000
REMARK  5 active torsions:
REMARK  status: ('A' for Active; 'I' for Inactive)
REMARK    1  A    between atoms: C3_3  and  O1_4 
REMARK    2  A    between atoms: O1_4  and  C4_5 
REMARK    3  A    between atoms: C5_6  and  C6_7 
REMARK    4  A    between atoms: C6_7  and  O2_8 
REMARK    5  A    between atoms: C17_20  and  N1_21 
ROOT
HETATM    1  C1  LIG X 999      44.488 129.827  22.549  1.00  0.00     0.014 C 
HETATM    2  C2  LIG X 999      43.379 129.492  22.879  1.00  0.00    -0.091 C 
HETATM    3  C3  LIG X 999      42.033 129.083  23.281  1.00  0.00     0.268 C 
ENDROOT
BRANCH   3   4
HETATM    4  O1  LIG X 999      42.127 128.061  24.266  1.00  0.00    -0.337 OA
BRANCH   4   5
HETATM    5  C4  LIG X 999      41.669 126.765  24.012  1.00  0.00     0.106 C 
HETATM    6  C5  LIG X 999      40.316 126.442  24.233  1.00  0.00     0.012 C 
HETATM    7  C7  LIG X 999      39.902 125.090  24.125  1.00  0.00    -0.014 C 
HETATM    8  C8  LIG X 999      38.588 124.699  24.479  1.00  0.00     0.013 C 
HETATM    9  C12 LIG X 999      40.830 124.093  23.705  1.00  0.00    -0.012 C 
HETATM   10  C9  LIG X 999      38.228 123.355  24.518  1.00  0.00     0.001 C 
HETATM   11  C10 LIG X 999      39.172 122.375  24.245  1.00  0.00     0.001 C 
HETATM   12  C11 LIG X 999      40.464 122.735  23.867  1.00  0.00     0.013 C 
HETATM   13  C13 LIG X 999      42.122 124.483  23.235  1.00  0.00     0.011 C 
HETATM   14  C14 LIG X 999      42.998 123.645  22.475  1.00  0.00    -0.045 C 
HETATM   15  C18 LIG X 999      42.566 125.803  23.509  1.00  0.00     0.080 C 
HETATM   16  C15 LIG X 999      42.552 122.420  21.711  1.00  0.00     0.049 C 
HETATM   17  C16 LIG X 999      44.328 124.039  22.283  1.00  0.00     0.061 C 
HETATM   18  C17 LIG X 999      44.757 125.300  22.704  1.00  0.00     0.165 C 
HETATM   19  N4  LIG X 999      43.863 126.157  23.257  1.00  0.00    -0.336 N 
HETATM   20  H15 LIG X 999      44.206 127.118  23.488  1.00  0.00     0.168 HD
BRANCH   6  21
HETATM   21  C6  LIG X 999      39.340 127.538  24.624  1.00  0.00     0.206 C 
BRANCH  21  22
HETATM   22  O2  LIG X 999      38.317 127.616  23.670  1.00  0.00    -0.396 OA
HETATM   23  H6  LIG X 999      37.629 126.957  23.948  1.00  0.00     0.209 HD
ENDBRANCH  21  22
ENDBRANCH   6  21
BRANCH  18  24
HETATM   24  N1  LIG X 999      46.110 125.738  22.501  1.00  0.00    -0.054 NA
HETATM   25  N2  LIG X 999      46.965 125.022  21.979  1.00  0.00    -0.160 NA
HETATM   26  N3  LIG X 999      47.821 124.309  21.457  1.00  0.00     0.068 N 
ENDBRANCH  18  24
ENDBRANCH   4   5
ENDBRANCH   3   4
TORSDOF 5
