MODEL 1
REMARK VINA RESULT:      -7.1      0.000      0.000
REMARK  3 active torsions:
REMARK  status: ('A' for Active; 'I' for Inactive)
REMARK    1  A    between atoms: C3_3  and  O1_4 
REMARK    2  A    between atoms: O1_4  and  C4_5 
REMARK    3  A    between atoms: C13_14  and  C14_15 
ROOT
HETATM    1  C1  LIG X 999      46.448 131.704  14.891  1.00  0.00     0.014 C 
HETATM    2  C2  LIG X 999      45.527 131.524  15.648  1.00  0.00    -0.091 C 
HETATM    3  C3  LIG X 999      44.409 131.306  16.565  1.00  0.00     0.268 C 
ENDROOT
BRANCH   3   4
HETATM    4  O1  LIG X 999      44.626 132.062  17.753  1.00  0.00    -0.339 OA
BRANCH   4   5
HETATM    5  C4  LIG X 999      44.645 131.529  19.055  1.00  0.00     0.084 A 
HETATM    6  C5  LIG X 999      45.666 130.652  19.462  1.00  0.00     0.039 A 
HETATM    7  C6  LIG X 999      45.664 130.102  20.738  1.00  0.00     0.015 A 
HETATM    8  C7  LIG X 999      44.653 130.424  21.648  1.00  0.00    -0.025 A 
HETATM    9  C8  LIG X 999      44.674 129.867  22.937  1.00  0.00     0.012 A 
HETATM   10  C12 LIG X 999      43.616 131.319  21.272  1.00  0.00    -0.010 A 
HETATM   11  C9  LIG X 999      43.687 130.197  23.863  1.00  0.00     0.001 A 
HETATM   12  C10 LIG X 999      42.678 131.092  23.518  1.00  0.00     0.001 A 
HETATM   13  C11 LIG X 999      42.640 131.655  22.240  1.00  0.00     0.013 A 
HETATM   14  C13 LIG X 999      43.608 131.868  19.957  1.00  0.00     0.046 A 
BRANCH  14  15
HETATM   15  C14 LIG X 999      42.512 132.764  19.503  1.00  0.00     0.273 C 
HETATM   16  O2  LIG X 999      41.569 132.329  18.788  1.00  0.00    -0.301 OA
ENDBRANCH  14  15
ENDBRANCH   4   5
ENDBRANCH   3   4
TORSDOF 3
ENDMDL
MODEL 2
REMARK VINA RESULT:      -7.0      2.136      3.129
REMARK  3 active torsions:
REMARK  status: ('A' for Active; 'I' for Inactive)
REMARK    1  A    between atoms: C3_3  and  O1_4 
REMARK    2  A    between atoms: O1_4  and  C4_5 
REMARK    3  A    between atoms: C13_14  and  C14_15 
ROOT
HETATM    1  C1  LIG X 999      47.932 130.777  12.879  1.00  0.00     0.014 C 
HETATM    2  C2  LIG X 999      47.472 130.350  13.907  1.00  0.00    -0.091 C 
HETATM    3  C3  LIG X 999      46.912 129.829  15.155  1.00  0.00     0.268 C 
ENDROOT
BRANCH   3   4
HETATM    4  O1  LIG X 999      45.749 130.580  15.493  1.00  0.00    -0.339 OA
BRANCH   4   5
HETATM    5  C4  LIG X 999      45.312 130.842  16.804  1.00  0.00     0.084 A 
HETATM    6  C5  LIG X 999      46.108 130.504  17.913  1.00  0.00     0.039 A 
HETATM    7  C6  LIG X 999      45.658 130.733  19.208  1.00  0.00     0.015 A 
HETATM    8  C7  LIG X 999      44.410 131.322  19.431  1.00  0.00    -0.025 A 
HETATM    9  C8  LIG X 999      43.978 131.556  20.747  1.00  0.00     0.012 A 
HETATM   10  C12 LIG X 999      43.589 131.689  18.332  1.00  0.00    -0.010 A 
HETATM   11  C9  LIG X 999      42.747 132.164  20.986  1.00  0.00     0.001 A 
HETATM   12  C10 LIG X 999      41.941 132.552  19.918  1.00  0.00     0.001 A 
HETATM   13  C11 LIG X 999      42.355 132.325  18.603  1.00  0.00     0.013 A 
HETATM   14  C13 LIG X 999      44.042 131.436  17.005  1.00  0.00     0.046 A 
BRANCH  14  15
HETATM   15  C14 LIG X 999      43.192 131.752  15.827  1.00  0.00     0.273 C 
HETATM   16  O2  LIG X 999      43.665 131.735  14.659  1.00  0.00    -0.301 OA
ENDBRANCH  14  15
ENDBRANCH   4   5
ENDBRANCH   3   4
TORSDOF 3
ENDMDL
MODEL 3
REMARK VINA RESULT:      -6.8      1.688      3.240
REMARK  3 active torsions:
REMARK  status: ('A' for Active; 'I' for Inactive)
REMARK    1  A    between atoms: C3_3  and  O1_4 
REMARK    2  A    between atoms: O1_4  and  C4_5 
REMARK    3  A    between atoms: C13_14  and  C14_15 
ROOT
HETATM    1  C1  LIG X 999      46.795 130.993  13.478  1.00  0.00     0.014 C 
HETATM    2  C2  LIG X 999      45.744 130.813  14.039  1.00  0.00    -0.091 C 
HETATM    3  C3  LIG X 999      44.466 130.595  14.719  1.00  0.00     0.268 C 
ENDROOT
BRANCH   3   4
HETATM    4  O1  LIG X 999      44.163 131.733  15.519  1.00  0.00    -0.339 OA
BRANCH   4   5
HETATM    5  C4  LIG X 999      43.841 131.693  16.887  1.00  0.00     0.084 A 
HETATM    6  C5  LIG X 999      42.566 132.074  17.341  1.00  0.00     0.039 A 
HETATM    7  C6  LIG X 999      42.261 132.065  18.697  1.00  0.00     0.015 A 
HETATM    8  C7  LIG X 999      43.215 131.661  19.635  1.00  0.00    -0.025 A 
HETATM    9  C8  LIG X 999      42.885 131.648  21.001  1.00  0.00     0.012 A 
HETATM   10  C12 LIG X 999      44.508 131.256  19.208  1.00  0.00    -0.010 A 
HETATM   11  C9  LIG X 999      43.816 131.225  21.947  1.00  0.00     0.001 A 
HETATM   12  C10 LIG X 999      45.080 130.801  21.541  1.00  0.00     0.001 A 
HETATM   13  C11 LIG X 999      45.426 130.809  20.187  1.00  0.00     0.013 A 
HETATM   14  C13 LIG X 999      44.825 131.283  17.819  1.00  0.00     0.046 A 
BRANCH  14  15
HETATM   15  C14 LIG X 999      46.183 130.922  17.332  1.00  0.00     0.273 C 
HETATM   16  O2  LIG X 999      46.491 129.725  17.089  1.00  0.00    -0.301 OA
ENDBRANCH  14  15
ENDBRANCH   4   5
ENDBRANCH   3   4
TORSDOF 3
ENDMDL
MODEL 4
REMARK VINA RESULT:      -6.8      1.451      5.360
REMARK  3 active torsions:
REMARK  status: ('A' for Active; 'I' for Inactive)
REMARK    1  A    between atoms: C3_3  and  O1_4 
REMARK    2  A    between atoms: O1_4  and  C4_5 
REMARK    3  A    between atoms: C13_14  and  C14_15 
ROOT
HETATM    1  C1  LIG X 999      42.565 129.035  23.585  1.00  0.00     0.014 C 
HETATM    2  C2  LIG X 999      43.041 130.112  23.332  1.00  0.00    -0.091 C 
HETATM    3  C3  LIG X 999      43.619 131.422  23.025  1.00  0.00     0.268 C 
ENDROOT
BRANCH   3   4
HETATM    4  O1  LIG X 999      43.236 131.803  21.707  1.00  0.00    -0.339 OA
BRANCH   4   5
HETATM    5  C4  LIG X 999      43.941 131.471  20.536  1.00  0.00     0.084 A 
HETATM    6  C5  LIG X 999      45.209 130.868  20.602  1.00  0.00     0.039 A 
HETATM    7  C6  LIG X 999      45.918 130.572  19.443  1.00  0.00     0.015 A 
HETATM    8  C7  LIG X 999      45.372 130.855  18.187  1.00  0.00    -0.025 A 
HETATM    9  C8  LIG X 999      46.098 130.538  17.027  1.00  0.00     0.012 A 
HETATM   10  C12 LIG X 999      44.086 131.450  18.086  1.00  0.00    -0.010 A 
HETATM   11  C9  LIG X 999      45.559 130.791  15.768  1.00  0.00     0.001 A 
HETATM   12  C10 LIG X 999      44.288 131.352  15.653  1.00  0.00     0.001 A 
HETATM   13  C11 LIG X 999      43.553 131.674  16.796  1.00  0.00     0.013 A 
HETATM   14  C13 LIG X 999      43.369 131.770  19.276  1.00  0.00     0.046 A 
BRANCH  14  15
HETATM   15  C14 LIG X 999      42.046 132.445  19.219  1.00  0.00     0.273 C 
HETATM   16  O2  LIG X 999      41.699 133.275  20.101  1.00  0.00    -0.301 OA
ENDBRANCH  14  15
ENDBRANCH   4   5
ENDBRANCH   3   4
TORSDOF 3
ENDMDL
MODEL 5
REMARK VINA RESULT:      -6.7      1.673      5.853
REMARK  3 active torsions:
REMARK  status: ('A' for Active; 'I' for Inactive)
REMARK    1  A    between atoms: C3_3  and  O1_4 
REMARK    2  A    between atoms: O1_4  and  C4_5 
REMARK    3  A    between atoms: C13_14  and  C14_15 
ROOT
HETATM    1  C1  LIG X 999      44.278 128.854  23.393  1.00  0.00     0.014 C 
HETATM    2  C2  LIG X 999      43.634 129.778  22.966  1.00  0.00    -0.091 C 
HETATM    3  C3  LIG X 999      42.850 130.899  22.446  1.00  0.00     0.268 C 
ENDROOT
BRANCH   3   4
HETATM    4  O1  LIG X 999      43.682 131.704  21.616  1.00  0.00    -0.339 OA
BRANCH   4   5
HETATM    5  C4  LIG X 999      43.668 131.693  20.210  1.00  0.00     0.084 A 
HETATM    6  C5  LIG X 999      42.526 132.094  19.494  1.00  0.00     0.039 A 
HETATM    7  C6  LIG X 999      42.504 132.051  18.105  1.00  0.00     0.015 A 
HETATM    8  C7  LIG X 999      43.627 131.623  17.392  1.00  0.00    -0.025 A 
HETATM    9  C8  LIG X 999      43.590 131.596  15.988  1.00  0.00     0.012 A 
HETATM   10  C12 LIG X 999      44.802 131.226  18.084  1.00  0.00    -0.010 A 
HETATM   11  C9  LIG X 999      44.709 131.195  15.261  1.00  0.00     0.001 A 
HETATM   12  C10 LIG X 999      45.877 130.827  15.925  1.00  0.00     0.001 A 
HETATM   13  C11 LIG X 999      45.931 130.845  17.321  1.00  0.00     0.013 A 
HETATM   14  C13 LIG X 999      44.817 131.253  19.509  1.00  0.00     0.046 A 
BRANCH  14  15
HETATM   15  C14 LIG X 999      46.005 130.792  20.276  1.00  0.00     0.273 C 
HETATM   16  O2  LIG X 999      46.144 129.582  20.597  1.00  0.00    -0.301 OA
ENDBRANCH  14  15
ENDBRANCH   4   5
ENDBRANCH   3   4
TORSDOF 3
ENDMDL
MODEL 6
REMARK VINA RESULT:      -6.2      2.041      3.307
REMARK  3 active torsions:
REMARK  status: ('A' for Active; 'I' for Inactive)
REMARK    1  A    between atoms: C3_3  and  O1_4 
REMARK    2  A    between atoms: O1_4  and  C4_5 
REMARK    3  A    between atoms: C13_14  and  C14_15 
ROOT
HETATM    1  C1  LIG X 999      46.649 130.479  13.786  1.00  0.00     0.014 C 
HETATM    2  C2  LIG X 999      46.417 130.005  14.869  1.00  0.00    -0.091 C 
HETATM    3  C3  LIG X 999      46.134 129.430  16.185  1.00  0.00     0.268 C 
ENDROOT
BRANCH   3   4
HETATM    4  O1  LIG X 999      46.154 130.467  17.161  1.00  0.00    -0.339 OA
BRANCH   4   5
HETATM    5  C4  LIG X 999      45.015 131.012  17.781  1.00  0.00     0.084 A 
HETATM    6  C5  LIG X 999      43.933 131.485  17.018  1.00  0.00     0.039 A 
HETATM    7  C6  LIG X 999      42.823 132.053  17.633  1.00  0.00     0.015 A 
HETATM    8  C7  LIG X 999      42.757 132.151  19.025  1.00  0.00    -0.025 A 
HETATM    9  C8  LIG X 999      41.622 132.718  19.629  1.00  0.00     0.012 A 
HETATM   10  C12 LIG X 999      43.827 131.668  19.826  1.00  0.00    -0.010 A 
HETATM   11  C9  LIG X 999      41.529 132.801  21.017  1.00  0.00     0.001 A 
HETATM   12  C10 LIG X 999      42.560 132.310  21.815  1.00  0.00     0.001 A 
HETATM   13  C11 LIG X 999      43.696 131.744  21.232  1.00  0.00     0.013 A 
HETATM   14  C13 LIG X 999      44.972 131.103  19.194  1.00  0.00     0.046 A 
BRANCH  14  15
HETATM   15  C14 LIG X 999      46.139 130.638  19.989  1.00  0.00     0.273 C 
HETATM   16  O2  LIG X 999      46.187 129.467  20.453  1.00  0.00    -0.301 OA
ENDBRANCH  14  15
ENDBRANCH   4   5
ENDBRANCH   3   4
TORSDOF 3
ENDMDL
MODEL 7
REMARK VINA RESULT:      -5.8      1.316      2.662
REMARK  3 active torsions:
REMARK  status: ('A' for Active; 'I' for Inactive)
REMARK    1  A    between atoms: C3_3  and  O1_4 
REMARK    2  A    between atoms: O1_4  and  C4_5 
REMARK    3  A    between atoms: C13_14  and  C14_15 
ROOT
HETATM    1  C1  LIG X 999      46.449 131.150  14.947  1.00  0.00     0.014 C 
HETATM    2  C2  LIG X 999      45.561 131.421  15.715  1.00  0.00    -0.091 C 
HETATM    3  C3  LIG X 999      44.482 131.751  16.647  1.00  0.00     0.268 C 
ENDROOT
BRANCH   3   4
HETATM    4  O1  LIG X 999      44.908 131.458  17.975  1.00  0.00    -0.339 OA
BRANCH   4   5
HETATM    5  C4  LIG X 999      44.136 131.665  19.132  1.00  0.00     0.084 A 
HETATM    6  C5  LIG X 999      42.881 132.294  19.061  1.00  0.00     0.039 A 
HETATM    7  C6  LIG X 999      42.135 132.527  20.211  1.00  0.00     0.015 A 
HETATM    8  C7  LIG X 999      42.615 132.124  21.461  1.00  0.00    -0.025 A 
HETATM    9  C8  LIG X 999      41.843 132.358  22.610  1.00  0.00     0.012 A 
HETATM   10  C12 LIG X 999      43.873 131.471  21.564  1.00  0.00    -0.010 A 
HETATM   11  C9  LIG X 999      42.295 131.941  23.860  1.00  0.00     0.001 A 
HETATM   12  C10 LIG X 999      43.515 131.277  23.974  1.00  0.00     0.001 A 
HETATM   13  C11 LIG X 999      44.297 131.038  22.842  1.00  0.00     0.013 A 
HETATM   14  C13 LIG X 999      44.644 131.250  20.387  1.00  0.00     0.046 A 
BRANCH  14  15
HETATM   15  C14 LIG X 999      45.990 130.622  20.455  1.00  0.00     0.273 C 
HETATM   16  O2  LIG X 999      46.123 129.373  20.556  1.00  0.00    -0.301 OA
ENDBRANCH  14  15
ENDBRANCH   4   5
ENDBRANCH   3   4
TORSDOF 3
ENDMDL
MODEL 8
REMARK VINA RESULT:      -4.1      3.623      5.022
REMARK  3 active torsions:
REMARK  status: ('A' for Active; 'I' for Inactive)
REMARK    1  A    between atoms: C3_3  and  O1_4 
REMARK    2  A    between atoms: O1_4  and  C4_5 
REMARK    3  A    between atoms: C13_14  and  C14_15 
ROOT
HETATM    1  C1  LIG X 999      43.297 132.046  19.807  1.00  0.00     0.014 C 
HETATM    2  C2  LIG X 999      44.190 131.437  20.338  1.00  0.00    -0.091 C 
HETATM    3  C3  LIG X 999      45.275 130.696  20.983  1.00  0.00     0.268 C 
ENDROOT
BRANCH   3   4
HETATM    4  O1  LIG X 999      44.831 130.230  22.253  1.00  0.00    -0.339 OA
BRANCH   4   5
HETATM    5  C4  LIG X 999      44.532 128.890  22.561  1.00  0.00     0.084 A 
HETATM    6  C5  LIG X 999      45.373 127.846  22.138  1.00  0.00     0.039 A 
HETATM    7  C6  LIG X 999      45.057 126.521  22.415  1.00  0.00     0.015 A 
HETATM    8  C7  LIG X 999      43.902 126.204  23.135  1.00  0.00    -0.025 A 
HETATM    9  C8  LIG X 999      43.605 124.860  23.414  1.00  0.00     0.012 A 
HETATM   10  C12 LIG X 999      43.039 127.236  23.589  1.00  0.00    -0.010 A 
HETATM   11  C9  LIG X 999      42.470 124.527  24.151  1.00  0.00     0.001 A 
HETATM   12  C10 LIG X 999      41.627 125.531  24.625  1.00  0.00     0.001 A 
HETATM   13  C11 LIG X 999      41.906 126.872  24.355  1.00  0.00     0.013 A 
HETATM   14  C13 LIG X 999      43.354 128.593  23.289  1.00  0.00     0.046 A 
BRANCH  14  15
HETATM   15  C14 LIG X 999      42.451 129.702  23.695  1.00  0.00     0.273 C 
HETATM   16  O2  LIG X 999      42.818 130.568  24.533  1.00  0.00    -0.301 OA
ENDBRANCH  14  15
ENDBRANCH   4   5
ENDBRANCH   3   4
TORSDOF 3
ENDMDL
