REMARK VINA RESULT:      -8.0      0.825      2.165
REMARK  2 active torsions:
REMARK  status: ('A' for Active; 'I' for Inactive)
REMARK    1  A    between atoms: C1_2  and  C2_4 
REMARK    2  A    between atoms: C3_5  and  C4_6 
ROOT
HETATM    1  C4  LIG X 999      45.434 130.924  17.587  1.00  0.00     0.019 A 
HETATM    2  C5  LIG X 999      46.070 130.502  18.761  1.00  0.00     0.021 A 
HETATM    3  C6  LIG X 999      45.475 130.730  20.005  1.00  0.00     0.013 A 
HETATM    4  C7  LIG X 999      44.235 131.382  20.085  1.00  0.00    -0.026 A 
HETATM    5  C8  LIG X 999      43.627 131.617  21.329  1.00  0.00     0.012 A 
HETATM    6  C9  LIG X 999      42.392 132.267  21.395  1.00  0.00     0.001 A 
HETATM    7  C10 LIG X 999      41.756 132.689  20.224  1.00  0.00     0.001 A 
HETATM    8  C11 LIG X 999      42.349 132.462  18.979  1.00  0.00     0.012 A 
HETATM    9  C12 LIG X 999      43.590 131.809  18.898  1.00  0.00    -0.025 A 
HETATM   10  C13 LIG X 999      44.196 131.576  17.654  1.00  0.00     0.032 A 
ENDROOT
BRANCH   1  11
HETATM   11  C3  LIG X 999      46.054 130.686  16.309  1.00  0.00    -0.056 C 
HETATM   12  C2  LIG X 999      46.572 130.487  15.239  1.00  0.00     0.010 C 
BRANCH  12  13
HETATM   13  C1  LIG X 999      47.190 130.251  13.965  1.00  0.00     0.258 C 
HETATM   14  O1  LIG X 999      46.922 130.997  12.988  1.00  0.00    -0.637 OA
HETATM   15  O2  LIG X 999      48.083 129.200  13.811  1.00  0.00    -0.637 OA
ENDBRANCH  12  13
ENDBRANCH   1  11
TORSDOF 2
