REMARK VINA RESULT:      -5.5      7.220      8.286
REMARK  3 active torsions:
REMARK  status: ('A' for Active; 'I' for Inactive)
REMARK    1  A    between atoms: C7_9  and  C8_10 
REMARK    2  A    between atoms: C9_13  and  N4_14 
REMARK    3  A    between atoms: N7_23  and  C14_24 
ROOT
HETATM    1  N4  LIG X 999      50.173 123.947  20.636  1.00  0.00    -0.023 NA
HETATM    2  N5  LIG X 999      50.335 123.790  19.426  1.00  0.00    -0.158 NA
HETATM    3  N6  LIG X 999      50.495 123.635  18.217  1.00  0.00     0.068 N 
ENDROOT
BRANCH   1   4
HETATM    4  C9  LIG X 999      48.972 123.516  21.273  1.00  0.00     0.326 A 
HETATM    5  N3  LIG X 999      48.919 122.503  22.154  1.00  0.00    -0.099 NA
HETATM    6  N2  LIG X 999      47.649 122.408  22.518  1.00  0.00    -0.119 NA
HETATM    7  C8  LIG X 999      46.981 123.363  21.837  1.00  0.00     0.205 A 
HETATM    8  O1  LIG X 999      47.794 124.055  21.075  1.00  0.00    -0.252 OA
BRANCH   7   9
HETATM    9  C7  LIG X 999      45.535 123.622  21.986  1.00  0.00     0.032 A 
HETATM   10  C6  LIG X 999      45.012 124.726  22.729  1.00  0.00     0.020 A 
HETATM   11  C1  LIG X 999      45.747 125.885  23.335  1.00  0.00     0.060 A 
HETATM   12  C5  LIG X 999      43.639 124.771  22.880  1.00  0.00     0.019 A 
HETATM   13  N1  LIG X 999      47.005 126.083  23.104  1.00  0.00    -0.299 NA
HETATM   14  C2  LIG X 999      44.971 126.890  24.143  1.00  0.00     0.034 A 
HETATM   15  H1  LIG X 999      47.518 126.905  23.492  1.00  0.00     0.187 HD
HETATM   16  C3  LIG X 999      43.629 126.810  24.255  1.00  0.00     0.033 A 
HETATM   17  C4  LIG X 999      42.935 125.708  23.569  1.00  0.00     0.048 A 
HETATM   18  N7  LIG X 999      41.611 125.427  23.496  1.00  0.00    -0.324 N 
HETATM   19  C13 LIG X 999      41.513 124.288  22.757  1.00  0.00     0.193 A 
HETATM   20  C12 LIG X 999      42.771 123.869  22.357  1.00  0.00     0.032 A 
HETATM   21  O2  LIG X 999      40.316 123.645  22.461  1.00  0.00    -0.171 OA
HETATM   22  C11 LIG X 999      43.229 122.800  21.596  1.00  0.00     0.018 A 
HETATM   23  C10 LIG X 999      44.624 122.683  21.409  1.00  0.00     0.018 A 
BRANCH  18  24
HETATM   24  C14 LIG X 999      40.516 126.144  24.150  1.00  0.00     0.127 C 
HETATM   25  C15 LIG X 999      40.209 127.434  23.400  1.00  0.00     0.027 C 
ENDBRANCH  18  24
ENDBRANCH   7   9
ENDBRANCH   1   4
TORSDOF 3
