REMARK VINA RESULT:      -6.8      5.218      7.679
REMARK  6 active torsions:
REMARK  status: ('A' for Active; 'I' for Inactive)
REMARK    1  A    between atoms: O1_2  and  C1_3 
REMARK    2  A    between atoms: C1_3  and  C4_6 
REMARK    3  A    between atoms: C4_6  and  O2_7 
REMARK    4  A    between atoms: C4_6  and  O3_9 
REMARK    5  A    between atoms: O3_9  and  C5_10 
REMARK    6  A    between atoms: C10_15  and  N1_16 
ROOT
HETATM    1  N1  LIG X 999      44.645 131.523  15.704  1.00  0.00    -0.073 NA
HETATM    2  N2  LIG X 999      43.912 131.603  14.716  1.00  0.00    -0.162 NA
HETATM    3  N3  LIG X 999      43.181 131.680  13.730  1.00  0.00     0.068 N 
ENDROOT
BRANCH   1   4
HETATM    4  C10 LIG X 999      44.138 131.598  17.043  1.00  0.00     0.094 A 
HETATM    5  C9  LIG X 999      45.027 131.429  18.112  1.00  0.00     0.046 A 
HETATM    6  C8  LIG X 999      44.570 131.495  19.436  1.00  0.00    -0.024 A 
HETATM    7  C7  LIG X 999      45.457 131.322  20.507  1.00  0.00     0.015 A 
HETATM    8  C13 LIG X 999      43.201 131.735  19.696  1.00  0.00    -0.023 A 
HETATM    9  C6  LIG X 999      44.992 131.390  21.823  1.00  0.00     0.038 A 
HETATM   10  C5  LIG X 999      43.642 131.634  22.094  1.00  0.00     0.073 A 
HETATM   11  C14 LIG X 999      42.743 131.801  21.022  1.00  0.00     0.049 A 
HETATM   12  C12 LIG X 999      42.313 131.903  18.624  1.00  0.00     0.014 A 
HETATM   13  C11 LIG X 999      42.776 131.836  17.307  1.00  0.00     0.035 A 
BRANCH  10  14
HETATM   14  O3  LIG X 999      43.242 131.689  23.439  1.00  0.00    -0.314 OA
BRANCH  14  15
HETATM   15  C4  LIG X 999      43.482 130.683  24.427  1.00  0.00     0.321 C 
BRANCH  15  16
HETATM   16  C1  LIG X 999      42.901 129.381  23.952  1.00  0.00     0.094 C 
HETATM   17  C2  LIG X 999      43.648 128.264  23.967  1.00  0.00     0.006 C 
HETATM   18  C3  LIG X 999      43.139 126.931  23.511  1.00  0.00     0.038 C 
BRANCH  16  19
HETATM   19  O1  LIG X 999      41.576 129.377  23.505  1.00  0.00    -0.360 OA
HETATM   20  H1  LIG X 999      41.126 128.563  23.106  1.00  0.00     0.217 HD
ENDBRANCH  16  19
ENDBRANCH  15  16
BRANCH  15  21
HETATM   21  O2  LIG X 999      44.862 130.522  24.625  1.00  0.00    -0.365 OA
HETATM   22  H7  LIG X 999      45.061 130.821  25.549  1.00  0.00     0.213 HD
ENDBRANCH  15  21
ENDBRANCH  14  15
ENDBRANCH  10  14
ENDBRANCH   1   4
TORSDOF 6
