REMARK VINA RESULT:      -7.2      2.771      5.167
REMARK  1 active torsions:
REMARK  status: ('A' for Active; 'I' for Inactive)
REMARK    1  A    between atoms: C2_5  and  C3_6 
ROOT
HETATM    1  C3  LIG X 999      44.850 131.125  16.956  1.00  0.00     0.028 A 
HETATM    2  C4  LIG X 999      43.607 131.723  16.644  1.00  0.00     0.017 A 
HETATM    3  C5  LIG X 999      43.213 131.950  15.330  1.00  0.00     0.002 A 
HETATM    4  C6  LIG X 999      44.040 131.592  14.278  1.00  0.00     0.012 A 
HETATM    5  C7  LIG X 999      45.280 130.997  14.526  1.00  0.00    -0.025 A 
HETATM    6  C8  LIG X 999      46.093 130.647  13.436  1.00  0.00     0.012 A 
HETATM    7  C9  LIG X 999      47.333 130.052  13.644  1.00  0.00     0.001 A 
HETATM    8  C10 LIG X 999      47.775 129.802  14.939  1.00  0.00     0.001 A 
HETATM    9  C11 LIG X 999      46.981 130.144  16.036  1.00  0.00     0.013 A 
HETATM   10  C12 LIG X 999      45.711 130.751  15.866  1.00  0.00    -0.011 A 
ENDROOT
BRANCH   1  11
HETATM   11  C2  LIG X 999      45.183 130.922  18.409  1.00  0.00     0.177 A 
HETATM   12  O1  LIG X 999      44.662 131.600  19.411  1.00  0.00    -0.258 OA
HETATM   13  C1  LIG X 999      45.216 131.115  20.496  1.00  0.00     0.260 A 
HETATM   14  N1  LIG X 999      44.962 131.526  21.694  1.00  0.00    -0.261 NA
HETATM   15  N3  LIG X 999      46.083 130.137  20.207  1.00  0.00    -0.262 N 
HETATM   16  H1  LIG X 999      44.275 132.295  21.861  1.00  0.00     0.190 HD
HETATM   17  N2  LIG X 999      46.065 130.010  18.893  1.00  0.00    -0.276 N 
HETATM   18  H10 LIG X 999      46.666 129.573  20.867  1.00  0.00     0.190 HD
HETATM   19  H9  LIG X 999      46.648 129.317  18.377  1.00  0.00     0.189 HD
ENDBRANCH   1  11
TORSDOF 1
