REMARK VINA RESULT:      -7.6      1.426      5.899
REMARK  1 active torsions:
REMARK  status: ('A' for Active; 'I' for Inactive)
REMARK    1  A    between atoms: C3_3  and  N1_4 
ROOT
HETATM    1  N1  LIG X 999      44.874 131.202  21.455  1.00  0.00    -0.072 NA
HETATM    2  N2  LIG X 999      44.719 130.266  22.240  1.00  0.00    -0.162 NA
HETATM    3  N3  LIG X 999      44.566 129.330  23.025  1.00  0.00     0.068 N 
ENDROOT
BRANCH   1   4
HETATM    4  C3  LIG X 999      43.840 131.633  20.553  1.00  0.00     0.104 A 
HETATM    5  C2  LIG X 999      42.637 132.179  21.040  1.00  0.00     0.035 A 
HETATM    6  C1  LIG X 999      41.636 132.594  20.161  1.00  0.00     0.003 A 
HETATM    7  C10 LIG X 999      41.811 132.476  18.783  1.00  0.00     0.012 A 
HETATM    8  C9  LIG X 999      42.997 131.938  18.267  1.00  0.00    -0.023 A 
HETATM    9  C4  LIG X 999      44.028 131.509  19.157  1.00  0.00     0.006 A 
HETATM   10  C8  LIG X 999      43.172 131.817  16.875  1.00  0.00     0.021 A 
HETATM   11  C5  LIG X 999      45.218 130.965  18.621  1.00  0.00     0.024 A 
HETATM   12  C6  LIG X 999      45.353 130.870  17.236  1.00  0.00    -0.023 A 
HETATM   13  C7  LIG X 999      44.366 131.281  16.394  1.00  0.00    -0.024 A 
HETATM   14  C14 LIG X 999      46.492 130.318  16.471  1.00  0.00     0.276 C 
HETATM   15  C11 LIG X 999      44.752 131.043  14.986  1.00  0.00     0.276 C 
HETATM   16  N4  LIG X 999      46.175 130.579  15.031  1.00  0.00    -0.067 N 
HETATM   17  C12 LIG X 999      46.348 129.348  14.227  1.00  0.00     0.272 C 
HETATM   18  C13 LIG X 999      47.069 131.633  14.497  1.00  0.00     0.272 C 
ENDBRANCH   1   4
TORSDOF 1
