REMARK VINA RESULT:      -5.1      3.137      6.908
REMARK  4 active torsions:
REMARK  status: ('A' for Active; 'I' for Inactive)
REMARK    1  A    between atoms: C2_2  and  C3_3 
REMARK    2  A    between atoms: C2_2  and  N1_9 
REMARK    3  A    between atoms: C3_3  and  C4_4 
REMARK       I    between atoms: N1_9  and  C8_10 
REMARK       I    between atoms: C8_10  and  N2_12 
REMARK    4  A    between atoms: N2_12  and  C9_13 
ROOT
HETATM    1  C9  LIG X 999      43.038 126.193  24.255  1.00  0.00     0.056 A 
HETATM    2  C10 LIG X 999      41.777 125.593  24.125  1.00  0.00     0.003 A 
HETATM    3  C11 LIG X 999      40.660 126.328  23.859  1.00  0.00    -0.021 A 
HETATM    4  C12 LIG X 999      40.710 127.712  23.718  1.00  0.00     0.022 A 
HETATM    5  C13 LIG X 999      41.953 128.361  23.838  1.00  0.00    -0.023 A 
HETATM    6  C14 LIG X 999      42.039 129.753  23.693  1.00  0.00     0.012 A 
HETATM    7  C15 LIG X 999      43.271 130.398  23.812  1.00  0.00     0.001 A 
HETATM    8  C16 LIG X 999      44.427 129.663  24.078  1.00  0.00     0.001 A 
HETATM    9  C17 LIG X 999      44.363 128.274  24.225  1.00  0.00     0.014 A 
HETATM   10  C18 LIG X 999      43.132 127.601  24.104  1.00  0.00     0.002 A 
HETATM   11  C19 LIG X 999      39.475 125.454  23.736  1.00  0.00     0.276 C 
HETATM   12  N3  LIG X 999      40.009 124.057  23.726  1.00  0.00    -0.067 N 
HETATM   13  C20 LIG X 999      39.959 123.503  22.352  1.00  0.00     0.272 C 
HETATM   14  C21 LIG X 999      39.216 123.187  24.625  1.00  0.00     0.272 C 
HETATM   15  C22 LIG X 999      41.430 124.151  24.187  1.00  0.00     0.278 C 
ENDROOT
BRANCH   1  16
HETATM   16  N2  LIG X 999      44.206 125.390  24.476  1.00  0.00    -0.307 N 
HETATM   17  C8  LIG X 999      45.007 124.890  23.398  1.00  0.00     0.321 C 
HETATM   18  N1  LIG X 999      46.195 124.139  23.688  1.00  0.00    -0.338 N 
HETATM   19  O1  LIG X 999      44.657 125.091  22.203  1.00  0.00    -0.247 OA
HETATM   20  H10 LIG X 999      46.476 124.024  24.689  1.00  0.00     0.164 HD
HETATM   21  H11 LIG X 999      44.412 125.067  25.447  1.00  0.00     0.170 HD
BRANCH  18  22
HETATM   22  C2  LIG X 999      47.090 123.621  22.649  1.00  0.00     0.086 C 
HETATM   23  C1  LIG X 999      46.464 122.379  22.013  1.00  0.00     0.032 C 
BRANCH  22  24
HETATM   24  C3  LIG X 999      48.463 123.285  23.253  1.00  0.00     0.071 C 
BRANCH  24  25
HETATM   25  C4  LIG X 999      49.562 124.022  22.552  1.00  0.00    -0.016 A 
HETATM   26  C5  LIG X 999      50.095 125.248  22.933  1.00  0.00     0.015 A 
HETATM   27  C6  LIG X 999      51.083 125.712  22.057  1.00  0.00     0.008 A 
HETATM   28  C7  LIG X 999      51.317 124.867  20.980  1.00  0.00     0.050 A 
HETATM   29  S1  LIG X 999      50.296 123.538  21.118  1.00  0.00    -0.106 SA
ENDBRANCH  24  25
ENDBRANCH  22  24
ENDBRANCH  18  22
ENDBRANCH   1  16
TORSDOF 4
