REMARK VINA RESULT:      -5.7      2.210      3.973
REMARK  1 active torsions:
REMARK  status: ('A' for Active; 'I' for Inactive)
REMARK    1  A    between atoms: C5_8  and  O1_9 
ROOT
HETATM    1  H1  LIG X 999      44.251 131.283  24.563  1.00  0.00     0.187 HD
HETATM    2  N1  LIG X 999      44.631 131.117  23.604  1.00  0.00    -0.300 NA
HETATM    3  C1  LIG X 999      43.971 131.449  22.541  1.00  0.00     0.059 A 
HETATM    4  C2  LIG X 999      42.613 132.091  22.640  1.00  0.00     0.034 A 
HETATM    5  C3  LIG X 999      41.922 132.437  21.529  1.00  0.00     0.035 A 
HETATM    6  C4  LIG X 999      42.530 132.171  20.213  1.00  0.00     0.071 A 
HETATM    7  N2  LIG X 999      42.038 132.425  18.977  1.00  0.00    -0.224 NA
HETATM    8  C5  LIG X 999      43.012 131.977  18.130  1.00  0.00     0.174 A 
HETATM    9  C6  LIG X 999      44.087 131.455  18.831  1.00  0.00     0.030 A 
HETATM   10  C7  LIG X 999      45.307 130.882  18.470  1.00  0.00     0.017 A 
HETATM   11  C8  LIG X 999      46.163 130.459  19.517  1.00  0.00     0.002 A 
HETATM   12  C9  LIG X 999      45.782 130.617  20.880  1.00  0.00     0.015 A 
HETATM   13  C10 LIG X 999      44.536 131.203  21.189  1.00  0.00     0.005 A 
HETATM   14  C11 LIG X 999      43.751 131.593  20.129  1.00  0.00     0.020 A 
ENDROOT
BRANCH   8  15
HETATM   15  O1  LIG X 999      42.919 132.044  16.745  1.00  0.00    -0.344 OA
HETATM   16  H4  LIG X 999      43.299 131.306  16.166  1.00  0.00     0.219 HD
ENDBRANCH   8  15
TORSDOF 1
