REMARK VINA RESULT:      -6.1      3.431      5.542
REMARK  6 active torsions:
REMARK  status: ('A' for Active; 'I' for Inactive)
REMARK    1  A    between atoms: N1_1  and  C1_2 
REMARK    2  A    between atoms: C1_2  and  C2_3 
REMARK    3  A    between atoms: C2_3  and  O1_4 
REMARK    4  A    between atoms: C2_3  and  C3_5 
REMARK    5  A    between atoms: C3_5  and  O2_6 
REMARK    6  A    between atoms: O2_6  and  C4_7 
ROOT
HETATM    1  C4  LIG X 999      43.721 131.745  20.389  1.00  0.00     0.080 A 
HETATM    2  C5  LIG X 999      42.455 132.346  20.537  1.00  0.00     0.037 A 
HETATM    3  C6  LIG X 999      41.673 132.639  19.419  1.00  0.00     0.004 A 
HETATM    4  C7  LIG X 999      42.132 132.341  18.138  1.00  0.00     0.012 A 
HETATM    5  C8  LIG X 999      43.388 131.743  17.962  1.00  0.00    -0.023 A 
HETATM    6  C9  LIG X 999      43.855 131.442  16.672  1.00  0.00     0.012 A 
HETATM    7  C10 LIG X 999      45.105 130.845  16.500  1.00  0.00     0.001 A 
HETATM    8  C11 LIG X 999      45.900 130.546  17.608  1.00  0.00     0.001 A 
HETATM    9  C12 LIG X 999      45.450 130.839  18.898  1.00  0.00     0.015 A 
HETATM   10  C13 LIG X 999      44.191 131.441  19.092  1.00  0.00     0.007 A 
ENDROOT
BRANCH   1  11
HETATM   11  O2  LIG X 999      44.527 131.440  21.498  1.00  0.00    -0.348 OA
BRANCH  11  12
HETATM   12  C3  LIG X 999      44.539 130.184  22.174  1.00  0.00     0.209 C 
BRANCH  12  13
HETATM   13  C2  LIG X 999      43.589 130.241  23.374  1.00  0.00     0.170 C 
BRANCH  13  14
HETATM   14  C1  LIG X 999      43.575 131.642  24.009  1.00  0.00     0.300 C 
BRANCH  14  15
HETATM   15  N1  LIG X 999      44.933 132.101  24.291  1.00  0.00     0.080 N 
HETATM   16  H1  LIG X 999      45.464 131.296  24.695  1.00  0.00     0.312 HD
HETATM   17  H2  LIG X 999      45.395 132.335  23.381  1.00  0.00     0.312 HD
ENDBRANCH  14  15
ENDBRANCH  13  14
BRANCH  13  18
HETATM   18  O1  LIG X 999      42.294 129.908  22.946  1.00  0.00    -0.392 OA
HETATM   19  H6  LIG X 999      41.802 129.581  23.745  1.00  0.00     0.210 HD
ENDBRANCH  13  18
ENDBRANCH  12  13
ENDBRANCH  11  12
ENDBRANCH   1  11
TORSDOF 6
