REMARK VINA RESULT:      -6.8      2.689      4.817
REMARK  1 active torsions:
REMARK  status: ('A' for Active; 'I' for Inactive)
REMARK    1  A    between atoms: C7_7  and  N1_8 
ROOT
HETATM    1  N1  LIG X 999      46.568 131.945  14.774  1.00  0.00    -0.110 NA
HETATM    2  N2  LIG X 999      47.152 131.489  13.790  1.00  0.00    -0.167 NA
HETATM    3  N3  LIG X 999      47.734 131.034  12.807  1.00  0.00     0.068 N 
ENDROOT
BRANCH   1   4
HETATM    4  C7  LIG X 999      45.222 131.500  15.131  1.00  0.00     0.153 C 
HETATM    5  C6  LIG X 999      45.105 129.983  14.907  1.00  0.00     0.031 C 
HETATM    6  C5  LIG X 999      45.987 129.198  15.884  1.00  0.00     0.003 C 
HETATM    7  C4  LIG X 999      45.628 129.532  17.334  1.00  0.00     0.009 C 
HETATM    8  C3  LIG X 999      45.751 131.044  17.610  1.00  0.00     0.018 C 
HETATM    9  C2  LIG X 999      45.297 131.334  19.024  1.00  0.00    -0.021 C 
HETATM   10  C8  LIG X 999      44.921 131.886  16.599  1.00  0.00     0.043 C 
HETATM   11  C1  LIG X 999      44.012 131.606  19.286  1.00  0.00    -0.004 C 
HETATM   12  C10 LIG X 999      43.033 131.732  18.189  1.00  0.00    -0.004 C 
HETATM   13  C9  LIG X 999      43.442 131.802  16.918  1.00  0.00    -0.019 C 
ENDBRANCH   1   4
TORSDOF 1
