REMARK VINA RESULT:      -5.9      1.589      2.363
REMARK  5 active torsions:
REMARK  status: ('A' for Active; 'I' for Inactive)
REMARK    1  A    between atoms: O1_2  and  C1_3 
REMARK    2  A    between atoms: C1_3  and  O4_19 
REMARK       I    between atoms: N1_4  and  C2_5 
REMARK    3  A    between atoms: C2_5  and  C3_7 
REMARK    4  A    between atoms: C4_8  and  O3_9 
REMARK    5  A    between atoms: O4_19  and  C13_20 
ROOT
HETATM    1  C3  LIG X 999      44.956 131.548  19.570  1.00  0.00     0.068 A 
HETATM    2  C4  LIG X 999      43.772 132.114  19.053  1.00  0.00     0.082 A 
HETATM    3  C5  LIG X 999      43.453 131.955  17.697  1.00  0.00     0.049 A 
HETATM    4  C6  LIG X 999      44.293 131.217  16.851  1.00  0.00    -0.023 A 
HETATM    5  C7  LIG X 999      43.975 131.053  15.493  1.00  0.00     0.012 A 
HETATM    6  C8  LIG X 999      44.817 130.311  14.661  1.00  0.00     0.001 A 
HETATM    7  C9  LIG X 999      45.979 129.728  15.174  1.00  0.00     0.001 A 
HETATM    8  C10 LIG X 999      46.305 129.883  16.525  1.00  0.00     0.012 A 
HETATM    9  C11 LIG X 999      45.467 130.627  17.371  1.00  0.00    -0.025 A 
HETATM   10  C12 LIG X 999      45.787 130.791  18.727  1.00  0.00     0.032 A 
ENDROOT
BRANCH   1  11
HETATM   11  C2  LIG X 999      45.323 131.706  20.997  1.00  0.00     0.283 C 
HETATM   12  N1  LIG X 999      44.852 130.811  22.015  1.00  0.00    -0.162 NA
HETATM   13  C1  LIG X 999      43.678 130.251  22.050  1.00  0.00     0.289 C 
HETATM   14  O2  LIG X 999      46.106 132.636  21.328  1.00  0.00    -0.265 OA
BRANCH  13  15
HETATM   15  O1  LIG X 999      42.716 130.559  21.090  1.00  0.00    -0.325 OA
HETATM   16  H1  LIG X 999      41.808 130.913  21.366  1.00  0.00     0.221 HD
ENDBRANCH  13  15
BRANCH  13  17
HETATM   17  O4  LIG X 999      43.344 129.347  23.069  1.00  0.00    -0.294 OA
BRANCH  17  18
HETATM   18  C13 LIG X 999      44.236 128.397  23.662  1.00  0.00     0.224 C 
HETATM   19 CL1  LIG X 999      45.117 127.466  22.416  1.00  0.00    -0.095 Cl
HETATM   20  C14 LIG X 999      43.501 127.466  24.625  1.00  0.00     0.057 C 
ENDBRANCH  17  18
ENDBRANCH  13  17
ENDBRANCH   1  11
BRANCH   2  21
HETATM   21  O3  LIG X 999      42.905 132.817  19.889  1.00  0.00    -0.360 OA
HETATM   22  H2  LIG X 999      43.247 133.464  20.590  1.00  0.00     0.217 HD
ENDBRANCH   2  21
TORSDOF 5
