REMARK VINA RESULT:      -8.8      0.000      0.000
REMARK  3 active torsions:
REMARK  status: ('A' for Active; 'I' for Inactive)
REMARK    1  A    between atoms: C1_2  and  C2_4 
REMARK       I    between atoms: N1_6  and  C4_7 
REMARK    2  A    between atoms: C4_7  and  C5_9 
REMARK    3  A    between atoms: C6_10  and  C7_11 
ROOT
HETATM    1  C5  LIG X 999      43.414 131.715  19.581  1.00  0.00     0.000 C 
HETATM    2  C6  LIG X 999      43.903 131.562  18.491  1.00  0.00    -0.057 C 
ENDROOT
BRANCH   1   3
HETATM    3  C4  LIG X 999      42.824 131.909  20.879  1.00  0.00     0.300 C 
HETATM    4  N1  LIG X 999      43.241 131.114  21.999  1.00  0.00    -0.317 N 
HETATM    5  C3  LIG X 999      44.244 130.090  21.960  1.00  0.00     0.172 C 
HETATM    6  C17 LIG X 999      42.689 131.226  23.332  1.00  0.00     0.298 C 
HETATM    7  C2  LIG X 999      44.356 129.670  23.419  1.00  0.00     0.242 C 
HETATM    8  O4  LIG X 999      43.273 130.225  24.140  1.00  0.00    -0.354 OA
HETATM    9  O3  LIG X 999      41.933 132.787  21.023  1.00  0.00    -0.258 OA
BRANCH   7  10
HETATM   10  C1  LIG X 999      44.350 128.178  23.562  1.00  0.00     0.204 C 
HETATM   11  O1  LIG X 999      43.270 127.537  23.461  1.00  0.00    -0.646 OA
HETATM   12  O2  LIG X 999      45.526 127.499  23.860  1.00  0.00    -0.646 OA
ENDBRANCH   7  10
ENDBRANCH   1   3
BRANCH   2  13
HETATM   13  C7  LIG X 999      44.484 131.384  17.186  1.00  0.00     0.019 A 
HETATM   14  C8  LIG X 999      43.851 131.923  16.058  1.00  0.00     0.021 A 
HETATM   15  C9  LIG X 999      44.410 131.754  14.788  1.00  0.00     0.013 A 
HETATM   16  C10 LIG X 999      45.611 131.043  14.635  1.00  0.00    -0.026 A 
HETATM   17  C11 LIG X 999      46.182 130.866  13.366  1.00  0.00     0.012 A 
HETATM   18  C15 LIG X 999      46.252 130.497  15.775  1.00  0.00    -0.025 A 
HETATM   19  C12 LIG X 999      47.377 130.157  13.226  1.00  0.00     0.001 A 
HETATM   20  C13 LIG X 999      48.010 129.618  14.349  1.00  0.00     0.001 A 
HETATM   21  C14 LIG X 999      47.452 129.786  15.620  1.00  0.00     0.012 A 
HETATM   22  C16 LIG X 999      45.682 130.673  17.044  1.00  0.00     0.032 A 
ENDBRANCH   2  13
TORSDOF 3
