REMARK VINA RESULT:      -4.8      6.317      7.834
REMARK  1 active torsions:
REMARK  status: ('A' for Active; 'I' for Inactive)
REMARK    1  A    between atoms: N1_2  and  C1_3 
ROOT
HETATM    1  C1  LIG X 999      40.767 125.061  23.103  1.00  0.00     0.120 C 
HETATM    2  C2  LIG X 999      41.194 123.926  22.415  1.00  0.00     0.057 C 
HETATM    3  C3  LIG X 999      42.536 123.786  22.037  1.00  0.00    -0.045 C 
HETATM    4  C4  LIG X 999      42.836 122.693  21.040  1.00  0.00     0.049 C 
HETATM    5  C5  LIG X 999      43.494 124.749  22.491  1.00  0.00     0.008 C 
HETATM    6  C6  LIG X 999      44.918 124.620  22.369  1.00  0.00    -0.013 C 
HETATM    7  C7  LIG X 999      45.574 123.383  22.156  1.00  0.00     0.013 C 
HETATM    8  C8  LIG X 999      46.959 123.320  21.987  1.00  0.00     0.001 C 
HETATM    9  C9  LIG X 999      47.732 124.474  22.074  1.00  0.00     0.001 C 
HETATM   10  C10 LIG X 999      47.130 125.690  22.389  1.00  0.00     0.012 C 
HETATM   11  C11 LIG X 999      45.739 125.766  22.576  1.00  0.00    -0.025 C 
HETATM   12  C12 LIG X 999      45.176 126.962  23.024  1.00  0.00     0.014 C 
HETATM   13  C13 LIG X 999      43.823 127.031  23.323  1.00  0.00     0.031 C 
HETATM   14  C14 LIG X 999      42.978 125.942  23.075  1.00  0.00     0.045 C 
HETATM   15  N2  LIG X 999      41.653 126.052  23.380  1.00  0.00    -0.341 N 
HETATM   16  H12 LIG X 999      41.300 126.922  23.845  1.00  0.00     0.167 HD
ENDROOT
BRANCH   1  17
HETATM   17  N1  LIG X 999      39.523 125.199  23.443  1.00  0.00    -0.284 NA
HETATM   18  H1  LIG X 999      38.734 124.991  22.789  1.00  0.00     0.188 HD
ENDBRANCH   1  17
TORSDOF 1
