REMARK VINA RESULT:      -8.8      0.000      0.000
REMARK  5 active torsions:
REMARK  status: ('A' for Active; 'I' for Inactive)
REMARK    1  A    between atoms: C3_3  and  O1_4 
REMARK    2  A    between atoms: O1_4  and  C4_5 
REMARK    3  A    between atoms: C4_5  and  O2_6 
REMARK    4  A    between atoms: C5_8  and  C6_9 
REMARK    5  A    between atoms: C11_14  and  O3_15 
ROOT
HETATM    1  C1  LIG X 999      45.027 127.586  22.650  1.00  0.00     0.014 C 
HETATM    2  C2  LIG X 999      44.621 128.715  22.768  1.00  0.00    -0.091 C 
HETATM    3  C3  LIG X 999      44.128 130.086  22.908  1.00  0.00     0.270 C 
ENDROOT
BRANCH   3   4
HETATM    4  O1  LIG X 999      44.012 130.672  21.617  1.00  0.00    -0.319 OA
BRANCH   4   5
HETATM    5  C4  LIG X 999      43.048 131.631  21.280  1.00  0.00     0.179 C 
HETATM    6  C5  LIG X 999      42.970 132.103  20.032  1.00  0.00     0.075 C 
BRANCH   5   7
HETATM    7  O2  LIG X 999      42.168 132.139  22.239  1.00  0.00    -0.341 OA
HETATM    8  H4  LIG X 999      41.960 133.126  22.318  1.00  0.00     0.220 HD
ENDBRANCH   5   7
BRANCH   6   9
HETATM    9  C6  LIG X 999      43.833 131.653  18.917  1.00  0.00    -0.031 A 
HETATM   10  C7  LIG X 999      45.091 131.105  19.213  1.00  0.00     0.012 A 
HETATM   11  C8  LIG X 999      45.943 130.682  18.190  1.00  0.00     0.013 A 
HETATM   12  C9  LIG X 999      45.558 130.818  16.849  1.00  0.00    -0.023 A 
HETATM   13  C10 LIG X 999      46.407 130.394  15.815  1.00  0.00     0.049 A 
HETATM   14  C15 LIG X 999      44.305 131.393  16.537  1.00  0.00    -0.025 A 
HETATM   15  C11 LIG X 999      46.026 130.539  14.476  1.00  0.00     0.069 A 
HETATM   16  C13 LIG X 999      44.778 131.115  14.171  1.00  0.00     0.037 A 
HETATM   17  C14 LIG X 999      43.927 131.540  15.195  1.00  0.00     0.015 A 
HETATM   18  C16 LIG X 999      43.456 131.817  17.570  1.00  0.00     0.024 A 
BRANCH  15  19
HETATM   19  O3  LIG X 999      46.913 130.098  13.482  1.00  0.00    -0.356 OA
HETATM   20  C12 LIG X 999      48.222 129.597  13.736  1.00  0.00     0.210 C 
ENDBRANCH  15  19
ENDBRANCH   6   9
ENDBRANCH   4   5
ENDBRANCH   3   4
TORSDOF 5
