REMARK VINA RESULT:      -8.1      1.843      6.513
REMARK  4 active torsions:
REMARK  status: ('A' for Active; 'I' for Inactive)
REMARK    1  A    between atoms: C3_3  and  O1_4 
REMARK    2  A    between atoms: O1_4  and  C4_5 
REMARK    3  A    between atoms: C4_5  and  O2_6 
REMARK    4  A    between atoms: C5_8  and  C6_9 
ROOT
HETATM    1  C1  LIG X 999      47.616 131.010  13.014  1.00  0.00     0.014 C 
HETATM    2  C2  LIG X 999      47.004 130.397  13.852  1.00  0.00    -0.091 C 
HETATM    3  C3  LIG X 999      46.259 129.656  14.870  1.00  0.00     0.270 C 
ENDROOT
BRANCH   3   4
HETATM    4  O1  LIG X 999      45.787 130.566  15.854  1.00  0.00    -0.319 OA
BRANCH   4   5
HETATM    5  C4  LIG X 999      44.611 131.318  15.720  1.00  0.00     0.179 C 
HETATM    6  C5  LIG X 999      43.954 131.724  16.809  1.00  0.00     0.075 C 
BRANCH   5   7
HETATM    7  O2  LIG X 999      44.098 131.647  14.464  1.00  0.00    -0.341 OA
HETATM    8  H4  LIG X 999      43.692 132.551  14.263  1.00  0.00     0.220 HD
ENDBRANCH   5   7
BRANCH   6   9
HETATM    9  C6  LIG X 999      44.396 131.388  18.180  1.00  0.00    -0.021 A 
HETATM   10  C7  LIG X 999      45.605 130.692  18.318  1.00  0.00     0.012 A 
HETATM   11  C8  LIG X 999      46.112 130.383  19.581  1.00  0.00     0.002 A 
HETATM   12  C9  LIG X 999      45.414 130.756  20.728  1.00  0.00     0.012 A 
HETATM   13  C10 LIG X 999      44.185 131.423  20.623  1.00  0.00    -0.025 A 
HETATM   14  C11 LIG X 999      43.475 131.772  21.782  1.00  0.00     0.012 A 
HETATM   15  C15 LIG X 999      43.653 131.734  19.342  1.00  0.00    -0.015 A 
HETATM   16  C12 LIG X 999      42.236 132.407  21.684  1.00  0.00     0.001 A 
HETATM   17  C13 LIG X 999      41.690 132.688  20.433  1.00  0.00     0.001 A 
HETATM   18  C14 LIG X 999      42.385 132.350  19.268  1.00  0.00     0.013 A 
ENDBRANCH   6   9
ENDBRANCH   4   5
ENDBRANCH   3   4
TORSDOF 4
