REMARK VINA RESULT:      -8.4      0.926      1.085
REMARK  1 active torsions:
REMARK  status: ('A' for Active; 'I' for Inactive)
REMARK    1  A    between atoms: C2_5  and  C3_6 
ROOT
HETATM    1  C3  LIG X 999      44.536 131.292  17.378  1.00  0.00     0.028 A 
HETATM    2  C4  LIG X 999      43.304 131.722  16.833  1.00  0.00     0.017 A 
HETATM    3  C5  LIG X 999      42.242 132.113  17.641  1.00  0.00     0.002 A 
HETATM    4  C6  LIG X 999      42.365 132.087  19.021  1.00  0.00     0.012 A 
HETATM    5  C7  LIG X 999      43.559 131.671  19.615  1.00  0.00    -0.025 A 
HETATM    6  C8  LIG X 999      43.649 131.658  21.017  1.00  0.00     0.012 A 
HETATM    7  C9  LIG X 999      44.822 131.250  21.644  1.00  0.00     0.001 A 
HETATM    8  C10 LIG X 999      45.914 130.851  20.881  1.00  0.00     0.001 A 
HETATM    9  C11 LIG X 999      45.844 130.856  19.487  1.00  0.00     0.013 A 
HETATM   10  C12 LIG X 999      44.667 131.265  18.810  1.00  0.00    -0.011 A 
ENDROOT
BRANCH   1  11
HETATM   11  C2  LIG X 999      45.623 130.892  16.417  1.00  0.00     0.177 A 
HETATM   12  O1  LIG X 999      45.882 131.485  15.270  1.00  0.00    -0.258 OA
HETATM   13  C1  LIG X 999      46.893 130.832  14.751  1.00  0.00     0.260 A 
HETATM   14  N1  LIG X 999      47.442 131.115  13.616  1.00  0.00    -0.261 NA
HETATM   15  N3  LIG X 999      47.288 129.830  15.546  1.00  0.00    -0.262 N 
HETATM   16  H1  LIG X 999      47.092 131.909  13.036  1.00  0.00     0.190 HD
HETATM   17  N2  LIG X 999      46.491 129.864  16.598  1.00  0.00    -0.276 N 
HETATM   18  H10 LIG X 999      48.064 129.147  15.389  1.00  0.00     0.190 HD
HETATM   19  H9  LIG X 999      46.564 129.193  17.393  1.00  0.00     0.189 HD
ENDBRANCH   1  11
TORSDOF 1
