REMARK VINA RESULT:      -7.6      5.083      7.352
REMARK  6 active torsions:
REMARK  status: ('A' for Active; 'I' for Inactive)
REMARK    1  A    between atoms: O1_2  and  C1_3 
REMARK    2  A    between atoms: C1_3  and  C2_4 
REMARK    3  A    between atoms: C1_3  and  C13_20 
REMARK    4  A    between atoms: C2_4  and  O3_6 
REMARK    5  A    between atoms: O3_6  and  C3_7 
REMARK    6  A    between atoms: C8_12  and  N1_13 
ROOT
HETATM    1  N1  LIG X 999      44.467 131.242  14.941  1.00  0.00    -0.073 NA
HETATM    2  N2  LIG X 999      45.439 131.068  14.201  1.00  0.00    -0.162 NA
HETATM    3  N3  LIG X 999      46.406 130.894  13.463  1.00  0.00     0.068 N 
ENDROOT
BRANCH   1   4
HETATM    4  C8  LIG X 999      44.578 131.217  16.370  1.00  0.00     0.094 A 
HETATM    5  C7  LIG X 999      43.543 131.682  17.204  1.00  0.00     0.046 A 
HETATM    6  C6  LIG X 999      43.686 131.642  18.599  1.00  0.00    -0.024 A 
HETATM    7  C5  LIG X 999      42.658 132.098  19.436  1.00  0.00     0.015 A 
HETATM    8  C11 LIG X 999      44.876 131.132  19.169  1.00  0.00    -0.023 A 
HETATM    9  C4  LIG X 999      42.809 132.056  20.826  1.00  0.00     0.038 A 
HETATM   10  C3  LIG X 999      43.997 131.567  21.399  1.00  0.00     0.080 A 
HETATM   11  C12 LIG X 999      45.017 131.092  20.565  1.00  0.00     0.049 A 
HETATM   12  C10 LIG X 999      45.902 130.669  18.334  1.00  0.00     0.014 A 
HETATM   13  C9  LIG X 999      45.751 130.712  16.945  1.00  0.00     0.035 A 
BRANCH  10  14
HETATM   14  O3  LIG X 999      44.185 131.497  22.786  1.00  0.00    -0.277 OA
BRANCH  14  15
HETATM   15  C2  LIG X 999      43.187 131.208  23.727  1.00  0.00     0.293 C 
HETATM   16  O2  LIG X 999      42.547 132.133  24.299  1.00  0.00    -0.262 OA
BRANCH  15  17
HETATM   17  C1  LIG X 999      42.939 129.781  24.123  1.00  0.00     0.217 C 
BRANCH  17  18
HETATM   18  O1  LIG X 999      42.064 129.187  23.202  1.00  0.00    -0.386 OA
HETATM   19  H1  LIG X 999      41.835 129.884  22.532  1.00  0.00     0.210 HD
ENDBRANCH  17  18
BRANCH  17  20
HETATM   20  C13 LIG X 999      44.251 128.981  24.149  1.00  0.00     0.037 C 
HETATM   21  C14 LIG X 999      44.335 127.958  23.015  1.00  0.00     0.008 C 
ENDBRANCH  17  20
ENDBRANCH  15  17
ENDBRANCH  14  15
ENDBRANCH  10  14
ENDBRANCH   1   4
TORSDOF 6
