REMARK VINA RESULT:      -5.3      3.343      6.093
REMARK  5 active torsions:
REMARK  status: ('A' for Active; 'I' for Inactive)
REMARK    1  A    between atoms: C6_6  and  C7_7 
REMARK    2  A    between atoms: C7_7  and  N1_8 
REMARK    3  A    between atoms: N4_11  and  C8_12 
REMARK    4  A    between atoms: C8_12  and  C9_13 
REMARK    5  A    between atoms: C9_13  and  N5_14 
ROOT
HETATM    1  N1  LIG X 999      47.148 129.791  15.996  1.00  0.00    -0.052 NA
HETATM    2  N2  LIG X 999      47.639 129.577  14.887  1.00  0.00    -0.160 NA
HETATM    3  N3  LIG X 999      48.129 129.362  13.780  1.00  0.00     0.068 N 
ENDROOT
BRANCH   1   4
HETATM    4  C7  LIG X 999      45.912 130.497  16.146  1.00  0.00     0.191 C 
HETATM    5  N4  LIG X 999      45.274 130.913  15.087  1.00  0.00    -0.267 NA
BRANCH   4   6
HETATM    6  C6  LIG X 999      45.429 130.759  17.516  1.00  0.00     0.015 A 
HETATM    7  C5  LIG X 999      44.211 131.423  17.730  1.00  0.00     0.027 A 
HETATM    8  C4  LIG X 999      43.751 131.655  19.035  1.00  0.00    -0.025 A 
HETATM    9  C3  LIG X 999      42.542 132.332  19.259  1.00  0.00     0.012 A 
HETATM   10  C12 LIG X 999      44.512 131.199  20.139  1.00  0.00    -0.026 A 
HETATM   11  C2  LIG X 999      42.094 132.557  20.564  1.00  0.00     0.001 A 
HETATM   12  C1  LIG X 999      42.847 132.110  21.653  1.00  0.00     0.001 A 
HETATM   13  C13 LIG X 999      44.052 131.432  21.445  1.00  0.00     0.012 A 
HETATM   14  C11 LIG X 999      45.716 130.514  19.917  1.00  0.00     0.013 A 
HETATM   15  C10 LIG X 999      46.165 130.289  18.613  1.00  0.00     0.016 A 
ENDBRANCH   4   6
BRANCH   5  16
HETATM   16  C8  LIG X 999      44.047 131.714  15.050  1.00  0.00     0.178 C 
BRANCH  16  17
HETATM   17  C9  LIG X 999      43.152 131.330  13.862  1.00  0.00     0.251 C 
BRANCH  17  18
HETATM   18  N5  LIG X 999      42.408 132.483  13.353  1.00  0.00    -0.078 N 
HETATM   19  H9  LIG X 999      41.884 132.925  14.142  1.00  0.00     0.274 HD
HETATM   20  H10 LIG X 999      43.064 133.188  12.949  1.00  0.00     0.274 HD
HETATM   21  H11 LIG X 999      41.723 132.177  12.623  1.00  0.00     0.274 HD
ENDBRANCH  17  18
ENDBRANCH  16  17
ENDBRANCH   5  16
ENDBRANCH   1   4
TORSDOF 5
