REMARK VINA RESULT:      -7.2      3.433      6.924
REMARK  4 active torsions:
REMARK  status: ('A' for Active; 'I' for Inactive)
REMARK    1  A    between atoms: C3_3  and  O1_4 
REMARK    2  A    between atoms: O1_4  and  C4_5 
REMARK    3  A    between atoms: C4_5  and  O2_6 
REMARK    4  A    between atoms: C5_8  and  C6_9 
ROOT
HETATM    1  C1  LIG X 999      41.000 127.027  23.853  1.00  0.00     0.014 C 
HETATM    2  C2  LIG X 999      41.449 128.145  23.887  1.00  0.00    -0.091 C 
HETATM    3  C3  LIG X 999      41.994 129.502  23.928  1.00  0.00     0.270 C 
ENDROOT
BRANCH   3   4
HETATM    4  O1  LIG X 999      42.824 129.706  22.793  1.00  0.00    -0.319 OA
BRANCH   4   5
HETATM    5  C4  LIG X 999      44.129 130.196  22.897  1.00  0.00     0.179 C 
HETATM    6  C5  LIG X 999      44.590 131.086  22.007  1.00  0.00     0.075 C 
BRANCH   5   7
HETATM    7  O2  LIG X 999      44.946 129.770  23.946  1.00  0.00    -0.341 OA
HETATM    8  H4  LIG X 999      44.949 130.232  24.849  1.00  0.00     0.220 HD
ENDBRANCH   5   7
BRANCH   6   9
HETATM    9  C6  LIG X 999      43.788 131.576  20.858  1.00  0.00    -0.021 A 
HETATM   10  C7  LIG X 999      42.556 132.209  21.102  1.00  0.00     0.012 A 
HETATM   11  C8  LIG X 999      41.753 132.641  20.048  1.00  0.00     0.002 A 
HETATM   12  C9  LIG X 999      42.155 132.439  18.730  1.00  0.00     0.012 A 
HETATM   13  C10 LIG X 999      43.371 131.801  18.452  1.00  0.00    -0.025 A 
HETATM   14  C11 LIG X 999      43.768 131.599  17.120  1.00  0.00     0.012 A 
HETATM   15  C15 LIG X 999      44.203 131.360  19.518  1.00  0.00    -0.015 A 
HETATM   16  C12 LIG X 999      44.982 130.975  16.835  1.00  0.00     0.001 A 
HETATM   17  C13 LIG X 999      45.812 130.550  17.872  1.00  0.00     0.001 A 
HETATM   18  C14 LIG X 999      45.432 130.741  19.203  1.00  0.00     0.013 A 
ENDBRANCH   6   9
ENDBRANCH   4   5
ENDBRANCH   3   4
TORSDOF 4
