REMARK VINA RESULT:      -7.4      3.464      6.367
REMARK  2 active torsions:
REMARK  status: ('A' for Active; 'I' for Inactive)
REMARK    1  A    between atoms: C6_6  and  C7_7 
REMARK    2  A    between atoms: C7_7  and  N1_8 
ROOT
HETATM    1  N1  LIG X 999      46.250 131.164  16.091  1.00  0.00    -0.106 NA
HETATM    2  N2  LIG X 999      46.387 131.062  14.871  1.00  0.00    -0.167 NA
HETATM    3  N3  LIG X 999      46.525 130.960  13.653  1.00  0.00     0.068 N 
ENDROOT
BRANCH   1   4
HETATM    4  C7  LIG X 999      45.068 131.804  16.663  1.00  0.00     0.174 C 
HETATM    5  C8  LIG X 999      43.826 131.360  15.891  1.00  0.00     0.042 C 
BRANCH   4   6
HETATM    6  C6  LIG X 999      44.928 131.460  18.132  1.00  0.00    -0.030 A 
HETATM    7  C5  LIG X 999      43.852 131.959  18.886  1.00  0.00     0.021 A 
HETATM    8  C4  LIG X 999      43.736 131.654  20.250  1.00  0.00    -0.025 A 
HETATM    9  C3  LIG X 999      42.659 132.145  21.005  1.00  0.00     0.012 A 
HETATM   10  C11 LIG X 999      44.715 130.842  20.874  1.00  0.00    -0.026 A 
HETATM   11  C2  LIG X 999      42.554 131.833  22.363  1.00  0.00     0.001 A 
HETATM   12  C1  LIG X 999      43.520 131.032  22.978  1.00  0.00     0.001 A 
HETATM   13  C12 LIG X 999      44.598 130.538  22.238  1.00  0.00     0.012 A 
HETATM   14  C10 LIG X 999      45.792 130.356  20.121  1.00  0.00     0.013 A 
HETATM   15  C9  LIG X 999      45.899 130.665  18.762  1.00  0.00     0.010 A 
ENDBRANCH   4   6
ENDBRANCH   1   4
TORSDOF 2
