REMARK VINA RESULT:      -7.4      1.900      3.770
REMARK  1 active torsions:
REMARK  status: ('A' for Active; 'I' for Inactive)
REMARK    1  A    between atoms: C11_13  and  N2_14 
ROOT
HETATM    1  N2  LIG X 999      46.331 130.428  16.315  1.00  0.00    -0.053 NA
HETATM    2  N3  LIG X 999      46.502 130.905  15.193  1.00  0.00    -0.160 NA
HETATM    3  N4  LIG X 999      46.673 131.381  14.072  1.00  0.00     0.068 N 
ENDROOT
BRANCH   1   4
HETATM    4  C11 LIG X 999      45.292 130.905  17.171  1.00  0.00     0.175 A 
HETATM    5  C10 LIG X 999      45.345 130.916  18.558  1.00  0.00     0.026 A 
HETATM    6  C5  LIG X 999      44.161 131.445  18.949  1.00  0.00     0.017 A 
HETATM    7  C9  LIG X 999      46.291 130.523  19.505  1.00  0.00     0.016 A 
HETATM    8  C4  LIG X 999      43.419 131.744  17.857  1.00  0.00     0.046 A 
HETATM    9  C6  LIG X 999      43.785 131.641  20.258  1.00  0.00     0.005 A 
HETATM   10  C3  LIG X 999      42.078 132.337  18.001  1.00  0.00     0.033 A 
HETATM   11  N5  LIG X 999      44.103 131.417  16.737  1.00  0.00    -0.337 N 
HETATM   12  C2  LIG X 999      41.611 132.573  19.250  1.00  0.00     0.034 A 
HETATM   13  C1  LIG X 999      42.439 132.238  20.463  1.00  0.00     0.059 A 
HETATM   14  N1  LIG X 999      41.992 132.463  21.657  1.00  0.00    -0.300 NA
HETATM   15  H1  LIG X 999      41.049 132.882  21.823  1.00  0.00     0.187 HD
HETATM   16  H7  LIG X 999      43.783 131.534  15.750  1.00  0.00     0.167 HD
HETATM   17  C7  LIG X 999      44.709 131.260  21.253  1.00  0.00     0.015 A 
HETATM   18  C8  LIG X 999      45.961 130.701  20.872  1.00  0.00     0.002 A 
ENDBRANCH   1   4
TORSDOF 1
