REMARK VINA RESULT:      -7.5      2.092      6.848
REMARK  4 active torsions:
REMARK  status: ('A' for Active; 'I' for Inactive)
REMARK    1  A    between atoms: C3_3  and  O1_4 
REMARK    2  A    between atoms: O1_4  and  C4_5 
REMARK    3  A    between atoms: C4_5  and  O2_6 
REMARK    4  A    between atoms: C5_8  and  C6_9 
ROOT
HETATM    1  C1  LIG X 999      47.626 131.266  13.001  1.00  0.00     0.014 C 
HETATM    2  C2  LIG X 999      46.531 131.106  13.479  1.00  0.00    -0.091 C 
HETATM    3  C3  LIG X 999      45.204 130.910  14.062  1.00  0.00     0.270 C 
ENDROOT
BRANCH   3   4
HETATM    4  O1  LIG X 999      45.309 130.024  15.169  1.00  0.00    -0.319 OA
BRANCH   4   5
HETATM    5  C4  LIG X 999      46.490 129.820  15.895  1.00  0.00     0.179 C 
HETATM    6  C5  LIG X 999      46.557 130.160  17.188  1.00  0.00     0.075 C 
BRANCH   5   7
HETATM    7  O2  LIG X 999      47.629 129.289  15.288  1.00  0.00    -0.341 OA
HETATM    8  H4  LIG X 999      48.247 128.644  15.763  1.00  0.00     0.220 HD
ENDBRANCH   5   7
BRANCH   6   9
HETATM    9  C6  LIG X 999      45.428 130.728  17.959  1.00  0.00    -0.031 A 
HETATM   10  C7  LIG X 999      44.380 131.349  17.264  1.00  0.00     0.012 A 
HETATM   11  C8  LIG X 999      43.303 131.914  17.953  1.00  0.00     0.013 A 
HETATM   12  C9  LIG X 999      43.267 131.881  19.354  1.00  0.00    -0.026 A 
HETATM   13  C10 LIG X 999      42.191 132.444  20.056  1.00  0.00     0.012 A 
HETATM   14  C14 LIG X 999      44.332 131.282  20.068  1.00  0.00    -0.025 A 
HETATM   15  C11 LIG X 999      42.171 132.414  21.454  1.00  0.00     0.001 A 
HETATM   16  C12 LIG X 999      43.224 131.825  22.159  1.00  0.00     0.001 A 
HETATM   17  C13 LIG X 999      44.302 131.261  21.471  1.00  0.00     0.012 A 
HETATM   18  C15 LIG X 999      45.410 130.718  19.367  1.00  0.00     0.024 A 
ENDBRANCH   6   9
ENDBRANCH   4   5
ENDBRANCH   3   4
TORSDOF 4
