REMARK VINA RESULT:      -7.7      3.648      5.465
REMARK  2 active torsions:
REMARK  status: ('A' for Active; 'I' for Inactive)
REMARK    1  A    between atoms: C1_1  and  N1_14 
REMARK    2  A    between atoms: C2_2  and  C3_4 
ROOT
HETATM    1  C3  LIG X 999      44.642 131.209  18.648  1.00  0.00     0.003 A 
HETATM    2  C4  LIG X 999      43.593 131.778  17.902  1.00  0.00     0.015 A 
HETATM    3  C5  LIG X 999      43.634 131.788  16.506  1.00  0.00     0.013 A 
HETATM    4  C6  LIG X 999      44.728 131.235  15.827  1.00  0.00    -0.026 A 
HETATM    5  C7  LIG X 999      44.778 131.240  14.424  1.00  0.00     0.012 A 
HETATM    6  C8  LIG X 999      45.876 130.689  13.759  1.00  0.00     0.001 A 
HETATM    7  C9  LIG X 999      46.932 130.133  14.487  1.00  0.00     0.001 A 
HETATM    8  C10 LIG X 999      46.895 130.123  15.884  1.00  0.00     0.012 A 
HETATM    9  C11 LIG X 999      45.796 130.672  16.564  1.00  0.00    -0.025 A 
HETATM   10  C12 LIG X 999      45.747 130.669  17.967  1.00  0.00     0.026 A 
ENDROOT
BRANCH   1  11
HETATM   11  C2  LIG X 999      44.629 131.198  20.134  1.00  0.00     0.132 C 
HETATM   12  C1  LIG X 999      43.534 131.522  20.838  1.00  0.00     0.121 C 
HETATM   13  O1  LIG X 999      45.787 130.817  20.808  1.00  0.00    -0.190 OA
BRANCH  12  14
HETATM   14  N1  LIG X 999      43.533 131.515  22.268  1.00  0.00    -0.406 N 
HETATM   15  H9  LIG X 999      44.386 131.745  22.825  1.00  0.00     0.155 HD
HETATM   16  H10 LIG X 999      42.654 131.278  22.779  1.00  0.00     0.155 HD
ENDBRANCH  12  14
ENDBRANCH   1  11
TORSDOF 2
