REMARK VINA RESULT:      -6.1      4.834      7.207
REMARK  4 active torsions:
REMARK  status: ('A' for Active; 'I' for Inactive)
REMARK    1  A    between atoms: C3_3  and  O1_4 
REMARK    2  A    between atoms: O1_4  and  C4_5 
REMARK    3  A    between atoms: C4_5  and  O2_6 
REMARK    4  A    between atoms: C5_8  and  C6_9 
ROOT
HETATM    1  C1  LIG X 999      44.638 131.728  19.111  1.00  0.00     0.014 C 
HETATM    2  C2  LIG X 999      43.887 131.704  20.054  1.00  0.00    -0.091 C 
HETATM    3  C3  LIG X 999      42.975 131.671  21.198  1.00  0.00     0.270 C 
ENDROOT
BRANCH   3   4
HETATM    4  O1  LIG X 999      43.298 130.557  22.019  1.00  0.00    -0.319 OA
BRANCH   4   5
HETATM    5  C4  LIG X 999      43.986 130.690  23.229  1.00  0.00     0.179 C 
HETATM    6  C5  LIG X 999      43.954 129.700  24.130  1.00  0.00     0.075 C 
BRANCH   5   7
HETATM    7  O2  LIG X 999      44.712 131.853  23.490  1.00  0.00    -0.341 OA
HETATM    8  H4  LIG X 999      44.336 132.605  24.057  1.00  0.00     0.220 HD
ENDBRANCH   5   7
BRANCH   6   9
HETATM    9  C6  LIG X 999      43.236 128.429  23.891  1.00  0.00    -0.021 A 
HETATM   10  C7  LIG X 999      41.861 128.400  24.168  1.00  0.00     0.012 A 
HETATM   11  C8  LIG X 999      41.127 127.224  24.015  1.00  0.00     0.002 A 
HETATM   12  C9  LIG X 999      41.750 126.058  23.571  1.00  0.00     0.012 A 
HETATM   13  C10 LIG X 999      43.115 126.064  23.253  1.00  0.00    -0.025 A 
HETATM   14  C11 LIG X 999      43.730 124.894  22.780  1.00  0.00     0.012 A 
HETATM   15  C15 LIG X 999      43.873 127.258  23.395  1.00  0.00    -0.015 A 
HETATM   16  C12 LIG X 999      45.081 124.901  22.431  1.00  0.00     0.001 A 
HETATM   17  C13 LIG X 999      45.826 126.076  22.537  1.00  0.00     0.001 A 
HETATM   18  C14 LIG X 999      45.230 127.248  23.008  1.00  0.00     0.013 A 
ENDBRANCH   6   9
ENDBRANCH   4   5
ENDBRANCH   3   4
TORSDOF 4
