MODEL 1
REMARK VINA RESULT:      -7.7      0.000      0.000
REMARK  1 active torsions:
REMARK  status: ('A' for Active; 'I' for Inactive)
REMARK    1  A    between atoms: C14_14  and  N1_15 
ROOT
HETATM    1  N1  LIG X 999      42.671 131.204  23.485  1.00  0.00    -0.216 NA
HETATM    2  C15 LIG X 999      42.192 130.137  23.988  1.00  0.00     0.165 C 
HETATM    3  S1  LIG X 999      41.586 128.787  24.625  1.00  0.00    -0.055 SA
ENDROOT
BRANCH   1   4
HETATM    4  C14 LIG X 999      43.225 131.293  22.161  1.00  0.00     0.130 C 
HETATM    5  C13 LIG X 999      44.597 131.138  21.921  1.00  0.00     0.058 C 
HETATM    6  C11 LIG X 999      45.108 131.248  20.620  1.00  0.00    -0.045 C 
HETATM    7  C10 LIG X 999      44.203 131.377  19.520  1.00  0.00     0.008 C 
HETATM    8  C12 LIG X 999      46.608 131.375  20.506  1.00  0.00     0.049 C 
HETATM    9  C4  LIG X 999      44.565 131.280  18.135  1.00  0.00    -0.013 C 
HETATM   10  C9  LIG X 999      42.843 131.661  19.838  1.00  0.00     0.045 C 
HETATM   11  C3  LIG X 999      45.754 130.662  17.681  1.00  0.00     0.013 C 
HETATM   12  C5  LIG X 999      43.643 131.727  17.144  1.00  0.00    -0.025 C 
HETATM   13  C2  LIG X 999      46.087 130.644  16.325  1.00  0.00     0.001 C 
HETATM   14  C1  LIG X 999      45.225 131.197  15.382  1.00  0.00     0.001 C 
HETATM   15  C6  LIG X 999      43.998 131.717  15.785  1.00  0.00     0.012 C 
HETATM   16  C7  LIG X 999      42.357 132.127  17.510  1.00  0.00     0.014 C 
HETATM   17  C8  LIG X 999      41.946 132.041  18.832  1.00  0.00     0.031 C 
HETATM   18  N2  LIG X 999      42.400 131.590  21.126  1.00  0.00    -0.340 N 
HETATM   19  H11 LIG X 999      41.390 131.765  21.337  1.00  0.00     0.167 HD
ENDBRANCH   1   4
TORSDOF 1
ENDMDL
MODEL 2
REMARK VINA RESULT:      -7.7      3.757      6.001
REMARK  1 active torsions:
REMARK  status: ('A' for Active; 'I' for Inactive)
REMARK    1  A    between atoms: C14_14  and  N1_15 
ROOT
HETATM    1  N1  LIG X 999      44.968 131.487  14.652  1.00  0.00    -0.216 NA
HETATM    2  C15 LIG X 999      46.077 131.192  14.100  1.00  0.00     0.165 C 
HETATM    3  S1  LIG X 999      47.480 130.818  13.401  1.00  0.00    -0.055 SA
ENDROOT
BRANCH   1   4
HETATM    4  C14 LIG X 999      44.730 131.417  16.068  1.00  0.00     0.130 C 
HETATM    5  C13 LIG X 999      45.647 130.826  16.945  1.00  0.00     0.058 C 
HETATM    6  C11 LIG X 999      45.376 130.757  18.320  1.00  0.00    -0.045 C 
HETATM    7  C10 LIG X 999      44.221 131.423  18.839  1.00  0.00     0.008 C 
HETATM    8  C12 LIG X 999      46.264 129.841  19.126  1.00  0.00     0.049 C 
HETATM    9  C4  LIG X 999      43.938 131.622  20.232  1.00  0.00    -0.013 C 
HETATM   10  C9  LIG X 999      43.265 131.886  17.889  1.00  0.00     0.045 C 
HETATM   11  C3  LIG X 999      44.923 131.552  21.246  1.00  0.00     0.013 C 
HETATM   12  C5  LIG X 999      42.626 132.018  20.623  1.00  0.00    -0.025 C 
HETATM   13  C2  LIG X 999      44.585 131.698  22.593  1.00  0.00     0.001 C 
HETATM   14  C1  LIG X 999      43.269 131.965  22.962  1.00  0.00     0.001 C 
HETATM   15  C6  LIG X 999      42.297 132.147  21.983  1.00  0.00     0.012 C 
HETATM   16  C7  LIG X 999      41.671 132.337  19.657  1.00  0.00     0.014 C 
HETATM   17  C8  LIG X 999      42.005 132.325  18.311  1.00  0.00     0.031 C 
HETATM   18  N2  LIG X 999      43.554 131.888  16.556  1.00  0.00    -0.340 N 
HETATM   19  H11 LIG X 999      42.855 132.267  15.875  1.00  0.00     0.167 HD
ENDBRANCH   1   4
TORSDOF 1
ENDMDL
MODEL 3
REMARK VINA RESULT:      -6.5      1.204      1.520
REMARK  1 active torsions:
REMARK  status: ('A' for Active; 'I' for Inactive)
REMARK    1  A    between atoms: C14_14  and  N1_15 
ROOT
HETATM    1  N1  LIG X 999      42.345 132.034  22.001  1.00  0.00    -0.216 NA
HETATM    2  C15 LIG X 999      42.658 131.606  23.159  1.00  0.00     0.165 C 
HETATM    3  S1  LIG X 999      43.054 131.066  24.625  1.00  0.00    -0.055 SA
ENDROOT
BRANCH   1   4
HETATM    4  C14 LIG X 999      43.127 131.800  20.818  1.00  0.00     0.130 C 
HETATM    5  C13 LIG X 999      44.475 131.427  20.883  1.00  0.00     0.058 C 
HETATM    6  C11 LIG X 999      45.215 131.224  19.709  1.00  0.00    -0.045 C 
HETATM    7  C10 LIG X 999      44.546 131.261  18.445  1.00  0.00     0.008 C 
HETATM    8  C12 LIG X 999      46.712 131.132  19.876  1.00  0.00     0.049 C 
HETATM    9  C4  LIG X 999      45.122 130.861  17.192  1.00  0.00    -0.013 C 
HETATM   10  C9  LIG X 999      43.217 131.775  18.436  1.00  0.00     0.045 C 
HETATM   11  C3  LIG X 999      46.255 130.020  17.088  1.00  0.00     0.013 C 
HETATM   12  C5  LIG X 999      44.471 131.231  15.980  1.00  0.00    -0.025 C 
HETATM   13  C2  LIG X 999      46.810 129.705  15.846  1.00  0.00     0.001 C 
HETATM   14  C1  LIG X 999      46.225 130.179  14.675  1.00  0.00     0.001 C 
HETATM   15  C6  LIG X 999      45.049 130.921  14.738  1.00  0.00     0.012 C 
HETATM   16  C7  LIG X 999      43.223 131.856  16.015  1.00  0.00     0.014 C 
HETATM   17  C8  LIG X 999      42.582 132.073  17.225  1.00  0.00     0.031 C 
HETATM   18  N2  LIG X 999      42.553 132.003  19.605  1.00  0.00    -0.340 N 
HETATM   19  H11 LIG X 999      41.563 132.344  19.581  1.00  0.00     0.167 HD
ENDBRANCH   1   4
TORSDOF 1
ENDMDL
MODEL 4
REMARK VINA RESULT:      -6.5      3.619      6.381
REMARK  1 active torsions:
REMARK  status: ('A' for Active; 'I' for Inactive)
REMARK    1  A    between atoms: C14_14  and  N1_15 
ROOT
HETATM    1  N1  LIG X 999      44.447 130.957  15.100  1.00  0.00    -0.216 NA
HETATM    2  C15 LIG X 999      45.588 130.975  14.537  1.00  0.00     0.165 C 
HETATM    3  S1  LIG X 999      47.033 130.996  13.823  1.00  0.00    -0.055 SA
ENDROOT
BRANCH   1   4
HETATM    4  C14 LIG X 999      44.235 131.207  16.500  1.00  0.00     0.130 C 
HETATM    5  C13 LIG X 999      43.021 131.707  16.987  1.00  0.00     0.058 C 
HETATM    6  C11 LIG X 999      42.853 131.957  18.357  1.00  0.00    -0.045 C 
HETATM    7  C10 LIG X 999      43.880 131.564  19.272  1.00  0.00     0.008 C 
HETATM    8  C12 LIG X 999      41.643 132.774  18.738  1.00  0.00     0.049 C 
HETATM    9  C4  LIG X 999      43.755 131.556  20.702  1.00  0.00    -0.013 C 
HETATM   10  C9  LIG X 999      45.134 131.189  18.708  1.00  0.00     0.045 C 
HETATM   11  C3  LIG X 999      42.512 131.548  21.377  1.00  0.00     0.013 C 
HETATM   12  C5  LIG X 999      44.931 131.442  21.499  1.00  0.00    -0.025 C 
HETATM   13  C2  LIG X 999      42.445 131.598  22.770  1.00  0.00     0.001 C 
HETATM   14  C1  LIG X 999      43.612 131.607  23.530  1.00  0.00     0.001 C 
HETATM   15  C6  LIG X 999      44.850 131.508  22.900  1.00  0.00     0.012 C 
HETATM   16  C7  LIG X 999      46.168 131.206  20.898  1.00  0.00     0.014 C 
HETATM   17  C8  LIG X 999      46.258 131.026  19.526  1.00  0.00     0.031 C 
HETATM   18  N2  LIG X 999      45.263 131.004  17.363  1.00  0.00    -0.340 N 
HETATM   19  H11 LIG X 999      46.181 130.692  16.968  1.00  0.00     0.167 HD
ENDBRANCH   1   4
TORSDOF 1
ENDMDL
MODEL 5
REMARK VINA RESULT:      -6.4      2.463      4.800
REMARK  1 active torsions:
REMARK  status: ('A' for Active; 'I' for Inactive)
REMARK    1  A    between atoms: C14_14  and  N1_15 
ROOT
HETATM    1  N1  LIG X 999      42.456 132.139  18.799  1.00  0.00    -0.216 NA
HETATM    2  C15 LIG X 999      42.699 131.889  20.024  1.00  0.00     0.165 C 
HETATM    3  S1  LIG X 999      43.006 131.574  21.574  1.00  0.00    -0.055 SA
ENDROOT
BRANCH   1   4
HETATM    4  C14 LIG X 999      43.305 131.737  17.712  1.00  0.00     0.130 C 
HETATM    5  C13 LIG X 999      42.987 132.026  16.378  1.00  0.00     0.058 C 
HETATM    6  C11 LIG X 999      43.828 131.603  15.338  1.00  0.00    -0.045 C 
HETATM    7  C10 LIG X 999      45.085 131.001  15.656  1.00  0.00     0.008 C 
HETATM    8  C12 LIG X 999      43.252 131.686  13.945  1.00  0.00     0.049 C 
HETATM    9  C4  LIG X 999      46.131 130.723  14.712  1.00  0.00    -0.013 C 
HETATM   10  C9  LIG X 999      45.289 130.616  17.013  1.00  0.00     0.045 C 
HETATM   11  C3  LIG X 999      46.229 131.352  13.449  1.00  0.00     0.013 C 
HETATM   12  C5  LIG X 999      47.193 129.853  15.092  1.00  0.00    -0.025 C 
HETATM   13  C2  LIG X 999      47.234 131.004  12.544  1.00  0.00     0.001 C 
HETATM   14  C1  LIG X 999      48.196 130.059  12.891  1.00  0.00     0.001 C 
HETATM   15  C6  LIG X 999      48.191 129.501  14.167  1.00  0.00     0.012 C 
HETATM   16  C7  LIG X 999      47.286 129.386  16.404  1.00  0.00     0.014 C 
HETATM   17  C8  LIG X 999      46.377 129.809  17.363  1.00  0.00     0.031 C 
HETATM   18  N2  LIG X 999      44.417 131.009  17.985  1.00  0.00    -0.340 N 
HETATM   19  H11 LIG X 999      44.602 130.750  18.983  1.00  0.00     0.167 HD
ENDBRANCH   1   4
TORSDOF 1
ENDMDL
MODEL 6
REMARK VINA RESULT:      -6.2      1.574      2.575
REMARK  1 active torsions:
REMARK  status: ('A' for Active; 'I' for Inactive)
REMARK    1  A    between atoms: C14_14  and  N1_15 
ROOT
HETATM    1  N1  LIG X 999      42.175 132.093  20.631  1.00  0.00    -0.216 NA
HETATM    2  C15 LIG X 999      42.423 131.943  21.871  1.00  0.00     0.165 C 
HETATM    3  S1  LIG X 999      42.738 131.754  23.440  1.00  0.00    -0.055 SA
ENDROOT
BRANCH   1   4
HETATM    4  C14 LIG X 999      43.110 131.798  19.581  1.00  0.00     0.130 C 
HETATM    5  C13 LIG X 999      44.410 131.352  19.850  1.00  0.00     0.058 C 
HETATM    6  C11 LIG X 999      45.305 131.089  18.802  1.00  0.00    -0.045 C 
HETATM    7  C10 LIG X 999      44.835 131.142  17.452  1.00  0.00     0.008 C 
HETATM    8  C12 LIG X 999      46.752 130.918  19.194  1.00  0.00     0.049 C 
HETATM    9  C4  LIG X 999      45.569 130.690  16.304  1.00  0.00    -0.013 C 
HETATM   10  C9  LIG X 999      43.554 131.727  17.240  1.00  0.00     0.045 C 
HETATM   11  C3  LIG X 999      46.655 129.786  16.378  1.00  0.00     0.013 C 
HETATM   12  C5  LIG X 999      45.128 131.074  15.004  1.00  0.00    -0.025 C 
HETATM   13  C2  LIG X 999      47.371 129.421  15.236  1.00  0.00     0.001 C 
HETATM   14  C1  LIG X 999      46.995 129.906  13.986  1.00  0.00     0.001 C 
HETATM   15  C6  LIG X 999      45.866 130.712  13.865  1.00  0.00     0.012 C 
HETATM   16  C7  LIG X 999      43.926 131.767  14.846  1.00  0.00     0.014 C 
HETATM   17  C8  LIG X 999      43.124 132.039  15.944  1.00  0.00     0.031 C 
HETATM   18  N2  LIG X 999      42.736 132.011  18.293  1.00  0.00    -0.340 N 
HETATM   19  H11 LIG X 999      41.782 132.406  18.118  1.00  0.00     0.167 HD
ENDBRANCH   1   4
TORSDOF 1
ENDMDL
MODEL 7
REMARK VINA RESULT:      -6.2      1.353      2.874
REMARK  1 active torsions:
REMARK  status: ('A' for Active; 'I' for Inactive)
REMARK    1  A    between atoms: C14_14  and  N1_15 
ROOT
HETATM    1  N1  LIG X 999      44.275 131.925  22.585  1.00  0.00    -0.216 NA
HETATM    2  C15 LIG X 999      43.662 131.221  23.450  1.00  0.00     0.165 C 
HETATM    3  S1  LIG X 999      42.887 130.329  24.545  1.00  0.00    -0.055 SA
ENDROOT
BRANCH   1   4
HETATM    4  C14 LIG X 999      44.204 131.701  21.167  1.00  0.00     0.130 C 
HETATM    5  C13 LIG X 999      43.090 132.088  20.411  1.00  0.00     0.058 C 
HETATM    6  C11 LIG X 999      43.044 131.839  19.031  1.00  0.00    -0.045 C 
HETATM    7  C10 LIG X 999      44.202 131.316  18.376  1.00  0.00     0.008 C 
HETATM    8  C12 LIG X 999      41.696 132.007  18.372  1.00  0.00     0.049 C 
HETATM    9  C4  LIG X 999      44.374 131.218  16.954  1.00  0.00    -0.013 C 
HETATM   10  C9  LIG X 999      45.245 130.821  19.211  1.00  0.00     0.045 C 
HETATM   11  C3  LIG X 999      43.620 131.970  16.023  1.00  0.00     0.013 C 
HETATM   12  C5  LIG X 999      45.426 130.407  16.438  1.00  0.00    -0.025 C 
HETATM   13  C2  LIG X 999      43.788 131.796  14.648  1.00  0.00     0.001 C 
HETATM   14  C1  LIG X 999      44.742 130.906  14.163  1.00  0.00     0.001 C 
HETATM   15  C6  LIG X 999      45.573 130.229  15.052  1.00  0.00     0.012 C 
HETATM   16  C7  LIG X 999      46.356 129.826  17.302  1.00  0.00     0.014 C 
HETATM   17  C8  LIG X 999      46.297 130.078  18.665  1.00  0.00     0.031 C 
HETATM   18  N2  LIG X 999      45.223 131.046  20.557  1.00  0.00    -0.340 N 
HETATM   19  H11 LIG X 999      46.016 130.708  21.151  1.00  0.00     0.167 HD
ENDBRANCH   1   4
TORSDOF 1
ENDMDL
MODEL 8
REMARK VINA RESULT:      -6.1      4.214      6.642
REMARK  1 active torsions:
REMARK  status: ('A' for Active; 'I' for Inactive)
REMARK    1  A    between atoms: C14_14  and  N1_15 
ROOT
HETATM    1  N1  LIG X 999      47.086 129.014  14.881  1.00  0.00    -0.216 NA
HETATM    2  C15 LIG X 999      47.707 129.522  13.893  1.00  0.00     0.165 C 
HETATM    3  S1  LIG X 999      48.494 130.164  12.642  1.00  0.00    -0.055 SA
ENDROOT
BRANCH   1   4
HETATM    4  C14 LIG X 999      46.219 129.756  15.755  1.00  0.00     0.130 C 
HETATM    5  C13 LIG X 999      45.098 130.445  15.276  1.00  0.00     0.058 C 
HETATM    6  C11 LIG X 999      44.283 131.175  16.153  1.00  0.00    -0.045 C 
HETATM    7  C10 LIG X 999      44.520 131.094  17.561  1.00  0.00     0.008 C 
HETATM    8  C12 LIG X 999      43.299 132.122  15.510  1.00  0.00     0.049 C 
HETATM    9  C4  LIG X 999      43.645 131.603  18.579  1.00  0.00    -0.013 C 
HETATM   10  C9  LIG X 999      45.745 130.492  17.972  1.00  0.00     0.045 C 
HETATM   11  C3  LIG X 999      42.276 131.886  18.359  1.00  0.00     0.013 C 
HETATM   12  C5  LIG X 999      44.133 131.734  19.911  1.00  0.00    -0.025 C 
HETATM   13  C2  LIG X 999      41.480 132.433  19.368  1.00  0.00     0.001 C 
HETATM   14  C1  LIG X 999      42.012 132.667  20.634  1.00  0.00     0.001 C 
HETATM   15  C6  LIG X 999      43.326 132.299  20.912  1.00  0.00     0.012 C 
HETATM   16  C7  LIG X 999      45.398 131.250  20.248  1.00  0.00     0.014 C 
HETATM   17  C8  LIG X 999      46.168 130.588  19.303  1.00  0.00     0.031 C 
HETATM   18  N2  LIG X 999      46.532 129.834  17.074  1.00  0.00    -0.340 N 
HETATM   19  H11 LIG X 999      47.409 129.364  17.400  1.00  0.00     0.167 HD
ENDBRANCH   1   4
TORSDOF 1
ENDMDL
MODEL 9
REMARK VINA RESULT:      -5.1      6.666      8.478
REMARK  1 active torsions:
REMARK  status: ('A' for Active; 'I' for Inactive)
REMARK    1  A    between atoms: C14_14  and  N1_15 
ROOT
HETATM    1  N1  LIG X 999      46.824 125.815  22.155  1.00  0.00    -0.216 NA
HETATM    2  C15 LIG X 999      47.399 124.727  21.830  1.00  0.00     0.165 C 
HETATM    3  S1  LIG X 999      48.127 123.350  21.418  1.00  0.00    -0.055 SA
ENDROOT
BRANCH   1   4
HETATM    4  C14 LIG X 999      45.457 125.906  22.589  1.00  0.00     0.130 C 
HETATM    5  C13 LIG X 999      44.929 127.084  23.131  1.00  0.00     0.058 C 
HETATM    6  C11 LIG X 999      43.595 127.135  23.562  1.00  0.00    -0.045 C 
HETATM    7  C10 LIG X 999      42.736 126.018  23.312  1.00  0.00     0.008 C 
HETATM    8  C12 LIG X 999      43.214 128.328  24.403  1.00  0.00     0.049 C 
HETATM    9  C4  LIG X 999      41.313 126.012  23.496  1.00  0.00    -0.013 C 
HETATM   10  C9  LIG X 999      43.360 124.811  22.884  1.00  0.00     0.045 C 
HETATM   11  C3  LIG X 999      40.529 127.189  23.560  1.00  0.00     0.013 C 
HETATM   12  C5  LIG X 999      40.621 124.766  23.509  1.00  0.00    -0.025 C 
HETATM   13  C2  LIG X 999      39.154 127.130  23.796  1.00  0.00     0.001 C 
HETATM   14  C1  LIG X 999      38.516 125.900  23.927  1.00  0.00     0.001 C 
HETATM   15  C6  LIG X 999      39.240 124.722  23.763  1.00  0.00     0.012 C 
HETATM   16  C7  LIG X 999      41.298 123.582  23.214  1.00  0.00     0.014 C 
HETATM   17  C8  LIG X 999      42.637 123.613  22.851  1.00  0.00     0.031 C 
HETATM   18  N2  LIG X 999      44.675 124.799  22.521  1.00  0.00    -0.340 N 
HETATM   19  H11 LIG X 999      45.109 123.912  22.172  1.00  0.00     0.167 HD
ENDBRANCH   1   4
TORSDOF 1
ENDMDL
