REMARK VINA RESULT:      -6.8      3.112      4.999
REMARK  4 active torsions:
REMARK  status: ('A' for Active; 'I' for Inactive)
REMARK    1  A    between atoms: C3_3  and  O1_4 
REMARK    2  A    between atoms: O1_4  and  C4_5 
REMARK    3  A    between atoms: C4_5  and  O2_6 
REMARK    4  A    between atoms: C5_8  and  C6_9 
ROOT
HETATM    1  C1  LIG X 999      42.971 126.592  23.840  1.00  0.00     0.014 C 
HETATM    2  C2  LIG X 999      42.593 127.735  23.787  1.00  0.00    -0.091 C 
HETATM    3  C3  LIG X 999      42.135 129.123  23.718  1.00  0.00     0.270 C 
ENDROOT
BRANCH   3   4
HETATM    4  O1  LIG X 999      42.860 129.801  22.702  1.00  0.00    -0.319 OA
BRANCH   4   5
HETATM    5  C4  LIG X 999      44.036 130.527  22.936  1.00  0.00     0.179 C 
HETATM    6  C5  LIG X 999      44.435 131.450  22.055  1.00  0.00     0.075 C 
BRANCH   5   7
HETATM    7  O2  LIG X 999      44.815 130.302  24.072  1.00  0.00    -0.341 OA
HETATM    8  H4  LIG X 999      44.421 130.267  25.003  1.00  0.00     0.220 HD
ENDBRANCH   5   7
BRANCH   6   9
HETATM    9  C6  LIG X 999      43.699 131.728  20.802  1.00  0.00    -0.021 A 
HETATM   10  C7  LIG X 999      42.428 132.309  20.915  1.00  0.00     0.012 A 
HETATM   11  C8  LIG X 999      41.695 132.647  19.776  1.00  0.00     0.002 A 
HETATM   12  C9  LIG X 999      42.215 132.401  18.507  1.00  0.00     0.012 A 
HETATM   13  C10 LIG X 999      43.467 131.790  18.363  1.00  0.00    -0.025 A 
HETATM   14  C11 LIG X 999      43.974 131.521  17.081  1.00  0.00     0.012 A 
HETATM   15  C15 LIG X 999      44.221 131.432  19.514  1.00  0.00    -0.015 A 
HETATM   16  C12 LIG X 999      45.205 130.884  16.930  1.00  0.00     0.001 A 
HETATM   17  C13 LIG X 999      45.938 130.500  18.053  1.00  0.00     0.001 A 
HETATM   18  C14 LIG X 999      45.451 130.762  19.335  1.00  0.00     0.013 A 
ENDBRANCH   6   9
ENDBRANCH   4   5
ENDBRANCH   3   4
TORSDOF 4
