REMARK VINA RESULT:      -4.8      5.386      6.848
REMARK  4 active torsions:
REMARK  status: ('A' for Active; 'I' for Inactive)
REMARK    1  A    between atoms: C4_4  and  N1_5 
REMARK    2  A    between atoms: C7_10  and  S1_11 
REMARK    3  A    between atoms: S1_11  and  C8_12 
REMARK    4  A    between atoms: C8_12  and  C9_13 
ROOT
HETATM    1  N1  LIG X 999      45.589 126.639  23.829  1.00  0.00    -0.071 NA
HETATM    2  N2  LIG X 999      45.112 127.626  23.268  1.00  0.00    -0.162 NA
HETATM    3  N3  LIG X 999      44.630 128.613  22.714  1.00  0.00     0.068 N 
ENDROOT
BRANCH   1   4
HETATM    4  C4  LIG X 999      46.005 125.456  23.126  1.00  0.00     0.108 A 
HETATM    5  C3  LIG X 999      45.024 124.519  22.784  1.00  0.00     0.008 A 
HETATM    6  C2  LIG X 999      45.321 123.388  22.096  1.00  0.00    -0.021 A 
HETATM    7  C15 LIG X 999      43.575 124.565  23.094  1.00  0.00     0.278 C 
HETATM    8  C1  LIG X 999      46.618 123.103  21.688  1.00  0.00     0.018 A 
HETATM    9  C18 LIG X 999      44.110 122.564  21.889  1.00  0.00     0.276 C 
HETATM   10  C6  LIG X 999      47.652 124.013  21.990  1.00  0.00    -0.035 A 
HETATM   11  C5  LIG X 999      47.361 125.174  22.775  1.00  0.00    -0.018 A 
HETATM   12  C7  LIG X 999      49.072 123.666  21.561  1.00  0.00     0.081 C 
HETATM   13  C14 LIG X 999      48.485 126.084  23.230  1.00  0.00     0.042 C 
HETATM   14  C13 LIG X 999      49.851 125.398  23.207  1.00  0.00     0.006 C 
HETATM   15  C12 LIG X 999      50.093 124.780  21.836  1.00  0.00     0.020 C 
HETATM   16  N4  LIG X 999      42.968 123.399  22.377  1.00  0.00    -0.067 N 
HETATM   17  C16 LIG X 999      42.159 123.874  21.227  1.00  0.00     0.272 C 
HETATM   18  C17 LIG X 999      42.100 122.617  23.288  1.00  0.00     0.272 C 
BRANCH  12  19
HETATM   19  S1  LIG X 999      49.168 123.135  19.800  1.00  0.00    -0.147 SA
BRANCH  19  20
HETATM   20  C8  LIG X 999      50.833 122.375  19.813  1.00  0.00     0.168 C 
BRANCH  20  21
HETATM   21  C9  LIG X 999      51.700 123.089  18.874  1.00  0.00    -0.097 C 
HETATM   22  C10 LIG X 999      52.417 123.678  18.104  1.00  0.00    -0.110 C 
HETATM   23  C11 LIG X 999      53.291 124.391  17.172  1.00  0.00     0.112 C 
ENDBRANCH  20  21
ENDBRANCH  19  20
ENDBRANCH  12  19
ENDBRANCH   1   4
TORSDOF 4
