REMARK VINA RESULT:      -5.3      1.955      2.325
REMARK  2 active torsions:
REMARK  status: ('A' for Active; 'I' for Inactive)
REMARK    1  A    between atoms: C2_5  and  C3_6 
REMARK    2  A    between atoms: N3_18  and  C13_19 
ROOT
HETATM    1  H1  LIG X 999      46.121 133.918  20.464  1.00  0.00     0.190 HD
HETATM    2  N1  LIG X 999      45.866 133.193  19.755  1.00  0.00    -0.260 NA
HETATM    3  C1  LIG X 999      45.279 132.096  20.111  1.00  0.00     0.268 A 
HETATM    4  O1  LIG X 999      44.971 131.797  21.353  1.00  0.00    -0.257 OA
HETATM    5  C2  LIG X 999      44.412 130.605  21.288  1.00  0.00     0.177 A 
HETATM    6  N2  LIG X 999      44.383 130.160  20.014  1.00  0.00    -0.269 N 
HETATM    7  H9  LIG X 999      43.976 129.264  19.663  1.00  0.00     0.190 HD
HETATM    8  N3  LIG X 999      44.926 131.107  19.265  1.00  0.00    -0.212 N 
ENDROOT
BRANCH   5   9
HETATM    9  C3  LIG X 999      43.919 129.837  22.456  1.00  0.00     0.028 A 
HETATM   10  C4  LIG X 999      42.915 130.420  23.248  1.00  0.00     0.017 A 
HETATM   11  C5  LIG X 999      42.355 129.727  24.319  1.00  0.00     0.002 A 
HETATM   12  C6  LIG X 999      42.785 128.438  24.625  1.00  0.00     0.012 A 
HETATM   13  C7  LIG X 999      43.799 127.834  23.869  1.00  0.00    -0.025 A 
HETATM   14  C8  LIG X 999      44.240 126.543  24.199  1.00  0.00     0.012 A 
HETATM   15  C12 LIG X 999      44.390 128.535  22.780  1.00  0.00    -0.011 A 
HETATM   16  C9  LIG X 999      45.271 125.945  23.476  1.00  0.00     0.001 A 
HETATM   17  C10 LIG X 999      45.880 126.632  22.427  1.00  0.00     0.001 A 
HETATM   18  C11 LIG X 999      45.453 127.917  22.083  1.00  0.00     0.013 A 
ENDBRANCH   5   9
BRANCH   8  19
HETATM   19  C13 LIG X 999      45.075 131.049  17.835  1.00  0.00     0.105 A 
HETATM   20  C14 LIG X 999      46.229 130.492  17.261  1.00  0.00     0.054 A 
HETATM   21  C15 LIG X 999      46.361 130.458  15.871  1.00  0.00     0.122 A 
HETATM   22  N4  LIG X 999      45.377 130.960  15.080  1.00  0.00    -0.230 NA
HETATM   23  C16 LIG X 999      44.248 131.506  15.605  1.00  0.00     0.251 A 
HETATM   24  F1  LIG X 999      43.288 131.990  14.779  1.00  0.00    -0.181 F 
HETATM   25  C17 LIG X 999      44.076 131.564  16.991  1.00  0.00     0.202 A 
HETATM   26  F2  LIG X 999      42.930 132.081  17.503  1.00  0.00    -0.199 F 
ENDBRANCH   8  19
TORSDOF 2
