REMARK VINA RESULT:      -8.4      2.964      6.825
REMARK  4 active torsions:
REMARK  status: ('A' for Active; 'I' for Inactive)
REMARK    1  A    between atoms: O1_2  and  C1_3 
REMARK    2  A    between atoms: C1_3  and  N1_6 
REMARK    3  A    between atoms: N1_6  and  C4_8 
REMARK    4  A    between atoms: C4_8  and  C5_9 
ROOT
HETATM    1  C5  LIG X 999      45.443 130.929  17.541  1.00  0.00    -0.035 A 
HETATM    2  C6  LIG X 999      45.218 132.141  16.866  1.00  0.00     0.010 A 
HETATM    3  C7  LIG X 999      45.727 132.344  15.581  1.00  0.00     0.013 A 
HETATM    4  C8  LIG X 999      46.478 131.342  14.953  1.00  0.00    -0.026 A 
HETATM    5  C9  LIG X 999      46.992 131.535  13.661  1.00  0.00     0.012 A 
HETATM    6  C10 LIG X 999      47.743 130.528  13.048  1.00  0.00     0.001 A 
HETATM    7  C11 LIG X 999      47.986 129.326  13.715  1.00  0.00     0.001 A 
HETATM    8  C12 LIG X 999      47.479 129.121  15.002  1.00  0.00     0.012 A 
HETATM    9  C13 LIG X 999      46.723 130.122  15.630  1.00  0.00    -0.025 A 
HETATM   10  C14 LIG X 999      46.209 129.928  16.920  1.00  0.00     0.021 A 
ENDROOT
BRANCH   1  11
HETATM   11  C4  LIG X 999      44.911 130.716  18.944  1.00  0.00     0.113 C 
HETATM   12  C15 LIG X 999      46.073 130.444  19.905  1.00  0.00     0.037 C 
BRANCH  11  13
HETATM   13  N1  LIG X 999      44.137 131.882  19.388  1.00  0.00    -0.363 N 
HETATM   14  H6  LIG X 999      44.186 132.758  18.819  1.00  0.00     0.162 HD
BRANCH  13  15
HETATM   15  C1  LIG X 999      43.288 131.870  20.553  1.00  0.00     0.131 C 
HETATM   16  C2  LIG X 999      43.714 131.275  21.673  1.00  0.00     0.024 C 
HETATM   17  C3  LIG X 999      42.880 131.233  22.914  1.00  0.00     0.040 C 
BRANCH  15  18
HETATM   18  O1  LIG X 999      42.026 132.471  20.536  1.00  0.00    -0.347 OA
HETATM   19  H1  LIG X 999      41.457 132.532  19.703  1.00  0.00     0.219 HD
ENDBRANCH  15  18
ENDBRANCH  13  15
ENDBRANCH  11  13
ENDBRANCH   1  11
TORSDOF 4
