REMARK VINA RESULT:      -8.7      1.051      2.547
REMARK  4 active torsions:
REMARK  status: ('A' for Active; 'I' for Inactive)
REMARK    1  A    between atoms: C3_3  and  O1_4 
REMARK    2  A    between atoms: O1_4  and  C4_5 
REMARK    3  A    between atoms: C4_5  and  O2_6 
REMARK    4  A    between atoms: C5_8  and  C6_9 
ROOT
HETATM    1  C1  LIG X 999      47.055 130.980  13.349  1.00  0.00     0.014 C 
HETATM    2  C2  LIG X 999      46.024 130.977  13.972  1.00  0.00    -0.091 C 
HETATM    3  C3  LIG X 999      44.771 130.973  14.729  1.00  0.00     0.270 C 
ENDROOT
BRANCH   3   4
HETATM    4  O1  LIG X 999      44.902 130.102  15.844  1.00  0.00    -0.319 OA
BRANCH   4   5
HETATM    5  C4  LIG X 999      45.968 130.192  16.744  1.00  0.00     0.179 C 
HETATM    6  C5  LIG X 999      45.776 130.702  17.969  1.00  0.00     0.075 C 
BRANCH   5   7
HETATM    7  O2  LIG X 999      47.231 129.730  16.370  1.00  0.00    -0.341 OA
HETATM    8  H4  LIG X 999      47.367 129.129  15.565  1.00  0.00     0.220 HD
ENDBRANCH   5   7
BRANCH   6   9
HETATM    9  C6  LIG X 999      44.469 131.226  18.436  1.00  0.00    -0.021 A 
HETATM   10  C7  LIG X 999      43.537 131.685  17.488  1.00  0.00     0.012 A 
HETATM   11  C8  LIG X 999      42.316 132.227  17.890  1.00  0.00     0.002 A 
HETATM   12  C9  LIG X 999      42.007 132.335  19.244  1.00  0.00     0.012 A 
HETATM   13  C10 LIG X 999      42.918 131.898  20.214  1.00  0.00    -0.025 A 
HETATM   14  C11 LIG X 999      42.600 132.013  21.577  1.00  0.00     0.012 A 
HETATM   15  C15 LIG X 999      44.164 131.337  19.818  1.00  0.00    -0.015 A 
HETATM   16  C12 LIG X 999      43.497 131.570  22.548  1.00  0.00     0.001 A 
HETATM   17  C13 LIG X 999      44.716 131.007  22.171  1.00  0.00     0.001 A 
HETATM   18  C14 LIG X 999      45.050 130.887  20.820  1.00  0.00     0.013 A 
ENDBRANCH   6   9
ENDBRANCH   4   5
ENDBRANCH   3   4
TORSDOF 4
