REMARK VINA RESULT:      -6.2      2.466      3.883
REMARK  4 active torsions:
REMARK  status: ('A' for Active; 'I' for Inactive)
REMARK    1  A    between atoms: C3_3  and  O1_4 
REMARK    2  A    between atoms: O1_4  and  C4_5 
REMARK    3  A    between atoms: C4_5  and  O2_6 
REMARK    4  A    between atoms: C5_8  and  C6_9 
ROOT
HETATM    1  C1  LIG X 999      46.761 131.359  14.523  1.00  0.00     0.014 C 
HETATM    2  C2  LIG X 999      45.915 131.532  15.363  1.00  0.00    -0.091 C 
HETATM    3  C3  LIG X 999      44.888 131.744  16.384  1.00  0.00     0.270 C 
ENDROOT
BRANCH   3   4
HETATM    4  O1  LIG X 999      45.461 131.544  17.673  1.00  0.00    -0.319 OA
BRANCH   4   5
HETATM    5  C4  LIG X 999      44.732 131.410  18.867  1.00  0.00     0.179 C 
HETATM    6  C5  LIG X 999      45.300 130.988  20.012  1.00  0.00     0.075 C 
BRANCH   5   7
HETATM    7  O2  LIG X 999      43.383 131.751  18.850  1.00  0.00    -0.341 OA
HETATM    8  H4  LIG X 999      42.765 131.383  18.137  1.00  0.00     0.220 HD
ENDBRANCH   5   7
BRANCH   6   9
HETATM    9  C6  LIG X 999      44.544 130.828  21.278  1.00  0.00    -0.021 A 
HETATM   10  C7  LIG X 999      43.729 131.882  21.728  1.00  0.00     0.012 A 
HETATM   11  C8  LIG X 999      42.963 131.751  22.886  1.00  0.00     0.002 A 
HETATM   12  C9  LIG X 999      42.987 130.563  23.613  1.00  0.00     0.012 A 
HETATM   13  C10 LIG X 999      43.781 129.489  23.187  1.00  0.00    -0.025 A 
HETATM   14  C11 LIG X 999      43.797 128.294  23.923  1.00  0.00     0.012 A 
HETATM   15  C15 LIG X 999      44.570 129.611  22.010  1.00  0.00    -0.015 A 
HETATM   16  C12 LIG X 999      44.593 127.225  23.511  1.00  0.00     0.001 A 
HETATM   17  C13 LIG X 999      45.379 127.338  22.365  1.00  0.00     0.001 A 
HETATM   18  C14 LIG X 999      45.374 128.519  21.619  1.00  0.00     0.013 A 
ENDBRANCH   6   9
ENDBRANCH   4   5
ENDBRANCH   3   4
TORSDOF 4
