REMARK VINA RESULT:      -5.7      3.175      5.719
REMARK  1 active torsions:
REMARK  status: ('A' for Active; 'I' for Inactive)
REMARK    1  A    between atoms: C2_5  and  C3_6 
ROOT
HETATM    1  C3  LIG X 999      44.347 131.276  17.948  1.00  0.00     0.030 A 
HETATM    2  C4  LIG X 999      45.305 130.697  18.805  1.00  0.00     0.017 A 
HETATM    3  C5  LIG X 999      46.432 130.052  18.307  1.00  0.00     0.002 A 
HETATM    4  C6  LIG X 999      46.641 129.964  16.937  1.00  0.00     0.012 A 
HETATM    5  C7  LIG X 999      45.720 130.523  16.046  1.00  0.00    -0.025 A 
HETATM    6  C8  LIG X 999      45.958 130.418  14.665  1.00  0.00     0.012 A 
HETATM    7  C9  LIG X 999      45.061 130.964  13.752  1.00  0.00     0.001 A 
HETATM    8  C10 LIG X 999      43.919 131.618  14.205  1.00  0.00     0.001 A 
HETATM    9  C11 LIG X 999      43.664 131.733  15.574  1.00  0.00     0.013 A 
HETATM   10  C12 LIG X 999      44.555 131.190  16.532  1.00  0.00    -0.011 A 
ENDROOT
BRANCH   1  11
HETATM   11  C2  LIG X 999      43.178 131.941  18.604  1.00  0.00     0.203 A 
HETATM   12  O1  LIG X 999      43.044 132.180  19.892  1.00  0.00    -0.255 OA
HETATM   13  C1  LIG X 999      41.882 132.768  20.012  1.00  0.00     0.262 A 
HETATM   14  N1  LIG X 999      41.375 133.169  21.133  1.00  0.00    -0.260 NA
HETATM   15  N3  LIG X 999      41.278 132.906  18.825  1.00  0.00    -0.238 N 
HETATM   16  H1  LIG X 999      41.892 133.035  22.030  1.00  0.00     0.190 HD
HETATM   17  N2  LIG X 999      42.092 132.383  17.924  1.00  0.00    -0.145 NA
HETATM   18  H9  LIG X 999      40.349 133.336  18.623  1.00  0.00     0.193 HD
ENDBRANCH   1  11
TORSDOF 1
