REMARK VINA RESULT:      -6.5      2.625      3.795
REMARK  7 active torsions:
REMARK  status: ('A' for Active; 'I' for Inactive)
REMARK    1  A    between atoms: C6_6  and  O1_7 
REMARK    2  A    between atoms: O1_7  and  C7_8 
REMARK    3  A    between atoms: C7_8  and  O3_10 
REMARK    4  A    between atoms: O3_10  and  C8_11 
REMARK    5  A    between atoms: C8_11  and  N1_12 
REMARK       I    between atoms: N1_12  and  C9_14 
REMARK    6  A    between atoms: C9_14  and  C10_16 
REMARK    7  A    between atoms: C10_16  and  N2_17 
ROOT
HETATM    1  N2  LIG X 999      46.301 124.419  22.389  1.00  0.00    -0.261 NA
HETATM    2  C11 LIG X 999      47.147 123.586  22.850  1.00  0.00     0.158 C 
HETATM    3  S1  LIG X 999      48.218 122.535  23.436  1.00  0.00    -0.055 SA
ENDROOT
BRANCH   1   4
HETATM    4  C10 LIG X 999      45.158 124.873  23.176  1.00  0.00     0.197 C 
HETATM    5  C12 LIG X 999      43.863 124.478  22.469  1.00  0.00     0.044 C 
BRANCH   4   6
HETATM    6  C9  LIG X 999      45.215 126.368  23.367  1.00  0.00     0.243 C 
HETATM    7  N1  LIG X 999      44.185 127.205  22.825  1.00  0.00    -0.338 N 
HETATM    8  H7  LIG X 999      43.462 126.788  22.196  1.00  0.00     0.164 HD
HETATM    9  O4  LIG X 999      46.160 126.876  24.030  1.00  0.00    -0.271 OA
BRANCH   7  10
HETATM   10  C8  LIG X 999      44.055 128.610  23.199  1.00  0.00     0.306 C 
BRANCH  10  11
HETATM   11  O3  LIG X 999      44.944 129.410  22.422  1.00  0.00    -0.278 OA
BRANCH  11  12
HETATM   12  C7  LIG X 999      44.529 130.536  21.708  1.00  0.00     0.413 C 
HETATM   13  O2  LIG X 999      43.468 131.140  22.030  1.00  0.00    -0.229 OA
BRANCH  12  14
HETATM   14  O1  LIG X 999      45.345 131.019  20.678  1.00  0.00    -0.256 OA
BRANCH  14  15
HETATM   15  C6  LIG X 999      44.958 131.165  19.338  1.00  0.00     0.082 A 
HETATM   16  C5  LIG X 999      45.829 130.708  18.341  1.00  0.00     0.049 A 
HETATM   17  C4  LIG X 999      45.490 130.833  16.986  1.00  0.00    -0.023 A 
HETATM   18  C3  LIG X 999      46.370 130.391  15.985  1.00  0.00     0.012 A 
HETATM   19  C15 LIG X 999      44.249 131.411  16.624  1.00  0.00    -0.026 A 
HETATM   20  C2  LIG X 999      46.021 130.522  14.637  1.00  0.00     0.001 A 
HETATM   21  C1  LIG X 999      44.796 131.093  14.280  1.00  0.00     0.001 A 
HETATM   22  C16 LIG X 999      43.911 131.535  15.268  1.00  0.00     0.012 A 
HETATM   23  C14 LIG X 999      43.370 131.846  17.624  1.00  0.00     0.015 A 
HETATM   24  C13 LIG X 999      43.719 131.719  18.971  1.00  0.00     0.038 A 
ENDBRANCH  14  15
ENDBRANCH  12  14
ENDBRANCH  11  12
ENDBRANCH  10  11
ENDBRANCH   7  10
ENDBRANCH   4   6
ENDBRANCH   1   4
TORSDOF 7
