REMARK VINA RESULT:      -8.3      4.643      6.645
REMARK  2 active torsions:
REMARK  status: ('A' for Active; 'I' for Inactive)
REMARK    1  A    between atoms: C1_1  and  N1_2 
REMARK    2  A    between atoms: C2_5  and  C3_7 
ROOT
HETATM    1  N1  LIG X 999      42.438 132.231  21.707  1.00  0.00    -0.082 NA
HETATM    2  N2  LIG X 999      42.575 131.962  22.901  1.00  0.00    -0.163 NA
HETATM    3  N3  LIG X 999      42.712 131.694  24.093  1.00  0.00     0.068 N 
ENDROOT
BRANCH   1   4
HETATM    4  C1  LIG X 999      43.381 131.763  20.744  1.00  0.00     0.196 C 
HETATM    5  C2  LIG X 999      43.152 131.935  19.436  1.00  0.00     0.137 C 
HETATM    6  O1  LIG X 999      41.969 132.550  19.035  1.00  0.00    -0.190 OA
BRANCH   5   7
HETATM    7  C3  LIG X 999      44.106 131.469  18.396  1.00  0.00     0.003 A 
HETATM    8  C4  LIG X 999      45.250 130.752  18.785  1.00  0.00     0.015 A 
HETATM    9  C5  LIG X 999      46.163 130.292  17.835  1.00  0.00     0.013 A 
HETATM   10  C6  LIG X 999      45.945 130.530  16.472  1.00  0.00    -0.026 A 
HETATM   11  C7  LIG X 999      46.857 130.070  15.509  1.00  0.00     0.012 A 
HETATM   12  C11 LIG X 999      44.791 131.238  16.062  1.00  0.00    -0.025 A 
HETATM   13  C8  LIG X 999      46.625 130.309  14.152  1.00  0.00     0.001 A 
HETATM   14  C9  LIG X 999      45.484 131.005  13.746  1.00  0.00     0.001 A 
HETATM   15  C10 LIG X 999      44.567 131.468  14.695  1.00  0.00     0.012 A 
HETATM   16  C12 LIG X 999      43.878 131.699  17.024  1.00  0.00     0.026 A 
ENDBRANCH   5   7
ENDBRANCH   1   4
TORSDOF 2
