MODEL 1
REMARK VINA RESULT:      -8.5      0.000      0.000
REMARK  2 active torsions:
REMARK  status: ('A' for Active; 'I' for Inactive)
REMARK    1  A    between atoms: C6_6  and  C7_7 
REMARK    2  A    between atoms: C7_7  and  N1_8 
ROOT
HETATM    1  N1  LIG X 999      43.106 131.780  18.126  1.00  0.00    -0.106 NA
HETATM    2  N2  LIG X 999      42.283 132.233  18.923  1.00  0.00    -0.167 NA
HETATM    3  N3  LIG X 999      41.461 132.686  19.719  1.00  0.00     0.068 N 
ENDROOT
BRANCH   1   4
HETATM    4  C7  LIG X 999      44.526 132.096  18.252  1.00  0.00     0.174 C 
HETATM    5  C8  LIG X 999      45.000 131.754  19.664  1.00  0.00     0.042 C 
BRANCH   4   6
HETATM    6  C6  LIG X 999      45.339 131.337  17.224  1.00  0.00    -0.030 A 
HETATM    7  C5  LIG X 999      45.780 131.970  16.048  1.00  0.00     0.021 A 
HETATM    8  C4  LIG X 999      46.517 131.258  15.090  1.00  0.00    -0.025 A 
HETATM    9  C3  LIG X 999      46.963 131.888  13.917  1.00  0.00     0.012 A 
HETATM   10  C11 LIG X 999      46.814 129.890  15.306  1.00  0.00    -0.026 A 
HETATM   11  C2  LIG X 999      47.698 131.169  12.970  1.00  0.00     0.001 A 
HETATM   12  C1  LIG X 999      47.991 129.819  13.184  1.00  0.00     0.001 A 
HETATM   13  C12 LIG X 999      47.550 129.180  14.346  1.00  0.00     0.012 A 
HETATM   14  C10 LIG X 999      46.364 129.261  16.474  1.00  0.00     0.013 A 
HETATM   15  C9  LIG X 999      45.630 129.977  17.423  1.00  0.00     0.010 A 
ENDBRANCH   4   6
ENDBRANCH   1   4
TORSDOF 2
ENDMDL
MODEL 2
REMARK VINA RESULT:      -8.4      3.234      6.220
REMARK  2 active torsions:
REMARK  status: ('A' for Active; 'I' for Inactive)
REMARK    1  A    between atoms: C6_6  and  C7_7 
REMARK    2  A    between atoms: C7_7  and  N1_8 
ROOT
HETATM    1  N1  LIG X 999      46.513 130.053  15.660  1.00  0.00    -0.106 NA
HETATM    2  N2  LIG X 999      47.253 129.788  14.712  1.00  0.00    -0.167 NA
HETATM    3  N3  LIG X 999      47.993 129.523  13.765  1.00  0.00     0.068 N 
ENDROOT
BRANCH   1   4
HETATM    4  C7  LIG X 999      45.650 131.231  15.633  1.00  0.00     0.174 C 
HETATM    5  C8  LIG X 999      44.665 131.113  14.470  1.00  0.00     0.042 C 
BRANCH   4   6
HETATM    6  C6  LIG X 999      44.905 131.382  16.943  1.00  0.00    -0.030 A 
HETATM    7  C5  LIG X 999      45.551 131.137  18.168  1.00  0.00     0.021 A 
HETATM    8  C4  LIG X 999      44.852 131.261  19.378  1.00  0.00    -0.025 A 
HETATM    9  C3  LIG X 999      45.495 131.022  20.603  1.00  0.00     0.012 A 
HETATM   10  C11 LIG X 999      43.485 131.630  19.365  1.00  0.00    -0.026 A 
HETATM   11  C2  LIG X 999      44.789 131.150  21.803  1.00  0.00     0.001 A 
HETATM   12  C1  LIG X 999      43.439 131.514  21.790  1.00  0.00     0.001 A 
HETATM   13  C12 LIG X 999      42.787 131.753  20.576  1.00  0.00     0.012 A 
HETATM   14  C10 LIG X 999      42.843 131.863  18.142  1.00  0.00     0.013 A 
HETATM   15  C9  LIG X 999      43.546 131.737  16.941  1.00  0.00     0.010 A 
ENDBRANCH   4   6
ENDBRANCH   1   4
TORSDOF 2
ENDMDL
MODEL 3
REMARK VINA RESULT:      -8.3      3.123      6.129
REMARK  2 active torsions:
REMARK  status: ('A' for Active; 'I' for Inactive)
REMARK    1  A    between atoms: C6_6  and  C7_7 
REMARK    2  A    between atoms: C7_7  and  N1_8 
ROOT
HETATM    1  N1  LIG X 999      46.445 131.585  15.174  1.00  0.00    -0.106 NA
HETATM    2  N2  LIG X 999      47.029 131.374  14.110  1.00  0.00    -0.167 NA
HETATM    3  N3  LIG X 999      47.611 131.165  13.048  1.00  0.00     0.068 N 
ENDROOT
BRANCH   1   4
HETATM    4  C7  LIG X 999      45.216 130.871  15.511  1.00  0.00     0.174 C 
HETATM    5  C8  LIG X 999      45.376 129.391  15.165  1.00  0.00     0.042 C 
BRANCH   4   6
HETATM    6  C6  LIG X 999      44.882 131.038  16.979  1.00  0.00    -0.030 A 
HETATM    7  C5  LIG X 999      43.678 131.647  17.376  1.00  0.00     0.021 A 
HETATM    8  C4  LIG X 999      43.381 131.816  18.737  1.00  0.00    -0.025 A 
HETATM    9  C3  LIG X 999      42.178 132.418  19.137  1.00  0.00     0.012 A 
HETATM   10  C11 LIG X 999      44.303 131.375  19.717  1.00  0.00    -0.026 A 
HETATM   11  C2  LIG X 999      41.893 132.580  20.496  1.00  0.00     0.001 A 
HETATM   12  C1  LIG X 999      42.803 132.144  21.463  1.00  0.00     0.001 A 
HETATM   13  C12 LIG X 999      44.005 131.545  21.077  1.00  0.00     0.012 A 
HETATM   14  C10 LIG X 999      45.506 130.777  19.316  1.00  0.00     0.013 A 
HETATM   15  C9  LIG X 999      45.794 130.613  17.959  1.00  0.00     0.010 A 
ENDBRANCH   4   6
ENDBRANCH   1   4
TORSDOF 2
ENDMDL
MODEL 4
REMARK VINA RESULT:      -8.1      1.704      2.443
REMARK  2 active torsions:
REMARK  status: ('A' for Active; 'I' for Inactive)
REMARK    1  A    between atoms: C6_6  and  C7_7 
REMARK    2  A    between atoms: C7_7  and  N1_8 
ROOT
HETATM    1  N1  LIG X 999      45.475 131.293  19.631  1.00  0.00    -0.106 NA
HETATM    2  N2  LIG X 999      45.068 131.287  20.793  1.00  0.00    -0.167 NA
HETATM    3  N3  LIG X 999      44.662 131.280  21.954  1.00  0.00     0.068 N 
ENDROOT
BRANCH   1   4
HETATM    4  C7  LIG X 999      44.609 130.883  18.529  1.00  0.00     0.174 C 
HETATM    5  C8  LIG X 999      43.331 131.721  18.548  1.00  0.00     0.042 C 
BRANCH   4   6
HETATM    6  C6  LIG X 999      45.320 131.035  17.200  1.00  0.00    -0.030 A 
HETATM    7  C5  LIG X 999      46.047 129.965  16.649  1.00  0.00     0.021 A 
HETATM    8  C4  LIG X 999      46.719 130.115  15.427  1.00  0.00    -0.025 A 
HETATM    9  C3  LIG X 999      47.441 129.047  14.871  1.00  0.00     0.012 A 
HETATM   10  C11 LIG X 999      46.671 131.356  14.747  1.00  0.00    -0.026 A 
HETATM   11  C2  LIG X 999      48.106 129.209  13.652  1.00  0.00     0.001 A 
HETATM   12  C1  LIG X 999      48.058 130.434  12.981  1.00  0.00     0.001 A 
HETATM   13  C12 LIG X 999      47.344 131.506  13.525  1.00  0.00     0.012 A 
HETATM   14  C10 LIG X 999      45.954 132.424  15.305  1.00  0.00     0.013 A 
HETATM   15  C9  LIG X 999      45.287 132.265  16.522  1.00  0.00     0.010 A 
ENDBRANCH   4   6
ENDBRANCH   1   4
TORSDOF 2
ENDMDL
MODEL 5
REMARK VINA RESULT:      -8.0      1.789      2.695
REMARK  2 active torsions:
REMARK  status: ('A' for Active; 'I' for Inactive)
REMARK    1  A    between atoms: C6_6  and  C7_7 
REMARK    2  A    between atoms: C7_7  and  N1_8 
ROOT
HETATM    1  N1  LIG X 999      43.224 131.469  20.740  1.00  0.00    -0.106 NA
HETATM    2  N2  LIG X 999      42.979 131.635  21.935  1.00  0.00    -0.167 NA
HETATM    3  N3  LIG X 999      42.734 131.801  23.129  1.00  0.00     0.068 N 
ENDROOT
BRANCH   1   4
HETATM    4  C7  LIG X 999      44.598 131.475  20.246  1.00  0.00     0.174 C 
HETATM    5  C8  LIG X 999      45.375 130.328  20.890  1.00  0.00     0.042 C 
BRANCH   4   6
HETATM    6  C6  LIG X 999      44.629 131.352  18.737  1.00  0.00    -0.030 A 
HETATM    7  C5  LIG X 999      45.740 130.789  18.085  1.00  0.00     0.021 A 
HETATM    8  C4  LIG X 999      45.772 130.693  16.686  1.00  0.00    -0.025 A 
HETATM    9  C3  LIG X 999      46.878 130.127  16.032  1.00  0.00     0.012 A 
HETATM   10  C11 LIG X 999      44.679 131.173  15.924  1.00  0.00    -0.026 A 
HETATM   11  C2  LIG X 999      46.897 130.036  14.637  1.00  0.00     0.001 A 
HETATM   12  C1  LIG X 999      45.818 130.510  13.886  1.00  0.00     0.001 A 
HETATM   13  C12 LIG X 999      44.713 131.078  14.525  1.00  0.00     0.012 A 
HETATM   14  C10 LIG X 999      43.578 131.744  16.577  1.00  0.00     0.013 A 
HETATM   15  C9  LIG X 999      43.554 131.835  17.971  1.00  0.00     0.010 A 
ENDBRANCH   4   6
ENDBRANCH   1   4
TORSDOF 2
ENDMDL
MODEL 6
REMARK VINA RESULT:      -7.7      2.100      2.869
REMARK  2 active torsions:
REMARK  status: ('A' for Active; 'I' for Inactive)
REMARK    1  A    between atoms: C6_6  and  C7_7 
REMARK    2  A    between atoms: C7_7  and  N1_8 
ROOT
HETATM    1  N1  LIG X 999      43.603 131.859  21.321  1.00  0.00    -0.106 NA
HETATM    2  N2  LIG X 999      43.029 131.790  22.409  1.00  0.00    -0.167 NA
HETATM    3  N3  LIG X 999      42.456 131.721  23.496  1.00  0.00     0.068 N 
ENDROOT
BRANCH   1   4
HETATM    4  C7  LIG X 999      42.863 131.708  20.071  1.00  0.00     0.174 C 
HETATM    5  C8  LIG X 999      42.048 132.973  19.806  1.00  0.00     0.042 C 
BRANCH   4   6
HETATM    6  C6  LIG X 999      43.807 131.436  18.918  1.00  0.00    -0.030 A 
HETATM    7  C5  LIG X 999      43.393 131.641  17.589  1.00  0.00     0.021 A 
HETATM    8  C4  LIG X 999      44.264 131.370  16.523  1.00  0.00    -0.025 A 
HETATM    9  C3  LIG X 999      43.857 131.579  15.196  1.00  0.00     0.012 A 
HETATM   10  C11 LIG X 999      45.567 130.881  16.787  1.00  0.00    -0.026 A 
HETATM   11  C2  LIG X 999      44.734 131.307  14.142  1.00  0.00     0.001 A 
HETATM   12  C1  LIG X 999      46.020 130.824  14.402  1.00  0.00     0.001 A 
HETATM   13  C12 LIG X 999      46.436 130.610  15.719  1.00  0.00     0.012 A 
HETATM   14  C10 LIG X 999      45.971 130.668  18.112  1.00  0.00     0.013 A 
HETATM   15  C9  LIG X 999      45.097 130.940  19.168  1.00  0.00     0.010 A 
ENDBRANCH   4   6
ENDBRANCH   1   4
TORSDOF 2
ENDMDL
MODEL 7
REMARK VINA RESULT:      -7.4      3.464      6.367
REMARK  2 active torsions:
REMARK  status: ('A' for Active; 'I' for Inactive)
REMARK    1  A    between atoms: C6_6  and  C7_7 
REMARK    2  A    between atoms: C7_7  and  N1_8 
ROOT
HETATM    1  N1  LIG X 999      46.250 131.164  16.091  1.00  0.00    -0.106 NA
HETATM    2  N2  LIG X 999      46.387 131.062  14.871  1.00  0.00    -0.167 NA
HETATM    3  N3  LIG X 999      46.525 130.960  13.653  1.00  0.00     0.068 N 
ENDROOT
BRANCH   1   4
HETATM    4  C7  LIG X 999      45.068 131.804  16.663  1.00  0.00     0.174 C 
HETATM    5  C8  LIG X 999      43.826 131.360  15.891  1.00  0.00     0.042 C 
BRANCH   4   6
HETATM    6  C6  LIG X 999      44.928 131.460  18.132  1.00  0.00    -0.030 A 
HETATM    7  C5  LIG X 999      43.852 131.959  18.886  1.00  0.00     0.021 A 
HETATM    8  C4  LIG X 999      43.736 131.654  20.250  1.00  0.00    -0.025 A 
HETATM    9  C3  LIG X 999      42.659 132.145  21.005  1.00  0.00     0.012 A 
HETATM   10  C11 LIG X 999      44.715 130.842  20.874  1.00  0.00    -0.026 A 
HETATM   11  C2  LIG X 999      42.554 131.833  22.363  1.00  0.00     0.001 A 
HETATM   12  C1  LIG X 999      43.520 131.032  22.978  1.00  0.00     0.001 A 
HETATM   13  C12 LIG X 999      44.598 130.538  22.238  1.00  0.00     0.012 A 
HETATM   14  C10 LIG X 999      45.792 130.356  20.121  1.00  0.00     0.013 A 
HETATM   15  C9  LIG X 999      45.899 130.665  18.762  1.00  0.00     0.010 A 
ENDBRANCH   4   6
ENDBRANCH   1   4
TORSDOF 2
ENDMDL
MODEL 8
REMARK VINA RESULT:      -6.4      2.912      4.499
REMARK  2 active torsions:
REMARK  status: ('A' for Active; 'I' for Inactive)
REMARK    1  A    between atoms: C6_6  and  C7_7 
REMARK    2  A    between atoms: C7_7  and  N1_8 
ROOT
HETATM    1  N1  LIG X 999      42.367 130.468  22.737  1.00  0.00    -0.106 NA
HETATM    2  N2  LIG X 999      42.812 129.372  23.080  1.00  0.00    -0.167 NA
HETATM    3  N3  LIG X 999      43.257 128.277  23.424  1.00  0.00     0.068 N 
ENDROOT
BRANCH   1   4
HETATM    4  C7  LIG X 999      43.262 131.583  22.440  1.00  0.00     0.174 C 
HETATM    5  C8  LIG X 999      44.278 131.735  23.571  1.00  0.00     0.042 C 
BRANCH   4   6
HETATM    6  C6  LIG X 999      43.971 131.366  21.119  1.00  0.00    -0.030 A 
HETATM    7  C5  LIG X 999      43.329 131.663  19.903  1.00  0.00     0.021 A 
HETATM    8  C4  LIG X 999      43.983 131.444  18.681  1.00  0.00    -0.025 A 
HETATM    9  C3  LIG X 999      43.348 131.744  17.466  1.00  0.00     0.012 A 
HETATM   10  C11 LIG X 999      45.296 130.914  18.672  1.00  0.00    -0.026 A 
HETATM   11  C2  LIG X 999      44.009 131.522  16.255  1.00  0.00     0.001 A 
HETATM   12  C1  LIG X 999      45.306 130.999  16.246  1.00  0.00     0.001 A 
HETATM   13  C12 LIG X 999      45.948 130.694  17.450  1.00  0.00     0.012 A 
HETATM   14  C10 LIG X 999      45.928 130.610  19.886  1.00  0.00     0.013 A 
HETATM   15  C9  LIG X 999      45.269 130.831  21.098  1.00  0.00     0.010 A 
ENDBRANCH   4   6
ENDBRANCH   1   4
TORSDOF 2
ENDMDL
MODEL 9
REMARK VINA RESULT:      -6.3      2.910      4.635
REMARK  2 active torsions:
REMARK  status: ('A' for Active; 'I' for Inactive)
REMARK    1  A    between atoms: C6_6  and  C7_7 
REMARK    2  A    between atoms: C7_7  and  N1_8 
ROOT
HETATM    1  N1  LIG X 999      42.746 130.285  22.757  1.00  0.00    -0.106 NA
HETATM    2  N2  LIG X 999      43.514 129.361  23.032  1.00  0.00    -0.167 NA
HETATM    3  N3  LIG X 999      44.280 128.439  23.307  1.00  0.00     0.068 N 
ENDROOT
BRANCH   1   4
HETATM    4  C7  LIG X 999      43.255 131.567  22.279  1.00  0.00     0.174 C 
HETATM    5  C8  LIG X 999      44.607 131.854  22.933  1.00  0.00     0.042 C 
BRANCH   4   6
HETATM    6  C6  LIG X 999      43.388 131.565  20.771  1.00  0.00    -0.030 A 
HETATM    7  C5  LIG X 999      44.565 131.103  20.154  1.00  0.00     0.021 A 
HETATM    8  C4  LIG X 999      44.691 131.120  18.757  1.00  0.00    -0.025 A 
HETATM    9  C3  LIG X 999      45.862 130.654  18.138  1.00  0.00     0.012 A 
HETATM   10  C11 LIG X 999      43.627 131.611  17.962  1.00  0.00    -0.026 A 
HETATM   11  C2  LIG X 999      45.975 130.675  16.746  1.00  0.00     0.001 A 
HETATM   12  C1  LIG X 999      44.925 131.160  15.961  1.00  0.00     0.001 A 
HETATM   13  C12 LIG X 999      43.754 131.628  16.565  1.00  0.00     0.012 A 
HETATM   14  C10 LIG X 999      42.460 132.080  18.581  1.00  0.00     0.013 A 
HETATM   15  C9  LIG X 999      42.343 132.060  19.973  1.00  0.00     0.010 A 
ENDBRANCH   4   6
ENDBRANCH   1   4
TORSDOF 2
ENDMDL
