REMARK VINA RESULT:      -7.7      1.226      1.421
REMARK  2 active torsions:
REMARK  status: ('A' for Active; 'I' for Inactive)
REMARK    1  A    between atoms: C6_6  and  C7_7 
REMARK    2  A    between atoms: C8_11  and  N3_12 
ROOT
HETATM    1  N3  LIG X 999      46.660 131.699  14.194  1.00  0.00    -0.025 NA
HETATM    2  N4  LIG X 999      47.316 131.152  13.308  1.00  0.00    -0.158 NA
HETATM    3  N5  LIG X 999      47.971 130.606  12.422  1.00  0.00     0.068 N 
ENDROOT
BRANCH   1   4
HETATM    4  C8  LIG X 999      46.452 131.067  15.459  1.00  0.00     0.302 A 
HETATM    5  N2  LIG X 999      46.882 129.835  15.783  1.00  0.00    -0.236 N 
HETATM    6  N1  LIG X 999      46.500 129.608  17.028  1.00  0.00    -0.145 NA
HETATM    7  H5  LIG X 999      47.418 129.166  15.189  1.00  0.00     0.193 HD
HETATM    8  C7  LIG X 999      45.842 130.722  17.419  1.00  0.00     0.202 A 
HETATM    9  O1  LIG X 999      45.811 131.622  16.457  1.00  0.00    -0.253 OA
BRANCH   8  10
HETATM   10  C6  LIG X 999      45.237 130.909  18.752  1.00  0.00     0.020 A 
HETATM   11  C5  LIG X 999      44.051 131.648  18.900  1.00  0.00     0.028 A 
HETATM   12  C4  LIG X 999      43.478 131.823  20.170  1.00  0.00    -0.025 A 
HETATM   13  C3  LIG X 999      42.293 132.560  20.324  1.00  0.00     0.012 A 
HETATM   14  C11 LIG X 999      44.099 131.252  21.306  1.00  0.00    -0.026 A 
HETATM   15  C2  LIG X 999      41.731 132.728  21.594  1.00  0.00     0.001 A 
HETATM   16  C1  LIG X 999      42.345 132.164  22.715  1.00  0.00     0.001 A 
HETATM   17  C12 LIG X 999      43.524 131.428  22.575  1.00  0.00     0.012 A 
HETATM   18  C10 LIG X 999      45.282 130.516  21.153  1.00  0.00     0.013 A 
HETATM   19  C9  LIG X 999      45.845 130.346  19.885  1.00  0.00     0.017 A 
ENDBRANCH   8  10
ENDBRANCH   1   4
TORSDOF 2
