REMARK VINA RESULT:      -5.7      3.101      4.716
REMARK  1 active torsions:
REMARK  status: ('A' for Active; 'I' for Inactive)
REMARK    1  A    between atoms: C2_5  and  C3_6 
ROOT
HETATM    1  C3  LIG X 999      43.584 131.057  21.841  1.00  0.00     0.030 A 
HETATM    2  C4  LIG X 999      42.879 131.990  22.628  1.00  0.00     0.017 A 
HETATM    3  C5  LIG X 999      42.709 131.807  23.996  1.00  0.00     0.002 A 
HETATM    4  C6  LIG X 999      43.237 130.687  24.625  1.00  0.00     0.012 A 
HETATM    5  C7  LIG X 999      43.945 129.733  23.887  1.00  0.00    -0.025 A 
HETATM    6  C8  LIG X 999      44.467 128.610  24.550  1.00  0.00     0.012 A 
HETATM    7  C9  LIG X 999      45.177 127.642  23.845  1.00  0.00     0.001 A 
HETATM    8  C10 LIG X 999      45.371 127.783  22.474  1.00  0.00     0.001 A 
HETATM    9  C11 LIG X 999      44.859 128.893  21.796  1.00  0.00     0.013 A 
HETATM   10  C12 LIG X 999      44.133 129.897  22.481  1.00  0.00    -0.011 A 
ENDROOT
BRANCH   1  11
HETATM   11  C2  LIG X 999      43.699 131.365  20.381  1.00  0.00     0.203 A 
HETATM   12  O1  LIG X 999      44.799 131.309  19.660  1.00  0.00    -0.255 OA
HETATM   13  C1  LIG X 999      44.436 131.656  18.452  1.00  0.00     0.262 A 
HETATM   14  N1  LIG X 999      45.235 131.727  17.438  1.00  0.00    -0.260 NA
HETATM   15  N3  LIG X 999      43.127 131.931  18.396  1.00  0.00    -0.238 N 
HETATM   16  H1  LIG X 999      46.249 131.500  17.542  1.00  0.00     0.190 HD
HETATM   17  N2  LIG X 999      42.648 131.750  19.615  1.00  0.00    -0.145 NA
HETATM   18  H9  LIG X 999      42.568 132.231  17.566  1.00  0.00     0.193 HD
ENDBRANCH   1  11
TORSDOF 1
