REMARK VINA RESULT:      -7.7      4.609      7.187
REMARK  5 active torsions:
REMARK  status: ('A' for Active; 'I' for Inactive)
REMARK    1  A    between atoms: C1_1  and  N1_2 
REMARK    2  A    between atoms: C2_5  and  O1_6 
REMARK    3  A    between atoms: C2_5  and  C5_12 
REMARK    4  A    between atoms: O1_6  and  C3_7 
REMARK    5  A    between atoms: C3_7  and  C4_9 
ROOT
HETATM    1  N1  LIG X 999      44.412 131.932  14.821  1.00  0.00    -0.082 NA
HETATM    2  N2  LIG X 999      43.494 131.671  14.045  1.00  0.00    -0.163 NA
HETATM    3  N3  LIG X 999      42.576 131.409  13.269  1.00  0.00     0.068 N 
ENDROOT
BRANCH   1   4
HETATM    4  C1  LIG X 999      44.229 131.804  16.231  1.00  0.00     0.193 C 
HETATM    5  C2  LIG X 999      45.176 131.237  16.987  1.00  0.00     0.101 C 
BRANCH   5   6
HETATM    6  O1  LIG X 999      46.366 130.809  16.379  1.00  0.00    -0.324 OA
BRANCH   6   7
HETATM    7  C3  LIG X 999      46.529 129.577  15.664  1.00  0.00     0.273 C 
HETATM    8 CL1  LIG X 999      45.023 128.616  15.579  1.00  0.00    -0.090 Cl
BRANCH   7   9
HETATM    9  C4  LIG X 999      47.146 129.789  14.273  1.00  0.00     0.309 C 
HETATM   10  F1  LIG X 999      48.379 129.168  14.208  1.00  0.00    -0.229 F 
HETATM   11 CL2  LIG X 999      47.337 131.514  13.850  1.00  0.00    -0.086 Cl
ENDBRANCH   7   9
ENDBRANCH   6   7
ENDBRANCH   5   6
BRANCH   5  12
HETATM   12  C5  LIG X 999      44.998 131.130  18.453  1.00  0.00    -0.000 A 
HETATM   13  C6  LIG X 999      45.960 130.454  19.220  1.00  0.00     0.015 A 
HETATM   14  C7  LIG X 999      45.813 130.340  20.604  1.00  0.00     0.013 A 
HETATM   15  C8  LIG X 999      44.700 130.903  21.245  1.00  0.00    -0.026 A 
HETATM   16  C9  LIG X 999      44.541 130.791  22.635  1.00  0.00     0.012 A 
HETATM   17  C13 LIG X 999      43.727 131.591  20.481  1.00  0.00    -0.025 A 
HETATM   18  C10 LIG X 999      43.427 131.356  23.261  1.00  0.00     0.001 A 
HETATM   19  C11 LIG X 999      42.466 132.035  22.507  1.00  0.00     0.001 A 
HETATM   20  C12 LIG X 999      42.612 132.154  21.122  1.00  0.00     0.012 A 
HETATM   21  C14 LIG X 999      43.884 131.702  19.091  1.00  0.00     0.026 A 
ENDBRANCH   5  12
ENDBRANCH   1   4
TORSDOF 5
