REMARK VINA RESULT:      -7.3      2.149      3.102
REMARK  2 active torsions:
REMARK  status: ('A' for Active; 'I' for Inactive)
REMARK    1  A    between atoms: C2_5  and  C3_6 
REMARK    2  A    between atoms: N3_18  and  C13_19 
ROOT
HETATM    1  H1  LIG X 999      42.329 132.131  14.226  1.00  0.00     0.190 HD
HETATM    2  N1  LIG X 999      43.266 131.733  14.463  1.00  0.00    -0.260 NA
HETATM    3  C1  LIG X 999      43.632 131.589  15.695  1.00  0.00     0.268 A 
HETATM    4  O1  LIG X 999      42.892 131.928  16.726  1.00  0.00    -0.257 OA
HETATM    5  C2  LIG X 999      43.626 131.641  17.783  1.00  0.00     0.177 A 
HETATM    6  N2  LIG X 999      44.821 131.134  17.410  1.00  0.00    -0.269 N 
HETATM    7  H9  LIG X 999      45.588 130.795  18.033  1.00  0.00     0.190 HD
HETATM    8  N3  LIG X 999      44.824 131.095  16.088  1.00  0.00    -0.212 N 
ENDROOT
BRANCH   5   9
HETATM    9  C3  LIG X 999      43.216 131.876  19.188  1.00  0.00     0.028 A 
HETATM   10  C4  LIG X 999      42.169 132.786  19.422  1.00  0.00     0.017 A 
HETATM   11  C5  LIG X 999      41.684 133.003  20.710  1.00  0.00     0.002 A 
HETATM   12  C6  LIG X 999      42.234 132.319  21.793  1.00  0.00     0.012 A 
HETATM   13  C7  LIG X 999      43.292 131.422  21.598  1.00  0.00    -0.025 A 
HETATM   14  C8  LIG X 999      43.852 130.754  22.699  1.00  0.00     0.012 A 
HETATM   15  C12 LIG X 999      43.806 131.199  20.290  1.00  0.00    -0.011 A 
HETATM   16  C9  LIG X 999      44.927 129.884  22.522  1.00  0.00     0.001 A 
HETATM   17  C10 LIG X 999      45.460 129.681  21.251  1.00  0.00     0.001 A 
HETATM   18  C11 LIG X 999      44.915 130.335  20.143  1.00  0.00     0.013 A 
ENDBRANCH   5   9
BRANCH   8  19
HETATM   19  C13 LIG X 999      45.905 130.600  15.276  1.00  0.00     0.105 A 
HETATM   20  C14 LIG X 999      46.211 129.230  15.255  1.00  0.00     0.054 A 
HETATM   21  C15 LIG X 999      47.273 128.772  14.473  1.00  0.00     0.122 A 
HETATM   22  N4  LIG X 999      48.004 129.648  13.734  1.00  0.00    -0.230 NA
HETATM   23  C16 LIG X 999      47.733 130.980  13.734  1.00  0.00     0.251 A 
HETATM   24  F1  LIG X 999      48.484 131.818  12.978  1.00  0.00    -0.181 F 
HETATM   25  C17 LIG X 999      46.681 131.483  14.505  1.00  0.00     0.202 A 
HETATM   26  F2  LIG X 999      46.400 132.810  14.471  1.00  0.00    -0.199 F 
ENDBRANCH   8  19
TORSDOF 2
