REMARK VINA RESULT:      -4.5      3.023      5.004
REMARK  5 active torsions:
REMARK  status: ('A' for Active; 'I' for Inactive)
REMARK    1  A    between atoms: C3_3  and  O1_4 
REMARK    2  A    between atoms: O1_4  and  C4_5 
REMARK    3  A    between atoms: C5_6  and  C6_7 
REMARK    4  A    between atoms: C12_14  and  N1_15 
REMARK    5  A    between atoms: C15_21  and  N3_22 
ROOT
HETATM    1  C1  LIG X 999      37.522 126.509  24.141  1.00  0.00     0.014 C 
HETATM    2  C2  LIG X 999      38.361 125.669  23.936  1.00  0.00    -0.091 C 
HETATM    3  C3  LIG X 999      39.379 124.648  23.687  1.00  0.00     0.268 C 
ENDROOT
BRANCH   3   4
HETATM    4  O1  LIG X 999      40.520 124.920  24.494  1.00  0.00    -0.339 OA
BRANCH   4   5
HETATM    5  C4  LIG X 999      41.785 125.285  24.004  1.00  0.00     0.085 A 
HETATM    6  C5  LIG X 999      42.130 126.674  23.943  1.00  0.00     0.050 A 
HETATM    7  C7  LIG X 999      43.404 126.998  23.446  1.00  0.00     0.044 A 
HETATM    8  C8  LIG X 999      44.255 126.023  23.049  1.00  0.00     0.021 A 
HETATM    9  C15 LIG X 999      44.169 128.241  23.206  1.00  0.00     0.198 A 
HETATM   10  C9  LIG X 999      45.413 126.573  22.613  1.00  0.00     0.071 A 
HETATM   11  C13 LIG X 999      43.989 124.668  23.081  1.00  0.00     0.006 A 
HETATM   12  C10 LIG X 999      46.448 125.765  22.150  1.00  0.00     0.035 A 
HETATM   13  N2  LIG X 999      45.356 127.994  22.714  1.00  0.00    -0.225 NA
HETATM   14  C11 LIG X 999      46.243 124.367  22.155  1.00  0.00     0.032 A 
HETATM   15  C12 LIG X 999      45.019 123.800  22.617  1.00  0.00     0.037 A 
HETATM   16  C14 LIG X 999      42.720 124.292  23.572  1.00  0.00     0.052 A 
BRANCH   6  17
HETATM   17  C6  LIG X 999      41.199 127.740  24.378  1.00  0.00     0.273 C 
HETATM   18  O2  LIG X 999      40.478 128.363  23.554  1.00  0.00    -0.301 OA
ENDBRANCH   6  17
BRANCH  15  19
HETATM   19  N1  LIG X 999      44.865 122.375  22.600  1.00  0.00    -0.398 N 
HETATM   20  H7  LIG X 999      43.939 121.944  22.814  1.00  0.00     0.156 HD
HETATM   21  H8  LIG X 999      45.650 121.727  22.379  1.00  0.00     0.156 HD
ENDBRANCH  15  19
BRANCH   9  22
HETATM   22  N3  LIG X 999      43.697 129.563  23.471  1.00  0.00    -0.051 NA
HETATM   23  N4  LIG X 999      43.591 130.395  22.570  1.00  0.00    -0.160 NA
HETATM   24  N5  LIG X 999      43.486 131.228  21.670  1.00  0.00     0.068 N 
ENDBRANCH   9  22
ENDBRANCH   4   5
ENDBRANCH   3   4
TORSDOF 5
