REMARK VINA RESULT:      -7.3      1.734      6.402
REMARK  4 active torsions:
REMARK  status: ('A' for Active; 'I' for Inactive)
REMARK    1  A    between atoms: C3_4  and  O1_5 
REMARK    2  A    between atoms: C3_4  and  O2_6 
REMARK    3  A    between atoms: O2_6  and  C4_7 
REMARK    4  A    between atoms: C13_16  and  N2_17 
ROOT
HETATM    1  C4  LIG X 999      45.363 131.254  16.913  1.00  0.00     0.106 A 
HETATM    2  C5  LIG X 999      45.612 129.892  17.144  1.00  0.00     0.040 A 
HETATM    3  C6  LIG X 999      46.361 129.144  16.241  1.00  0.00     0.015 A 
HETATM    4  C7  LIG X 999      46.905 129.748  15.103  1.00  0.00    -0.024 A 
HETATM    5  C8  LIG X 999      47.672 128.984  14.209  1.00  0.00     0.012 A 
HETATM    6  C9  LIG X 999      48.245 129.579  13.087  1.00  0.00     0.001 A 
HETATM    7  C10 LIG X 999      48.068 130.942  12.852  1.00  0.00     0.001 A 
HETATM    8  C11 LIG X 999      47.308 131.717  13.730  1.00  0.00     0.014 A 
HETATM    9  C12 LIG X 999      46.697 131.134  14.863  1.00  0.00     0.003 A 
HETATM   10  C13 LIG X 999      45.906 131.887  15.777  1.00  0.00     0.071 A 
ENDROOT
BRANCH   1  11
HETATM   11  O2  LIG X 999      44.605 132.011  17.820  1.00  0.00    -0.272 OA
BRANCH  11  12
HETATM   12  C3  LIG X 999      44.464 131.731  19.188  1.00  0.00     0.265 C 
HETATM   13  N1  LIG X 999      43.266 131.732  19.728  1.00  0.00    -0.350 N 
HETATM   14  C1  LIG X 999      43.067 131.428  21.152  1.00  0.00     0.153 C 
HETATM   15  C2  LIG X 999      42.099 132.048  18.892  1.00  0.00     0.153 C 
BRANCH  12  16
HETATM   16  O1  LIG X 999      45.608 131.418  19.935  1.00  0.00    -0.327 OA
HETATM   17  H7  LIG X 999      46.305 132.094  20.218  1.00  0.00     0.221 HD
ENDBRANCH  12  16
ENDBRANCH  11  12
ENDBRANCH   1  11
BRANCH  10  18
HETATM   18  N2  LIG X 999      45.619 133.279  15.560  1.00  0.00    -0.396 N 
HETATM   19  H14 LIG X 999      46.243 134.044  15.895  1.00  0.00     0.156 HD
HETATM   20  H15 LIG X 999      44.825 133.576  14.952  1.00  0.00     0.156 HD
ENDBRANCH  10  18
TORSDOF 4
