REMARK VINA RESULT:      -6.6      2.296      6.253
REMARK  1 active torsions:
REMARK  status: ('A' for Active; 'I' for Inactive)
REMARK    1  A    between atoms: C8_9  and  N2_10 
ROOT
HETATM    1  C1  LIG X 999      42.203 130.210  23.707  1.00  0.00     0.283 C 
HETATM    2  N1  LIG X 999      43.243 131.116  23.179  1.00  0.00    -0.005 N 
HETATM    3  C2  LIG X 999      43.775 131.978  24.255  1.00  0.00     0.283 C 
HETATM    4  C3  LIG X 999      42.722 131.935  22.034  1.00  0.00     0.286 A 
HETATM    5  C4  LIG X 999      43.557 131.561  20.849  1.00  0.00    -0.015 A 
HETATM    6  C5  LIG X 999      43.466 132.046  19.544  1.00  0.00     0.022 A 
HETATM    7  C6  LIG X 999      44.363 131.549  18.576  1.00  0.00    -0.023 A 
HETATM    8  C7  LIG X 999      44.309 132.009  17.251  1.00  0.00     0.041 A 
HETATM    9  C8  LIG X 999      45.203 131.512  16.292  1.00  0.00     0.026 A 
HETATM   10  C9  LIG X 999      46.156 130.551  16.659  1.00  0.00     0.030 A 
HETATM   11  C10 LIG X 999      46.222 130.083  17.974  1.00  0.00     0.014 A 
HETATM   12  C11 LIG X 999      45.335 130.572  18.942  1.00  0.00    -0.025 A 
HETATM   13  C12 LIG X 999      45.396 130.106  20.270  1.00  0.00     0.030 A 
HETATM   14  C13 LIG X 999      44.489 130.627  21.191  1.00  0.00     0.049 A 
HETATM   15  C14 LIG X 999      44.315 130.346  22.591  1.00  0.00     0.351 A 
HETATM   16  O1  LIG X 999      45.019 129.521  23.236  1.00  0.00    -0.259 OA
ENDROOT
BRANCH   9  17
HETATM   17  N2  LIG X 999      45.143 131.984  14.944  1.00  0.00    -0.399 N 
HETATM   18  H11 LIG X 999      45.562 131.430  14.163  1.00  0.00     0.156 HD
HETATM   19  H12 LIG X 999      44.678 132.891  14.714  1.00  0.00     0.156 HD
ENDBRANCH   9  17
TORSDOF 1
