REMARK VINA RESULT:      -8.0      4.663      6.418
REMARK  2 active torsions:
REMARK  status: ('A' for Active; 'I' for Inactive)
REMARK    1  A    between atoms: C1_1  and  N1_2 
REMARK    2  A    between atoms: C2_5  and  C3_7 
ROOT
HETATM    1  N1  LIG X 999      43.305 131.445  22.192  1.00  0.00    -0.082 NA
HETATM    2  N2  LIG X 999      42.887 130.463  22.805  1.00  0.00    -0.163 NA
HETATM    3  N3  LIG X 999      42.468 129.483  23.419  1.00  0.00     0.068 N 
ENDROOT
BRANCH   1   4
HETATM    4  C1  LIG X 999      43.374 131.435  20.766  1.00  0.00     0.196 C 
HETATM    5  C2  LIG X 999      44.541 131.212  20.150  1.00  0.00     0.137 C 
HETATM    6  O1  LIG X 999      45.674 130.964  20.920  1.00  0.00    -0.190 OA
BRANCH   5   7
HETATM    7  C3  LIG X 999      44.666 131.196  18.668  1.00  0.00     0.003 A 
HETATM    8  C4  LIG X 999      43.641 131.757  17.888  1.00  0.00     0.015 A 
HETATM    9  C5  LIG X 999      43.719 131.751  16.493  1.00  0.00     0.013 A 
HETATM   10  C6  LIG X 999      44.823 131.176  15.851  1.00  0.00    -0.026 A 
HETATM   11  C7  LIG X 999      44.910 131.165  14.450  1.00  0.00     0.012 A 
HETATM   12  C11 LIG X 999      45.856 130.594  16.622  1.00  0.00    -0.025 A 
HETATM   13  C8  LIG X 999      46.013 130.580  13.820  1.00  0.00     0.001 A 
HETATM   14  C9  LIG X 999      47.032 130.004  14.581  1.00  0.00     0.001 A 
HETATM   15  C10 LIG X 999      46.957 130.008  15.977  1.00  0.00     0.012 A 
HETATM   16  C12 LIG X 999      45.770 130.604  18.023  1.00  0.00     0.026 A 
ENDBRANCH   5   7
ENDBRANCH   1   4
TORSDOF 2
