REMARK VINA RESULT:      -6.3      7.632      8.801
REMARK  1 active torsions:
REMARK  status: ('A' for Active; 'I' for Inactive)
REMARK    1  A    between atoms: C2_5  and  C3_6 
ROOT
HETATM    1  C3  LIG X 999      49.347 136.258  21.302  1.00  0.00     0.030 A 
HETATM    2  C4  LIG X 999      48.437 135.217  21.548  1.00  0.00     0.017 A 
HETATM    3  C5  LIG X 999      48.627 134.333  22.608  1.00  0.00     0.002 A 
HETATM    4  C6  LIG X 999      49.734 134.465  23.443  1.00  0.00     0.012 A 
HETATM    5  C7  LIG X 999      50.679 135.471  23.207  1.00  0.00    -0.025 A 
HETATM    6  C8  LIG X 999      51.807 135.576  24.038  1.00  0.00     0.012 A 
HETATM    7  C9  LIG X 999      52.777 136.545  23.790  1.00  0.00     0.001 A 
HETATM    8  C10 LIG X 999      52.641 137.409  22.705  1.00  0.00     0.001 A 
HETATM    9  C11 LIG X 999      51.524 137.322  21.870  1.00  0.00     0.013 A 
HETATM   10  C12 LIG X 999      50.508 136.372  22.119  1.00  0.00    -0.011 A 
ENDROOT
BRANCH   1  11
HETATM   11  C2  LIG X 999      49.017 137.202  20.209  1.00  0.00     0.203 A 
HETATM   12  O1  LIG X 999      49.662 137.246  19.061  1.00  0.00    -0.255 OA
HETATM   13  C1  LIG X 999      49.041 138.167  18.368  1.00  0.00     0.262 A 
HETATM   14  N1  LIG X 999      49.374 138.521  17.169  1.00  0.00    -0.260 NA
HETATM   15  N3  LIG X 999      48.018 138.693  19.059  1.00  0.00    -0.238 N 
HETATM   16  H1  LIG X 999      48.846 139.261  16.658  1.00  0.00     0.190 HD
HETATM   17  N2  LIG X 999      47.990 138.081  20.230  1.00  0.00    -0.145 NA
HETATM   18  H9  LIG X 999      47.352 139.438  18.752  1.00  0.00     0.193 HD
ENDBRANCH   1  11
TORSDOF 1
