REMARK VINA RESULT:      -4.3      3.296      5.553
REMARK  4 active torsions:
REMARK  status: ('A' for Active; 'I' for Inactive)
REMARK    1  A    between atoms: C2_2  and  C3_3 
REMARK    2  A    between atoms: C2_2  and  N1_9 
REMARK    3  A    between atoms: C3_3  and  C4_4 
REMARK       I    between atoms: N1_9  and  C8_10 
REMARK       I    between atoms: C8_10  and  N2_12 
REMARK    4  A    between atoms: N2_12  and  C9_13 
ROOT
HETATM    1  C9  LIG X 999      44.982 129.121  22.261  1.00  0.00     0.056 A 
HETATM    2  C10 LIG X 999      44.878 127.802  22.728  1.00  0.00     0.003 A 
HETATM    3  C11 LIG X 999      44.056 127.475  23.765  1.00  0.00    -0.021 A 
HETATM    4  C12 LIG X 999      43.288 128.432  24.423  1.00  0.00     0.022 A 
HETATM    5  C13 LIG X 999      43.356 129.769  23.989  1.00  0.00    -0.023 A 
HETATM    6  C14 LIG X 999      42.589 130.756  24.625  1.00  0.00     0.012 A 
HETATM    7  C15 LIG X 999      42.656 132.083  24.196  1.00  0.00     0.001 A 
HETATM    8  C16 LIG X 999      43.487 132.438  23.133  1.00  0.00     0.001 A 
HETATM    9  C17 LIG X 999      44.259 131.469  22.485  1.00  0.00     0.014 A 
HETATM   10  C18 LIG X 999      44.204 130.123  22.897  1.00  0.00     0.002 A 
HETATM   11  C19 LIG X 999      44.105 126.022  24.033  1.00  0.00     0.276 C 
HETATM   12  N3  LIG X 999      44.880 125.433  22.898  1.00  0.00    -0.067 N 
HETATM   13  C20 LIG X 999      43.963 124.738  21.963  1.00  0.00     0.272 C 
HETATM   14  C21 LIG X 999      45.884 124.465  23.396  1.00  0.00     0.272 C 
HETATM   15  C22 LIG X 999      45.541 126.582  22.204  1.00  0.00     0.278 C 
ENDROOT
BRANCH   1  16
HETATM   16  N2  LIG X 999      45.810 129.429  21.131  1.00  0.00    -0.307 N 
HETATM   17  C8  LIG X 999      45.286 130.020  19.935  1.00  0.00     0.321 C 
HETATM   18  N1  LIG X 999      46.177 130.354  18.861  1.00  0.00    -0.338 N 
HETATM   19  O1  LIG X 999      44.046 130.225  19.821  1.00  0.00    -0.247 OA
HETATM   20  H10 LIG X 999      47.202 130.207  19.004  1.00  0.00     0.164 HD
HETATM   21  H11 LIG X 999      46.804 129.107  21.138  1.00  0.00     0.170 HD
BRANCH  18  22
HETATM   22  C2  LIG X 999      45.731 130.993  17.619  1.00  0.00     0.086 C 
HETATM   23  C1  LIG X 999      44.439 131.768  17.882  1.00  0.00     0.032 C 
BRANCH  22  24
HETATM   24  C3  LIG X 999      45.513 129.932  16.528  1.00  0.00     0.071 C 
BRANCH  24  25
HETATM   25  C4  LIG X 999      46.344 130.220  15.314  1.00  0.00    -0.016 A 
HETATM   26  C5  LIG X 999      47.203 129.329  14.684  1.00  0.00     0.015 A 
HETATM   27  C6  LIG X 999      47.880 129.895  13.598  1.00  0.00     0.008 A 
HETATM   28  C7  LIG X 999      47.571 131.232  13.382  1.00  0.00     0.050 A 
HETATM   29  S1  LIG X 999      46.452 131.710  14.542  1.00  0.00    -0.106 SA
ENDBRANCH  24  25
ENDBRANCH  22  24
ENDBRANCH  18  22
ENDBRANCH   1  16
TORSDOF 4
