MODEL 1
REMARK VINA RESULT:      -7.2      0.000      0.000
REMARK  3 active torsions:
REMARK  status: ('A' for Active; 'I' for Inactive)
REMARK    1  A    between atoms: C3_3  and  S1_4 
REMARK    2  A    between atoms: S1_4  and  N1_7 
REMARK    3  A    between atoms: C10_16  and  N4_17 
ROOT
HETATM    1  N1  LIG X 999      43.635 131.712  21.903  1.00  0.00     0.026 NA
HETATM    2  N2  LIG X 999      43.122 130.841  22.604  1.00  0.00    -0.150 NA
HETATM    3  N3  LIG X 999      42.608 129.972  23.307  1.00  0.00     0.069 N 
ENDROOT
BRANCH   1   4
HETATM    4  S1  LIG X 999      45.014 131.339  20.931  1.00  0.00     0.311 S 
HETATM    5  O1  LIG X 999      45.492 129.954  21.263  1.00  0.00    -0.196 OA
HETATM    6  O2  LIG X 999      46.122 132.310  21.230  1.00  0.00    -0.196 OA
BRANCH   4   7
HETATM    7  C3  LIG X 999      44.578 131.423  19.227  1.00  0.00     0.084 A 
HETATM    8  C2  LIG X 999      43.242 131.586  18.846  1.00  0.00     0.026 A 
HETATM    9  C1  LIG X 999      42.902 131.667  17.494  1.00  0.00     0.009 A 
HETATM   10  C6  LIG X 999      43.890 131.577  16.502  1.00  0.00    -0.050 A 
HETATM   11  C5  LIG X 999      45.246 131.428  16.883  1.00  0.00    -0.023 A 
HETATM   12  C7  LIG X 999      43.487 131.776  15.060  1.00  0.00     0.039 C 
HETATM   13  C4  LIG X 999      45.574 131.352  18.247  1.00  0.00     0.035 A 
HETATM   14  C10 LIG X 999      46.348 131.270  15.851  1.00  0.00     0.179 C 
HETATM   15  C9  LIG X 999      45.937 131.849  14.489  1.00  0.00     0.035 C 
HETATM   16  C8  LIG X 999      44.563 131.322  14.069  1.00  0.00     0.007 C 
BRANCH  14  17
HETATM   17  N4  LIG X 999      46.688 129.858  15.690  1.00  0.00    -0.105 NA
HETATM   18  N5  LIG X 999      47.403 129.471  14.765  1.00  0.00    -0.167 NA
HETATM   19  N6  LIG X 999      48.119 129.085  13.842  1.00  0.00     0.068 N 
ENDBRANCH  14  17
ENDBRANCH   4   7
ENDBRANCH   1   4
TORSDOF 3
ENDMDL
MODEL 2
REMARK VINA RESULT:      -6.6      3.164      6.323
REMARK  3 active torsions:
REMARK  status: ('A' for Active; 'I' for Inactive)
REMARK    1  A    between atoms: C3_3  and  S1_4 
REMARK    2  A    between atoms: S1_4  and  N1_7 
REMARK    3  A    between atoms: C10_16  and  N4_17 
ROOT
HETATM    1  N1  LIG X 999      46.277 129.852  15.443  1.00  0.00     0.026 NA
HETATM    2  N2  LIG X 999      47.156 129.684  14.598  1.00  0.00    -0.150 NA
HETATM    3  N3  LIG X 999      48.037 129.516  13.756  1.00  0.00     0.069 N 
ENDROOT
BRANCH   1   4
HETATM    4  S1  LIG X 999      45.409 131.344  15.505  1.00  0.00     0.311 S 
HETATM    5  O1  LIG X 999      44.396 131.371  14.394  1.00  0.00    -0.196 OA
HETATM    6  O2  LIG X 999      46.359 132.492  15.312  1.00  0.00    -0.196 OA
BRANCH   4   7
HETATM    7  C3  LIG X 999      44.589 131.487  17.056  1.00  0.00     0.084 A 
HETATM    8  C2  LIG X 999      43.196 131.600  17.113  1.00  0.00     0.026 A 
HETATM    9  C1  LIG X 999      42.549 131.699  18.346  1.00  0.00     0.009 A 
HETATM   10  C6  LIG X 999      43.284 131.696  19.541  1.00  0.00    -0.050 A 
HETATM   11  C5  LIG X 999      44.694 131.566  19.491  1.00  0.00    -0.023 A 
HETATM   12  C7  LIG X 999      42.533 131.698  20.852  1.00  0.00     0.039 C 
HETATM   13  C4  LIG X 999      45.331 131.464  18.243  1.00  0.00     0.035 A 
HETATM   14  C10 LIG X 999      45.541 131.614  20.749  1.00  0.00     0.179 C 
HETATM   15  C9  LIG X 999      44.727 131.238  21.996  1.00  0.00     0.035 C 
HETATM   16  C8  LIG X 999      43.423 132.036  22.052  1.00  0.00     0.007 C 
BRANCH  14  17
HETATM   17  N4  LIG X 999      46.104 132.951  20.927  1.00  0.00    -0.105 NA
HETATM   18  N5  LIG X 999      47.181 133.123  21.498  1.00  0.00    -0.167 NA
HETATM   19  N6  LIG X 999      48.258 133.295  22.067  1.00  0.00     0.068 N 
ENDBRANCH  14  17
ENDBRANCH   4   7
ENDBRANCH   1   4
TORSDOF 3
ENDMDL
MODEL 3
REMARK VINA RESULT:      -5.6      3.235      6.838
REMARK  3 active torsions:
REMARK  status: ('A' for Active; 'I' for Inactive)
REMARK    1  A    between atoms: C3_3  and  S1_4 
REMARK    2  A    between atoms: S1_4  and  N1_7 
REMARK    3  A    between atoms: C10_16  and  N4_17 
ROOT
HETATM    1  N1  LIG X 999      46.062 129.998  14.078  1.00  0.00     0.026 NA
HETATM    2  N2  LIG X 999      47.243 129.799  13.796  1.00  0.00    -0.150 NA
HETATM    3  N3  LIG X 999      48.424 129.597  13.516  1.00  0.00     0.069 N 
ENDROOT
BRANCH   1   4
HETATM    4  S1  LIG X 999      45.612 131.396  14.986  1.00  0.00     0.311 S 
HETATM    5  O1  LIG X 999      44.259 131.865  14.531  1.00  0.00    -0.196 OA
HETATM    6  O2  LIG X 999      46.605 132.499  14.745  1.00  0.00    -0.196 OA
BRANCH   4   7
HETATM    7  C3  LIG X 999      45.555 130.996  16.700  1.00  0.00     0.084 A 
HETATM    8  C2  LIG X 999      46.191 129.847  17.180  1.00  0.00     0.026 A 
HETATM    9  C1  LIG X 999      46.156 129.542  18.542  1.00  0.00     0.009 A 
HETATM   10  C6  LIG X 999      45.475 130.374  19.444  1.00  0.00    -0.050 A 
HETATM   11  C5  LIG X 999      44.843 131.548  18.965  1.00  0.00    -0.023 A 
HETATM   12  C7  LIG X 999      45.555 130.059  20.919  1.00  0.00     0.039 C 
HETATM   13  C4  LIG X 999      44.890 131.845  17.593  1.00  0.00     0.035 A 
HETATM   14  C10 LIG X 999      44.047 132.453  19.888  1.00  0.00     0.179 C 
HETATM   15  C9  LIG X 999      44.482 132.294  21.352  1.00  0.00     0.035 C 
HETATM   16  C8  LIG X 999      44.515 130.817  21.750  1.00  0.00     0.007 C 
BRANCH  14  17
HETATM   17  N4  LIG X 999      42.620 132.158  19.775  1.00  0.00    -0.105 NA
HETATM   18  N5  LIG X 999      41.776 132.836  20.361  1.00  0.00    -0.167 NA
HETATM   19  N6  LIG X 999      40.932 133.515  20.945  1.00  0.00     0.068 N 
ENDBRANCH  14  17
ENDBRANCH   4   7
ENDBRANCH   1   4
TORSDOF 3
ENDMDL
MODEL 4
REMARK VINA RESULT:      -5.5      1.813      2.147
REMARK  3 active torsions:
REMARK  status: ('A' for Active; 'I' for Inactive)
REMARK    1  A    between atoms: C3_3  and  S1_4 
REMARK    2  A    between atoms: S1_4  and  N1_7 
REMARK    3  A    between atoms: C10_16  and  N4_17 
ROOT
HETATM    1  N1  LIG X 999      46.948 132.038  21.011  1.00  0.00     0.026 NA
HETATM    2  N2  LIG X 999      47.161 133.059  21.664  1.00  0.00    -0.150 NA
HETATM    3  N3  LIG X 999      47.377 134.079  22.317  1.00  0.00     0.069 N 
ENDROOT
BRANCH   1   4
HETATM    4  S1  LIG X 999      45.350 131.388  20.919  1.00  0.00     0.311 S 
HETATM    5  O1  LIG X 999      44.436 132.199  21.793  1.00  0.00    -0.196 OA
HETATM    6  O2  LIG X 999      45.351 129.969  21.416  1.00  0.00    -0.196 OA
BRANCH   4   7
HETATM    7  C3  LIG X 999      44.782 131.447  19.253  1.00  0.00     0.084 A 
HETATM    8  C2  LIG X 999      43.419 131.592  18.975  1.00  0.00     0.026 A 
HETATM    9  C1  LIG X 999      42.975 131.654  17.653  1.00  0.00     0.009 A 
HETATM   10  C6  LIG X 999      43.884 131.561  16.589  1.00  0.00    -0.050 A 
HETATM   11  C5  LIG X 999      45.268 131.431  16.864  1.00  0.00    -0.023 A 
HETATM   12  C7  LIG X 999      43.369 131.740  15.179  1.00  0.00     0.039 C 
HETATM   13  C4  LIG X 999      45.701 131.374  18.200  1.00  0.00     0.035 A 
HETATM   14  C10 LIG X 999      46.288 131.271  15.752  1.00  0.00     0.179 C 
HETATM   15  C9  LIG X 999      45.766 131.830  14.420  1.00  0.00     0.035 C 
HETATM   16  C8  LIG X 999      44.370 131.285  14.113  1.00  0.00     0.007 C 
BRANCH  14  17
HETATM   17  N4  LIG X 999      46.629 129.861  15.581  1.00  0.00    -0.105 NA
HETATM   18  N5  LIG X 999      47.401 129.490  14.696  1.00  0.00    -0.167 NA
HETATM   19  N6  LIG X 999      48.174 129.120  13.813  1.00  0.00     0.068 N 
ENDBRANCH  14  17
ENDBRANCH   4   7
ENDBRANCH   1   4
TORSDOF 3
ENDMDL
MODEL 5
REMARK VINA RESULT:      -5.4      3.317      6.191
REMARK  3 active torsions:
REMARK  status: ('A' for Active; 'I' for Inactive)
REMARK    1  A    between atoms: C3_3  and  S1_4 
REMARK    2  A    between atoms: S1_4  and  N1_7 
REMARK    3  A    between atoms: C10_16  and  N4_17 
ROOT
HETATM    1  N1  LIG X 999      44.767 130.480  14.538  1.00  0.00     0.026 NA
HETATM    2  N2  LIG X 999      43.840 131.163  14.103  1.00  0.00    -0.150 NA
HETATM    3  N3  LIG X 999      42.914 131.846  13.667  1.00  0.00     0.069 N 
ENDROOT
BRANCH   1   4
HETATM    4  S1  LIG X 999      45.788 131.099  15.786  1.00  0.00     0.311 S 
HETATM    5  O1  LIG X 999      46.375 132.408  15.339  1.00  0.00    -0.196 OA
HETATM    6  O2  LIG X 999      46.912 130.135  16.046  1.00  0.00    -0.196 OA
BRANCH   4   7
HETATM    7  C3  LIG X 999      44.847 131.342  17.254  1.00  0.00     0.084 A 
HETATM    8  C2  LIG X 999      43.457 131.491  17.188  1.00  0.00     0.026 A 
HETATM    9  C1  LIG X 999      42.713 131.668  18.356  1.00  0.00     0.009 A 
HETATM   10  C6  LIG X 999      43.347 131.711  19.607  1.00  0.00    -0.050 A 
HETATM   11  C5  LIG X 999      44.751 131.545  19.682  1.00  0.00    -0.023 A 
HETATM   12  C7  LIG X 999      42.490 131.799  20.848  1.00  0.00     0.039 C 
HETATM   13  C4  LIG X 999      45.487 131.363  18.498  1.00  0.00     0.035 A 
HETATM   14  C10 LIG X 999      45.493 131.637  21.003  1.00  0.00     0.179 C 
HETATM   15  C9  LIG X 999      44.568 131.346  22.194  1.00  0.00     0.035 C 
HETATM   16  C8  LIG X 999      43.287 132.177  22.101  1.00  0.00     0.007 C 
BRANCH  14  17
HETATM   17  N4  LIG X 999      46.076 132.968  21.161  1.00  0.00    -0.105 NA
HETATM   18  N5  LIG X 999      47.218 133.121  21.597  1.00  0.00    -0.167 NA
HETATM   19  N6  LIG X 999      48.358 133.273  22.031  1.00  0.00     0.068 N 
ENDBRANCH  14  17
ENDBRANCH   4   7
ENDBRANCH   1   4
TORSDOF 3
ENDMDL
MODEL 6
REMARK VINA RESULT:      -4.9      6.454      8.675
REMARK  3 active torsions:
REMARK  status: ('A' for Active; 'I' for Inactive)
REMARK    1  A    between atoms: C3_3  and  S1_4 
REMARK    2  A    between atoms: S1_4  and  N1_7 
REMARK    3  A    between atoms: C10_16  and  N4_17 
ROOT
HETATM    1  N1  LIG X 999      44.581 130.330  22.025  1.00  0.00     0.026 NA
HETATM    2  N2  LIG X 999      43.844 131.052  21.355  1.00  0.00    -0.150 NA
HETATM    3  N3  LIG X 999      43.108 131.776  20.686  1.00  0.00     0.069 N 
ENDROOT
BRANCH   1   4
HETATM    4  S1  LIG X 999      43.933 129.402  23.330  1.00  0.00     0.311 S 
HETATM    5  O1  LIG X 999      42.450 129.631  23.408  1.00  0.00    -0.196 OA
HETATM    6  O2  LIG X 999      44.554 129.847  24.625  1.00  0.00    -0.196 OA
BRANCH   4   7
HETATM    7  C3  LIG X 999      44.255 127.692  23.059  1.00  0.00     0.084 A 
HETATM    8  C2  LIG X 999      45.452 127.284  22.461  1.00  0.00     0.026 A 
HETATM    9  C1  LIG X 999      45.710 125.926  22.261  1.00  0.00     0.009 A 
HETATM   10  C6  LIG X 999      44.772 124.957  22.647  1.00  0.00    -0.050 A 
HETATM   11  C5  LIG X 999      43.566 125.363  23.268  1.00  0.00    -0.023 A 
HETATM   12  C7  LIG X 999      45.141 123.498  22.508  1.00  0.00     0.039 C 
HETATM   13  C4  LIG X 999      43.322 126.733  23.466  1.00  0.00     0.035 A 
HETATM   14  C10 LIG X 999      42.494 124.360  23.654  1.00  0.00     0.179 C 
HETATM   15  C9  LIG X 999      43.076 122.951  23.837  1.00  0.00     0.035 C 
HETATM   16  C8  LIG X 999      43.937 122.561  22.634  1.00  0.00     0.007 C 
BRANCH  14  17
HETATM   17  N4  LIG X 999      41.450 124.322  22.633  1.00  0.00    -0.105 NA
HETATM   18  N5  LIG X 999      40.426 123.654  22.786  1.00  0.00    -0.167 NA
HETATM   19  N6  LIG X 999      39.404 122.988  22.940  1.00  0.00     0.068 N 
ENDBRANCH  14  17
ENDBRANCH   4   7
ENDBRANCH   1   4
TORSDOF 3
ENDMDL
MODEL 7
REMARK VINA RESULT:      -4.9      5.773      7.492
REMARK  3 active torsions:
REMARK  status: ('A' for Active; 'I' for Inactive)
REMARK    1  A    between atoms: C3_3  and  S1_4 
REMARK    2  A    between atoms: S1_4  and  N1_7 
REMARK    3  A    between atoms: C10_16  and  N4_17 
ROOT
HETATM    1  N1  LIG X 999      45.022 131.416  21.354  1.00  0.00     0.026 NA
HETATM    2  N2  LIG X 999      44.608 131.549  20.203  1.00  0.00    -0.150 NA
HETATM    3  N3  LIG X 999      44.197 131.684  19.052  1.00  0.00     0.069 N 
ENDROOT
BRANCH   1   4
HETATM    4  S1  LIG X 999      43.905 131.277  22.665  1.00  0.00     0.311 S 
HETATM    5  O1  LIG X 999      42.603 131.918  22.273  1.00  0.00    -0.196 OA
HETATM    6  O2  LIG X 999      44.447 131.994  23.870  1.00  0.00    -0.196 OA
BRANCH   4   7
HETATM    7  C3  LIG X 999      43.639 129.577  23.039  1.00  0.00     0.084 A 
HETATM    8  C2  LIG X 999      42.424 129.155  23.587  1.00  0.00     0.026 A 
HETATM    9  C1  LIG X 999      42.211 127.804  23.868  1.00  0.00     0.009 A 
HETATM   10  C6  LIG X 999      43.214 126.855  23.615  1.00  0.00    -0.050 A 
HETATM   11  C5  LIG X 999      44.440 127.275  23.044  1.00  0.00    -0.023 A 
HETATM   12  C7  LIG X 999      42.899 125.394  23.836  1.00  0.00     0.039 C 
HETATM   13  C4  LIG X 999      44.638 128.637  22.763  1.00  0.00     0.035 A 
HETATM   14  C10 LIG X 999      45.578 126.299  22.801  1.00  0.00     0.179 C 
HETATM   15  C9  LIG X 999      45.070 124.854  22.685  1.00  0.00     0.035 C 
HETATM   16  C8  LIG X 999      44.148 124.508  23.855  1.00  0.00     0.007 C 
BRANCH  14  17
HETATM   17  N4  LIG X 999      46.552 126.381  23.887  1.00  0.00    -0.105 NA
HETATM   18  N5  LIG X 999      47.598 125.731  23.862  1.00  0.00    -0.167 NA
HETATM   19  N6  LIG X 999      48.643 125.084  23.836  1.00  0.00     0.068 N 
ENDBRANCH  14  17
ENDBRANCH   4   7
ENDBRANCH   1   4
TORSDOF 3
ENDMDL
MODEL 8
REMARK VINA RESULT:      -4.8      5.074      7.027
REMARK  3 active torsions:
REMARK  status: ('A' for Active; 'I' for Inactive)
REMARK    1  A    between atoms: C3_3  and  S1_4 
REMARK    2  A    between atoms: S1_4  and  N1_7 
REMARK    3  A    between atoms: C10_16  and  N4_17 
ROOT
HETATM    1  N1  LIG X 999      45.773 130.643  19.093  1.00  0.00     0.026 NA
HETATM    2  N2  LIG X 999      45.308 130.961  17.999  1.00  0.00    -0.150 NA
HETATM    3  N3  LIG X 999      44.844 131.280  16.906  1.00  0.00     0.069 N 
ENDROOT
BRANCH   1   4
HETATM    4  S1  LIG X 999      45.165 131.367  20.538  1.00  0.00     0.311 S 
HETATM    5  O1  LIG X 999      43.899 132.112  20.221  1.00  0.00    -0.196 OA
HETATM    6  O2  LIG X 999      46.172 132.345  21.077  1.00  0.00    -0.196 OA
BRANCH   4   7
HETATM    7  C3  LIG X 999      44.834 130.117  21.733  1.00  0.00     0.084 A 
HETATM    8  C2  LIG X 999      44.193 130.438  22.934  1.00  0.00     0.026 A 
HETATM    9  C1  LIG X 999      43.917 129.442  23.872  1.00  0.00     0.009 A 
HETATM   10  C6  LIG X 999      44.288 128.110  23.629  1.00  0.00    -0.050 A 
HETATM   11  C5  LIG X 999      44.923 127.776  22.408  1.00  0.00    -0.023 A 
HETATM   12  C7  LIG X 999      43.876 127.052  24.625  1.00  0.00     0.039 C 
HETATM   13  C4  LIG X 999      45.190 128.789  21.471  1.00  0.00     0.035 A 
HETATM   14  C10 LIG X 999      45.395 126.363  22.118  1.00  0.00     0.179 C 
HETATM   15  C9  LIG X 999      44.628 125.327  22.954  1.00  0.00     0.035 C 
HETATM   16  C8  LIG X 999      44.617 125.725  24.431  1.00  0.00     0.007 C 
BRANCH  14  17
HETATM   17  N4  LIG X 999      46.824 126.242  22.395  1.00  0.00    -0.105 NA
HETATM   18  N5  LIG X 999      47.472 125.266  22.015  1.00  0.00    -0.167 NA
HETATM   19  N6  LIG X 999      48.119 124.292  21.634  1.00  0.00     0.068 N 
ENDBRANCH  14  17
ENDBRANCH   4   7
ENDBRANCH   1   4
TORSDOF 3
ENDMDL
MODEL 9
REMARK VINA RESULT:      -4.7      6.568      7.634
REMARK  3 active torsions:
REMARK  status: ('A' for Active; 'I' for Inactive)
REMARK    1  A    between atoms: C3_3  and  S1_4 
REMARK    2  A    between atoms: S1_4  and  N1_7 
REMARK    3  A    between atoms: C10_16  and  N4_17 
ROOT
HETATM    1  N1  LIG X 999      44.568 130.207  22.003  1.00  0.00     0.026 NA
HETATM    2  N2  LIG X 999      43.864 131.006  21.387  1.00  0.00    -0.150 NA
HETATM    3  N3  LIG X 999      43.162 131.806  20.772  1.00  0.00     0.069 N 
ENDROOT
BRANCH   1   4
HETATM    4  S1  LIG X 999      43.909 129.311  23.325  1.00  0.00     0.311 S 
HETATM    5  O1  LIG X 999      42.419 129.504  23.357  1.00  0.00    -0.196 OA
HETATM    6  O2  LIG X 999      44.484 129.817  24.618  1.00  0.00    -0.196 OA
BRANCH   4   7
HETATM    7  C3  LIG X 999      44.280 127.601  23.125  1.00  0.00     0.084 A 
HETATM    8  C2  LIG X 999      43.316 126.630  23.414  1.00  0.00     0.026 A 
HETATM    9  C1  LIG X 999      43.608 125.276  23.239  1.00  0.00     0.009 A 
HETATM   10  C6  LIG X 999      44.872 124.871  22.783  1.00  0.00    -0.050 A 
HETATM   11  C5  LIG X 999      45.847 125.851  22.473  1.00  0.00    -0.023 A 
HETATM   12  C7  LIG X 999      45.106 123.404  22.509  1.00  0.00     0.039 C 
HETATM   13  C4  LIG X 999      45.537 127.210  22.650  1.00  0.00     0.035 A 
HETATM   14  C10 LIG X 999      47.247 125.467  22.029  1.00  0.00     0.179 C 
HETATM   15  C9  LIG X 999      47.282 124.055  21.426  1.00  0.00     0.035 C 
HETATM   16  C8  LIG X 999      46.589 123.053  22.351  1.00  0.00     0.007 C 
BRANCH  14  17
HETATM   17  N4  LIG X 999      48.169 125.530  23.161  1.00  0.00    -0.105 NA
HETATM   18  N5  LIG X 999      49.376 125.711  22.997  1.00  0.00    -0.167 NA
HETATM   19  N6  LIG X 999      50.581 125.894  22.832  1.00  0.00     0.068 N 
ENDBRANCH  14  17
ENDBRANCH   4   7
ENDBRANCH   1   4
TORSDOF 3
ENDMDL
