REMARK VINA RESULT:      -6.3      2.797      4.999
REMARK  1 active torsions:
REMARK  status: ('A' for Active; 'I' for Inactive)
REMARK    1  A    between atoms: C8_8  and  N1_9 
ROOT
HETATM    1  N1  LIG X 999      42.647 132.184  22.500  1.00  0.00    -0.072 NA
HETATM    2  N2  LIG X 999      42.546 131.175  23.200  1.00  0.00    -0.162 NA
HETATM    3  N3  LIG X 999      42.445 130.169  23.900  1.00  0.00     0.068 N 
ENDROOT
BRANCH   1   4
HETATM    4  C8  LIG X 999      42.743 132.118  21.070  1.00  0.00     0.104 A 
HETATM    5  C7  LIG X 999      41.681 132.573  20.229  1.00  0.00     0.038 A 
HETATM    6  C6  LIG X 999      41.784 132.503  18.820  1.00  0.00     0.035 A 
HETATM    7  C5  LIG X 999      42.952 131.978  18.270  1.00  0.00     0.073 A 
HETATM    8  C4  LIG X 999      43.954 131.549  19.088  1.00  0.00     0.021 A 
HETATM    9  N4  LIG X 999      43.286 131.806  16.889  1.00  0.00    -0.209 NA
HETATM   10  C3  LIG X 999      45.003 131.073  18.372  1.00  0.00     0.047 A 
HETATM   11  C9  LIG X 999      43.911 131.591  20.472  1.00  0.00     0.009 A 
HETATM   12  C2  LIG X 999      46.139 130.581  19.013  1.00  0.00     0.018 A 
HETATM   13  C11 LIG X 999      44.600 131.227  16.977  1.00  0.00     0.278 A 
HETATM   14  C1  LIG X 999      46.153 130.600  20.428  1.00  0.00     0.002 A 
HETATM   15  C10 LIG X 999      45.044 131.102  21.160  1.00  0.00     0.015 A 
HETATM   16  O1  LIG X 999      45.292 130.905  15.976  1.00  0.00    -0.265 OA
ENDBRANCH   1   4
TORSDOF 1
