REMARK VINA RESULT:      -9.2      0.000      0.000
REMARK  6 active torsions:
REMARK  status: ('A' for Active; 'I' for Inactive)
REMARK    1  A    between atoms: C4_5  and  C5_6 
REMARK       I    between atoms: C5_6  and  N2_8 
REMARK    2  A    between atoms: N2_8  and  C6_9 
REMARK    3  A    between atoms: C6_9  and  O2_10 
REMARK    4  A    between atoms: O2_10  and  C7_11 
REMARK    5  A    between atoms: C7_11  and  O4_13 
REMARK    6  A    between atoms: O4_13  and  C8_14 
ROOT
HETATM    1  C7  LIG X 999      45.259 131.306  19.681  1.00  0.00     0.413 C 
HETATM    2  O3  LIG X 999      46.162 130.980  20.497  1.00  0.00    -0.229 OA
ENDROOT
BRANCH   1   3
HETATM    3  O2  LIG X 999      44.428 132.399  19.941  1.00  0.00    -0.276 OA
BRANCH   3   4
HETATM    4  C6  LIG X 999      43.056 132.283  20.312  1.00  0.00     0.334 C 
BRANCH   4   5
HETATM    5  N2  LIG X 999      42.848 131.065  21.087  1.00  0.00    -0.224 NA
HETATM    6  C5  LIG X 999      43.045 130.964  22.501  1.00  0.00     0.292 C 
HETATM    7  O1  LIG X 999      43.305 131.990  23.186  1.00  0.00    -0.264 OA
BRANCH   6   8
HETATM    8  C4  LIG X 999      42.924 129.657  23.162  1.00  0.00     0.119 A 
HETATM    9  C3  LIG X 999      43.968 128.816  23.510  1.00  0.00     0.055 A 
HETATM   10  C2  LIG X 999      43.356 127.715  24.080  1.00  0.00     0.112 A 
HETATM   11  N1  LIG X 999      42.024 127.916  24.076  1.00  0.00    -0.307 N 
HETATM   12  C1  LIG X 999      41.013 126.962  24.514  1.00  0.00     0.177 C 
HETATM   13  N3  LIG X 999      41.758 129.082  23.510  1.00  0.00    -0.294 N 
HETATM   14  H15 LIG X 999      40.798 129.466  23.356  1.00  0.00     0.187 HD
ENDBRANCH   6   8
ENDBRANCH   4   5
ENDBRANCH   3   4
ENDBRANCH   1   3
BRANCH   1  15
HETATM   15  O4  LIG X 999      45.037 130.556  18.520  1.00  0.00    -0.256 OA
BRANCH  15  16
HETATM   16  C8  LIG X 999      45.572 130.841  17.255  1.00  0.00     0.082 A 
HETATM   17  C9  LIG X 999      45.339 132.063  16.598  1.00  0.00     0.038 A 
HETATM   18  C10 LIG X 999      45.882 132.304  15.333  1.00  0.00     0.015 A 
HETATM   19  C11 LIG X 999      46.661 131.323  14.701  1.00  0.00    -0.026 A 
HETATM   20  C12 LIG X 999      47.214 131.555  13.432  1.00  0.00     0.012 A 
HETATM   21  C16 LIG X 999      46.885 130.085  15.348  1.00  0.00    -0.023 A 
HETATM   22  C13 LIG X 999      47.982 130.566  12.811  1.00  0.00     0.001 A 
HETATM   23  C14 LIG X 999      48.204 129.343  13.449  1.00  0.00     0.001 A 
HETATM   24  C15 LIG X 999      47.658 129.099  14.713  1.00  0.00     0.012 A 
HETATM   25  C17 LIG X 999      46.333 129.852  16.617  1.00  0.00     0.049 A 
ENDBRANCH  15  16
ENDBRANCH   1  15
TORSDOF 6
