REMARK VINA RESULT:      -8.5      1.866      6.521
REMARK  4 active torsions:
REMARK  status: ('A' for Active; 'I' for Inactive)
REMARK    1  A    between atoms: C3_3  and  O1_4 
REMARK    2  A    between atoms: O1_4  and  C4_5 
REMARK    3  A    between atoms: C4_5  and  O2_6 
REMARK    4  A    between atoms: C5_8  and  C6_9 
ROOT
HETATM    1  C1  LIG X 999      41.743 132.424  19.069  1.00  0.00     0.014 C 
HETATM    2  C2  LIG X 999      42.830 132.295  19.576  1.00  0.00    -0.091 C 
HETATM    3  C3  LIG X 999      44.148 132.139  20.190  1.00  0.00     0.270 C 
ENDROOT
BRANCH   3   4
HETATM    4  O1  LIG X 999      45.094 131.800  19.186  1.00  0.00    -0.319 OA
BRANCH   4   5
HETATM    5  C4  LIG X 999      45.671 130.530  19.098  1.00  0.00     0.179 C 
HETATM    6  C5  LIG X 999      45.837 129.943  17.905  1.00  0.00     0.075 C 
BRANCH   5   7
HETATM    7  O2  LIG X 999      46.094 129.881  20.260  1.00  0.00    -0.341 OA
HETATM    8  H4  LIG X 999      45.632 129.050  20.611  1.00  0.00     0.220 HD
ENDBRANCH   5   7
BRANCH   6   9
HETATM    9  C6  LIG X 999      45.401 130.562  16.628  1.00  0.00    -0.021 A 
HETATM   10  C7  LIG X 999      44.155 131.212  16.572  1.00  0.00     0.012 A 
HETATM   11  C8  LIG X 999      43.690 131.765  15.379  1.00  0.00     0.002 A 
HETATM   12  C9  LIG X 999      44.451 131.668  14.216  1.00  0.00     0.012 A 
HETATM   13  C10 LIG X 999      45.691 131.016  14.235  1.00  0.00    -0.025 A 
HETATM   14  C11 LIG X 999      46.451 130.921  13.058  1.00  0.00     0.012 A 
HETATM   15  C15 LIG X 999      46.180 130.453  15.446  1.00  0.00    -0.015 A 
HETATM   16  C12 LIG X 999      47.691 130.283  13.071  1.00  0.00     0.001 A 
HETATM   17  C13 LIG X 999      48.186 129.738  14.256  1.00  0.00     0.001 A 
HETATM   18  C14 LIG X 999      47.443 129.822  15.436  1.00  0.00     0.013 A 
ENDBRANCH   6   9
ENDBRANCH   4   5
ENDBRANCH   3   4
TORSDOF 4
