MODEL 1
REMARK VINA RESULT:      -7.8      0.000      0.000
REMARK  2 active torsions:
REMARK  status: ('A' for Active; 'I' for Inactive)
REMARK    1  A    between atoms: C2_2  and  N1_3 
REMARK    2  A    between atoms: C3_6  and  O1_7 
ROOT
HETATM    1  N1  LIG X 999      46.726 130.041  15.274  1.00  0.00    -0.070 NA
HETATM    2  N2  LIG X 999      47.163 130.789  14.399  1.00  0.00    -0.162 NA
HETATM    3  N3  LIG X 999      47.601 131.534  13.522  1.00  0.00     0.068 N 
ENDROOT
BRANCH   1   4
HETATM    4  C2  LIG X 999      45.876 130.510  16.333  1.00  0.00     0.127 A 
HETATM    5  C1  LIG X 999      46.110 130.148  17.673  1.00  0.00     0.049 A 
HETATM    6  C11 LIG X 999      45.271 130.615  18.692  1.00  0.00    -0.023 A 
HETATM    7  C6  LIG X 999      44.176 131.463  18.368  1.00  0.00    -0.022 A 
HETATM    8  C10 LIG X 999      45.502 130.250  20.034  1.00  0.00     0.021 A 
HETATM    9  C5  LIG X 999      43.948 131.820  17.033  1.00  0.00     0.051 A 
HETATM   10  C7  LIG X 999      43.328 131.933  19.391  1.00  0.00     0.021 A 
HETATM   11  C3  LIG X 999      44.795 131.349  16.011  1.00  0.00     0.100 A 
HETATM   12  C8  LIG X 999      43.595 131.555  20.708  1.00  0.00    -0.024 A 
HETATM   13  C9  LIG X 999      44.644 130.744  21.018  1.00  0.00    -0.024 A 
HETATM   14  C15 LIG X 999      42.833 131.907  21.925  1.00  0.00     0.276 C 
HETATM   15  C12 LIG X 999      44.682 130.477  22.472  1.00  0.00     0.276 C 
HETATM   16  N4  LIG X 999      43.623 131.351  23.071  1.00  0.00    -0.067 N 
HETATM   17  C13 LIG X 999      44.250 132.454  23.837  1.00  0.00     0.272 C 
HETATM   18  C14 LIG X 999      42.750 130.570  23.976  1.00  0.00     0.272 C 
BRANCH  11  19
HETATM   19  O1  LIG X 999      44.593 131.690  14.663  1.00  0.00    -0.353 OA
HETATM   20  C4  LIG X 999      43.355 131.560  13.973  1.00  0.00     0.210 C 
ENDBRANCH  11  19
ENDBRANCH   1   4
TORSDOF 2
ENDMDL
MODEL 2
REMARK VINA RESULT:      -7.7      1.671      2.605
REMARK  2 active torsions:
REMARK  status: ('A' for Active; 'I' for Inactive)
REMARK    1  A    between atoms: C2_2  and  N1_3 
REMARK    2  A    between atoms: C3_6  and  O1_7 
ROOT
HETATM    1  N1  LIG X 999      44.882 131.800  14.938  1.00  0.00    -0.070 NA
HETATM    2  N2  LIG X 999      43.825 131.662  14.321  1.00  0.00    -0.162 NA
HETATM    3  N3  LIG X 999      42.771 131.524  13.702  1.00  0.00     0.068 N 
ENDROOT
BRANCH   1   4
HETATM    4  C2  LIG X 999      45.020 131.436  16.320  1.00  0.00     0.127 A 
HETATM    5  C1  LIG X 999      44.102 131.884  17.289  1.00  0.00     0.049 A 
HETATM    6  C11 LIG X 999      44.252 131.518  18.632  1.00  0.00    -0.023 A 
HETATM    7  C6  LIG X 999      45.340 130.687  19.017  1.00  0.00    -0.022 A 
HETATM    8  C10 LIG X 999      43.337 131.969  19.604  1.00  0.00     0.021 A 
HETATM    9  C5  LIG X 999      46.250 130.244  18.049  1.00  0.00     0.051 A 
HETATM   10  C7  LIG X 999      45.496 130.319  20.369  1.00  0.00     0.021 A 
HETATM   11  C3  LIG X 999      46.096 130.614  16.698  1.00  0.00     0.100 A 
HETATM   12  C8  LIG X 999      44.563 130.780  21.300  1.00  0.00    -0.024 A 
HETATM   13  C9  LIG X 999      43.521 131.575  20.931  1.00  0.00    -0.024 A 
HETATM   14  C15 LIG X 999      44.542 130.540  22.759  1.00  0.00     0.276 C 
HETATM   15  C12 LIG X 999      42.706 131.942  22.108  1.00  0.00     0.276 C 
HETATM   16  N4  LIG X 999      43.264 131.149  23.249  1.00  0.00    -0.067 N 
HETATM   17  C13 LIG X 999      42.312 130.082  23.639  1.00  0.00     0.272 C 
HETATM   18  C14 LIG X 999      43.516 132.021  24.419  1.00  0.00     0.272 C 
BRANCH  11  19
HETATM   19  O1  LIG X 999      46.991 130.186  15.704  1.00  0.00    -0.353 OA
HETATM   20  C4  LIG X 999      46.643 129.338  14.614  1.00  0.00     0.210 C 
ENDBRANCH  11  19
ENDBRANCH   1   4
TORSDOF 2
ENDMDL
MODEL 3
REMARK VINA RESULT:      -7.1      2.544      7.052
REMARK  2 active torsions:
REMARK  status: ('A' for Active; 'I' for Inactive)
REMARK    1  A    between atoms: C2_2  and  N1_3 
REMARK    2  A    between atoms: C3_6  and  O1_7 
ROOT
HETATM    1  N1  LIG X 999      44.392 130.154  24.033  1.00  0.00    -0.070 NA
HETATM    2  N2  LIG X 999      44.602 128.976  24.326  1.00  0.00    -0.162 NA
HETATM    3  N3  LIG X 999      44.810 127.800  24.622  1.00  0.00     0.068 N 
ENDROOT
BRANCH   1   4
HETATM    4  C2  LIG X 999      44.204 130.588  22.677  1.00  0.00     0.127 A 
HETATM    5  C1  LIG X 999      45.069 130.168  21.649  1.00  0.00     0.049 A 
HETATM    6  C11 LIG X 999      44.869 130.601  20.332  1.00  0.00    -0.023 A 
HETATM    7  C6  LIG X 999      43.784 131.471  20.035  1.00  0.00    -0.022 A 
HETATM    8  C10 LIG X 999      45.736 130.184  19.302  1.00  0.00     0.021 A 
HETATM    9  C5  LIG X 999      42.928 131.886  21.062  1.00  0.00     0.051 A 
HETATM   10  C7  LIG X 999      43.583 131.911  18.711  1.00  0.00     0.021 A 
HETATM   11  C3  LIG X 999      43.131 131.447  22.385  1.00  0.00     0.100 A 
HETATM   12  C8  LIG X 999      44.459 131.469  17.718  1.00  0.00    -0.024 A 
HETATM   13  C9  LIG X 999      45.497 130.636  18.003  1.00  0.00    -0.024 A 
HETATM   14  C15 LIG X 999      44.451 131.817  16.281  1.00  0.00     0.276 C 
HETATM   15  C12 LIG X 999      46.282 130.349  16.783  1.00  0.00     0.276 C 
HETATM   16  N4  LIG X 999      45.518 130.972  15.656  1.00  0.00    -0.067 N 
HETATM   17  C13 LIG X 999      44.902 129.918  14.816  1.00  0.00     0.272 C 
HETATM   18  C14 LIG X 999      46.412 131.798  14.813  1.00  0.00     0.272 C 
BRANCH  11  19
HETATM   19  O1  LIG X 999      42.289 131.845  23.437  1.00  0.00    -0.353 OA
HETATM   20  C4  LIG X 999      42.724 132.531  24.606  1.00  0.00     0.210 C 
ENDBRANCH  11  19
ENDBRANCH   1   4
TORSDOF 2
ENDMDL
MODEL 4
REMARK VINA RESULT:      -5.3      2.605      7.328
REMARK  2 active torsions:
REMARK  status: ('A' for Active; 'I' for Inactive)
REMARK    1  A    between atoms: C2_2  and  N1_3 
REMARK    2  A    between atoms: C3_6  and  O1_7 
ROOT
HETATM    1  N1  LIG X 999      42.257 131.805  23.530  1.00  0.00    -0.070 NA
HETATM    2  N2  LIG X 999      41.266 132.519  23.371  1.00  0.00    -0.162 NA
HETATM    3  N3  LIG X 999      40.276 133.233  23.216  1.00  0.00     0.068 N 
ENDROOT
BRANCH   1   4
HETATM    4  C2  LIG X 999      43.125 131.440  22.446  1.00  0.00     0.127 A 
HETATM    5  C1  LIG X 999      42.830 131.805  21.119  1.00  0.00     0.049 A 
HETATM    6  C11 LIG X 999      43.688 131.441  20.074  1.00  0.00    -0.023 A 
HETATM    7  C6  LIG X 999      44.866 130.696  20.359  1.00  0.00    -0.022 A 
HETATM    8  C10 LIG X 999      43.392 131.803  18.745  1.00  0.00     0.021 A 
HETATM    9  C5  LIG X 999      45.154 130.335  21.681  1.00  0.00     0.051 A 
HETATM   10  C7  LIG X 999      45.730 130.326  19.310  1.00  0.00     0.021 A 
HETATM   11  C3  LIG X 999      44.288 130.704  22.730  1.00  0.00     0.100 A 
HETATM   12  C8  LIG X 999      45.406 130.711  18.007  1.00  0.00    -0.024 A 
HETATM   13  C9  LIG X 999      44.279 131.424  17.735  1.00  0.00    -0.024 A 
HETATM   14  C15 LIG X 999      46.147 130.415  16.762  1.00  0.00     0.276 C 
HETATM   15  C12 LIG X 999      44.160 131.672  16.283  1.00  0.00     0.276 C 
HETATM   16  N4  LIG X 999      45.436 131.169  15.681  1.00  0.00    -0.067 N 
HETATM   17  C13 LIG X 999      46.267 132.309  15.228  1.00  0.00     0.272 C 
HETATM   18  C14 LIG X 999      45.157 130.287  14.526  1.00  0.00     0.272 C 
BRANCH  11  19
HETATM   19  O1  LIG X 999      44.550 130.358  24.066  1.00  0.00    -0.353 OA
HETATM   20  C4  LIG X 999      44.326 129.068  24.625  1.00  0.00     0.210 C 
ENDBRANCH  11  19
ENDBRANCH   1   4
TORSDOF 2
ENDMDL
MODEL 5
REMARK VINA RESULT:      -5.3      6.837      8.763
REMARK  2 active torsions:
REMARK  status: ('A' for Active; 'I' for Inactive)
REMARK    1  A    between atoms: C2_2  and  N1_3 
REMARK    2  A    between atoms: C3_6  and  O1_7 
ROOT
HETATM    1  N1  LIG X 999      42.037 129.700  24.265  1.00  0.00    -0.070 NA
HETATM    2  N2  LIG X 999      42.405 130.749  23.734  1.00  0.00    -0.162 NA
HETATM    3  N3  LIG X 999      42.772 131.798  23.206  1.00  0.00     0.068 N 
ENDROOT
BRANCH   1   4
HETATM    4  C2  LIG X 999      42.573 128.420  23.895  1.00  0.00     0.127 A 
HETATM    5  C1  LIG X 999      43.923 128.273  23.522  1.00  0.00     0.049 A 
HETATM    6  C11 LIG X 999      44.428 127.017  23.165  1.00  0.00    -0.023 A 
HETATM    7  C6  LIG X 999      43.569 125.884  23.181  1.00  0.00    -0.022 A 
HETATM    8  C10 LIG X 999      45.778 126.869  22.789  1.00  0.00     0.021 A 
HETATM    9  C5  LIG X 999      42.227 126.036  23.552  1.00  0.00     0.051 A 
HETATM   10  C7  LIG X 999      44.074 124.618  22.819  1.00  0.00     0.021 A 
HETATM   11  C3  LIG X 999      41.723 127.301  23.911  1.00  0.00     0.100 A 
HETATM   12  C8  LIG X 999      45.419 124.512  22.460  1.00  0.00    -0.024 A 
HETATM   13  C9  LIG X 999      46.240 125.597  22.446  1.00  0.00    -0.024 A 
HETATM   14  C15 LIG X 999      46.150 123.301  22.027  1.00  0.00     0.276 C 
HETATM   15  C12 LIG X 999      47.598 125.215  22.002  1.00  0.00     0.276 C 
HETATM   16  N4  LIG X 999      47.581 123.721  21.891  1.00  0.00    -0.067 N 
HETATM   17  C13 LIG X 999      48.389 123.123  22.980  1.00  0.00     0.272 C 
HETATM   18  C14 LIG X 999      48.132 123.286  20.588  1.00  0.00     0.272 C 
BRANCH  11  19
HETATM   19  O1  LIG X 999      40.383 127.487  24.289  1.00  0.00    -0.353 OA
HETATM   20  C4  LIG X 999      39.317 126.607  23.946  1.00  0.00     0.210 C 
ENDBRANCH  11  19
ENDBRANCH   1   4
TORSDOF 2
ENDMDL
MODEL 6
REMARK VINA RESULT:      -5.2      4.865      7.152
REMARK  2 active torsions:
REMARK  status: ('A' for Active; 'I' for Inactive)
REMARK    1  A    between atoms: C2_2  and  N1_3 
REMARK    2  A    between atoms: C3_6  and  O1_7 
ROOT
HETATM    1  N1  LIG X 999      44.350 131.656  21.216  1.00  0.00    -0.070 NA
HETATM    2  N2  LIG X 999      43.737 131.778  20.154  1.00  0.00    -0.162 NA
HETATM    3  N3  LIG X 999      43.126 131.903  19.093  1.00  0.00     0.068 N 
ENDROOT
BRANCH   1   4
HETATM    4  C2  LIG X 999      44.300 130.454  22.000  1.00  0.00     0.127 A 
HETATM    5  C1  LIG X 999      45.002 129.298  21.612  1.00  0.00     0.049 A 
HETATM    6  C11 LIG X 999      44.941 128.135  22.390  1.00  0.00    -0.023 A 
HETATM    7  C6  LIG X 999      44.165 128.126  23.581  1.00  0.00    -0.022 A 
HETATM    8  C10 LIG X 999      45.641 126.975  22.000  1.00  0.00     0.021 A 
HETATM    9  C5  LIG X 999      43.468 129.280  23.962  1.00  0.00     0.051 A 
HETATM   10  C7  LIG X 999      44.099 126.957  24.365  1.00  0.00     0.021 A 
HETATM   11  C3  LIG X 999      43.532 130.448  23.177  1.00  0.00     0.100 A 
HETATM   12  C8  LIG X 999      44.813 125.831  23.949  1.00  0.00    -0.024 A 
HETATM   13  C9  LIG X 999      45.557 125.840  22.809  1.00  0.00    -0.024 A 
HETATM   14  C15 LIG X 999      44.871 124.503  24.596  1.00  0.00     0.276 C 
HETATM   15  C12 LIG X 999      46.182 124.519  22.586  1.00  0.00     0.276 C 
HETATM   16  N4  LIG X 999      45.876 123.716  23.812  1.00  0.00    -0.067 N 
HETATM   17  C13 LIG X 999      47.107 123.525  24.614  1.00  0.00     0.272 C 
HETATM   18  C14 LIG X 999      45.329 122.390  23.446  1.00  0.00     0.272 C 
BRANCH  11  19
HETATM   19  O1  LIG X 999      42.846 131.620  23.534  1.00  0.00    -0.353 OA
HETATM   20  C4  LIG X 999      43.199 132.464  24.625  1.00  0.00     0.210 C 
ENDBRANCH  11  19
ENDBRANCH   1   4
TORSDOF 2
ENDMDL
MODEL 7
REMARK VINA RESULT:      -5.1      8.535      9.311
REMARK  2 active torsions:
REMARK  status: ('A' for Active; 'I' for Inactive)
REMARK    1  A    between atoms: C2_2  and  N1_3 
REMARK    2  A    between atoms: C3_6  and  O1_7 
ROOT
HETATM    1  N1  LIG X 999      52.568 124.015  19.900  1.00  0.00    -0.070 NA
HETATM    2  N2  LIG X 999      52.669 124.279  18.700  1.00  0.00    -0.162 NA
HETATM    3  N3  LIG X 999      52.772 124.539  17.502  1.00  0.00     0.068 N 
ENDROOT
BRANCH   1   4
HETATM    4  C2  LIG X 999      51.372 124.284  20.649  1.00  0.00     0.127 A 
HETATM    5  C1  LIG X 999      50.193 123.546  20.432  1.00  0.00     0.049 A 
HETATM    6  C11 LIG X 999      49.037 123.822  21.173  1.00  0.00    -0.023 A 
HETATM    7  C6  LIG X 999      49.058 124.854  22.151  1.00  0.00    -0.022 A 
HETATM    8  C10 LIG X 999      47.854 123.087  20.955  1.00  0.00     0.021 A 
HETATM    9  C5  LIG X 999      50.234 125.585  22.362  1.00  0.00     0.051 A 
HETATM   10  C7  LIG X 999      47.895 125.136  22.896  1.00  0.00     0.021 A 
HETATM   11  C3  LIG X 999      51.395 125.304  21.615  1.00  0.00     0.100 A 
HETATM   12  C8  LIG X 999      46.746 124.380  22.655  1.00  0.00    -0.024 A 
HETATM   13  C9  LIG X 999      46.727 123.391  21.720  1.00  0.00    -0.024 A 
HETATM   14  C15 LIG X 999      45.421 124.515  23.296  1.00  0.00     0.276 C 
HETATM   15  C12 LIG X 999      45.386 122.772  21.646  1.00  0.00     0.276 C 
HETATM   16  N4  LIG X 999      44.599 123.380  22.766  1.00  0.00    -0.067 N 
HETATM   17  C13 LIG X 999      44.376 122.375  23.832  1.00  0.00     0.272 C 
HETATM   18  C14 LIG X 999      43.288 123.866  22.280  1.00  0.00     0.272 C 
BRANCH  11  19
HETATM   19  O1  LIG X 999      52.590 126.018  21.804  1.00  0.00    -0.353 OA
HETATM   20  C4  LIG X 999      52.836 126.911  22.884  1.00  0.00     0.210 C 
ENDBRANCH  11  19
ENDBRANCH   1   4
TORSDOF 2
ENDMDL
MODEL 8
REMARK VINA RESULT:      -5.0      4.572      7.053
REMARK  2 active torsions:
REMARK  status: ('A' for Active; 'I' for Inactive)
REMARK    1  A    between atoms: C2_2  and  N1_3 
REMARK    2  A    between atoms: C3_6  and  O1_7 
ROOT
HETATM    1  N1  LIG X 999      42.904 131.844  22.663  1.00  0.00    -0.070 NA
HETATM    2  N2  LIG X 999      42.297 132.363  21.726  1.00  0.00    -0.162 NA
HETATM    3  N3  LIG X 999      41.691 132.885  20.790  1.00  0.00     0.068 N 
ENDROOT
BRANCH   1   4
HETATM    4  C2  LIG X 999      43.551 130.567  22.549  1.00  0.00     0.127 A 
HETATM    5  C1  LIG X 999      43.035 129.426  23.193  1.00  0.00     0.049 A 
HETATM    6  C11 LIG X 999      43.679 128.189  23.069  1.00  0.00    -0.023 A 
HETATM    7  C6  LIG X 999      44.862 128.087  22.286  1.00  0.00    -0.022 A 
HETATM    8  C10 LIG X 999      43.167 127.047  23.716  1.00  0.00     0.021 A 
HETATM    9  C5  LIG X 999      45.370 129.226  21.648  1.00  0.00     0.051 A 
HETATM   10  C7  LIG X 999      45.514 126.844  22.162  1.00  0.00     0.021 A 
HETATM   11  C3  LIG X 999      44.719 130.468  21.774  1.00  0.00     0.100 A 
HETATM   12  C8  LIG X 999      44.970 125.735  22.811  1.00  0.00    -0.024 A 
HETATM   13  C9  LIG X 999      43.838 125.832  23.561  1.00  0.00    -0.024 A 
HETATM   14  C15 LIG X 999      45.493 124.352  22.839  1.00  0.00     0.276 C 
HETATM   15  C12 LIG X 999      43.497 124.524  24.160  1.00  0.00     0.276 C 
HETATM   16  N4  LIG X 999      44.462 123.545  23.566  1.00  0.00    -0.067 N 
HETATM   17  C13 LIG X 999      43.757 122.650  22.618  1.00  0.00     0.272 C 
HETATM   18  C14 LIG X 999      45.092 122.725  24.625  1.00  0.00     0.272 C 
BRANCH  11  19
HETATM   19  O1  LIG X 999      45.203 131.628  21.146  1.00  0.00    -0.353 OA
HETATM   20  C4  LIG X 999      45.015 131.940  19.770  1.00  0.00     0.210 C 
ENDBRANCH  11  19
ENDBRANCH   1   4
TORSDOF 2
ENDMDL
MODEL 9
REMARK VINA RESULT:      -5.0      8.093     10.319
REMARK  2 active torsions:
REMARK  status: ('A' for Active; 'I' for Inactive)
REMARK    1  A    between atoms: C2_2  and  N1_3 
REMARK    2  A    between atoms: C3_6  and  O1_7 
ROOT
HETATM    1  N1  LIG X 999      39.701 126.488  24.531  1.00  0.00    -0.070 NA
HETATM    2  N2  LIG X 999      38.710 126.702  23.833  1.00  0.00    -0.162 NA
HETATM    3  N3  LIG X 999      37.719 126.920  23.136  1.00  0.00     0.068 N 
ENDROOT
BRANCH   1   4
HETATM    4  C2  LIG X 999      40.755 125.601  24.122  1.00  0.00     0.127 A 
HETATM    5  C1  LIG X 999      42.019 126.093  23.747  1.00  0.00     0.049 A 
HETATM    6  C11 LIG X 999      43.034 125.214  23.351  1.00  0.00    -0.023 A 
HETATM    7  C6  LIG X 999      42.783 123.814  23.329  1.00  0.00    -0.022 A 
HETATM    8  C10 LIG X 999      44.300 125.704  22.972  1.00  0.00     0.021 A 
HETATM    9  C5  LIG X 999      41.522 123.331  23.702  1.00  0.00     0.051 A 
HETATM   10  C7  LIG X 999      43.801 122.926  22.928  1.00  0.00     0.021 A 
HETATM   11  C3  LIG X 999      40.504 124.219  24.101  1.00  0.00     0.100 A 
HETATM   12  C8  LIG X 999      45.044 123.451  22.568  1.00  0.00    -0.024 A 
HETATM   13  C9  LIG X 999      45.284 124.791  22.590  1.00  0.00    -0.024 A 
HETATM   14  C15 LIG X 999      46.238 122.717  22.098  1.00  0.00     0.276 C 
HETATM   15  C12 LIG X 999      46.662 125.079  22.136  1.00  0.00     0.276 C 
HETATM   16  N4  LIG X 999      47.322 123.744  21.978  1.00  0.00    -0.067 N 
HETATM   17  C13 LIG X 999      48.328 123.545  23.049  1.00  0.00     0.272 C 
HETATM   18  C14 LIG X 999      47.993 123.644  20.663  1.00  0.00     0.272 C 
BRANCH  11  19
HETATM   19  O1  LIG X 999      39.230 123.765  24.482  1.00  0.00    -0.353 OA
HETATM   20  C4  LIG X 999      38.688 122.495  24.137  1.00  0.00     0.210 C 
ENDBRANCH  11  19
ENDBRANCH   1   4
TORSDOF 2
ENDMDL
