REMARK VINA RESULT:      -6.7      2.875      6.018
REMARK  1 active torsions:
REMARK  status: ('A' for Active; 'I' for Inactive)
REMARK    1  A    between atoms: C11_13  and  N2_14 
ROOT
HETATM    1  N2  LIG X 999      44.601 131.364  22.841  1.00  0.00    -0.053 NA
HETATM    2  N3  LIG X 999      43.718 130.823  23.506  1.00  0.00    -0.160 NA
HETATM    3  N4  LIG X 999      42.841 130.287  24.181  1.00  0.00     0.068 N 
ENDROOT
BRANCH   1   4
HETATM    4  C11 LIG X 999      44.642 131.301  21.410  1.00  0.00     0.175 A 
HETATM    5  C10 LIG X 999      43.665 131.742  20.509  1.00  0.00     0.026 A 
HETATM    6  C5  LIG X 999      44.175 131.458  19.284  1.00  0.00     0.017 A 
HETATM    7  C9  LIG X 999      42.409 132.349  20.618  1.00  0.00     0.016 A 
HETATM    8  C4  LIG X 999      45.390 130.878  19.422  1.00  0.00     0.046 A 
HETATM    9  C6  LIG X 999      43.547 131.723  18.088  1.00  0.00     0.005 A 
HETATM   10  C3  LIG X 999      46.168 130.466  18.240  1.00  0.00     0.033 A 
HETATM   11  N5  LIG X 999      45.697 130.771  20.732  1.00  0.00    -0.337 N 
HETATM   12  C2  LIG X 999      45.637 130.683  17.014  1.00  0.00     0.034 A 
HETATM   13  C1  LIG X 999      44.286 131.328  16.859  1.00  0.00     0.059 A 
HETATM   14  N1  LIG X 999      43.778 131.536  15.687  1.00  0.00    -0.300 NA
HETATM   15  H1  LIG X 999      44.282 131.266  14.813  1.00  0.00     0.187 HD
HETATM   16  H7  LIG X 999      46.568 130.365  21.141  1.00  0.00     0.167 HD
HETATM   17  C7  LIG X 999      42.279 132.335  18.152  1.00  0.00     0.015 A 
HETATM   18  C8  LIG X 999      41.714 132.646  19.419  1.00  0.00     0.002 A 
ENDBRANCH   1   4
TORSDOF 1
