REMARK VINA RESULT:      -3.1      4.567      7.760
REMARK  4 active torsions:
REMARK  status: ('A' for Active; 'I' for Inactive)
REMARK    1  A    between atoms: C5_5  and  C6_6 
REMARK    2  A    between atoms: C7_7  and  C8_8 
REMARK    3  A    between atoms: C11_13  and  C12_14 
REMARK    4  A    between atoms: C13_18  and  N3_19 
ROOT
HETATM    1  N3  LIG X 999      45.431 131.395  18.212  1.00  0.00    -0.025 NA
HETATM    2  N4  LIG X 999      44.414 131.558  17.539  1.00  0.00    -0.158 NA
HETATM    3  N5  LIG X 999      43.397 131.723  16.865  1.00  0.00     0.068 N 
ENDROOT
BRANCH   1   4
HETATM    4  C13 LIG X 999      45.354 130.842  19.524  1.00  0.00     0.301 A 
HETATM    5  N2  LIG X 999      46.016 129.745  19.916  1.00  0.00    -0.236 N 
HETATM    6  N1  LIG X 999      45.702 129.532  21.183  1.00  0.00    -0.149 NA
HETATM    7  H11 LIG X 999      46.660 129.151  19.347  1.00  0.00     0.193 HD
HETATM    8  C12 LIG X 999      44.853 130.530  21.522  1.00  0.00     0.182 A 
HETATM    9  O3  LIG X 999      44.630 131.332  20.500  1.00  0.00    -0.257 OA
BRANCH   8  10
HETATM   10  C11 LIG X 999      44.200 130.668  22.883  1.00  0.00     0.054 C 
HETATM   11  C3  LIG X 999      42.658 130.394  22.784  1.00  0.00     0.030 C 
HETATM   12  C2  LIG X 999      41.927 130.906  24.008  1.00  0.00    -0.021 C 
HETATM   13  C4  LIG X 999      42.349 128.905  22.524  1.00  0.00     0.027 C 
HETATM   14  C1  LIG X 999      42.341 132.016  24.624  1.00  0.00    -0.004 C 
HETATM   15  C15 LIG X 999      43.587 132.684  24.211  1.00  0.00    -0.003 C 
HETATM   16  C14 LIG X 999      44.437 132.088  23.365  1.00  0.00    -0.008 C 
HETATM   17  C5  LIG X 999      43.011 127.991  23.569  1.00  0.00     0.066 C 
HETATM   18  C9  LIG X 999      44.528 128.223  23.608  1.00  0.00     0.019 C 
HETATM   19  C10 LIG X 999      44.850 129.695  23.906  1.00  0.00     0.024 C 
BRANCH  17  20
HETATM   20  C6  LIG X 999      42.728 126.582  23.256  1.00  0.00    -0.090 C 
HETATM   21  C7  LIG X 999      42.497 125.427  23.000  1.00  0.00     0.005 C 
BRANCH  21  22
HETATM   22  C8  LIG X 999      42.220 124.053  22.697  1.00  0.00     0.258 C 
HETATM   23  O1  LIG X 999      41.960 123.244  23.625  1.00  0.00    -0.637 OA
HETATM   24  O2  LIG X 999      42.241 123.615  21.380  1.00  0.00    -0.637 OA
ENDBRANCH  21  22
ENDBRANCH  17  20
ENDBRANCH   8  10
ENDBRANCH   1   4
TORSDOF 4
