REMARK VINA RESULT:      -4.1      7.496      9.978
REMARK  4 active torsions:
REMARK  status: ('A' for Active; 'I' for Inactive)
REMARK    1  A    between atoms: C5_5  and  C6_6 
REMARK    2  A    between atoms: C7_7  and  C8_8 
REMARK    3  A    between atoms: C11_13  and  C12_14 
REMARK    4  A    between atoms: C13_18  and  N3_19 
ROOT
HETATM    1  N3  LIG X 999      48.228 135.209  22.099  1.00  0.00    -0.025 NA
HETATM    2  N4  LIG X 999      48.817 135.919  21.284  1.00  0.00    -0.158 NA
HETATM    3  N5  LIG X 999      49.405 136.630  20.469  1.00  0.00     0.068 N 
ENDROOT
BRANCH   1   4
HETATM    4  C13 LIG X 999      47.692 133.947  21.709  1.00  0.00     0.301 A 
HETATM    5  N2  LIG X 999      48.439 132.881  21.388  1.00  0.00    -0.236 N 
HETATM    6  N1  LIG X 999      47.606 131.900  21.080  1.00  0.00    -0.149 NA
HETATM    7  H11 LIG X 999      49.480 132.814  21.371  1.00  0.00     0.193 HD
HETATM    8  C12 LIG X 999      46.364 132.413  21.237  1.00  0.00     0.182 A 
HETATM    9  O3  LIG X 999      46.414 133.674  21.615  1.00  0.00    -0.257 OA
BRANCH   8  10
HETATM   10  C11 LIG X 999      45.084 131.649  20.956  1.00  0.00     0.054 C 
HETATM   11  C3  LIG X 999      44.274 132.339  19.803  1.00  0.00     0.030 C 
HETATM   12  C2  LIG X 999      42.839 131.854  19.771  1.00  0.00    -0.021 C 
HETATM   13  C4  LIG X 999      44.958 132.167  18.431  1.00  0.00     0.027 C 
HETATM   14  C1  LIG X 999      42.205 131.552  20.907  1.00  0.00    -0.004 C 
HETATM   15  C15 LIG X 999      42.924 131.555  22.192  1.00  0.00    -0.003 C 
HETATM   16  C14 LIG X 999      44.260 131.647  22.231  1.00  0.00    -0.008 C 
HETATM   17  C5  LIG X 999      45.236 130.689  18.109  1.00  0.00     0.066 C 
HETATM   18  C9  LIG X 999      46.086 130.045  19.214  1.00  0.00     0.019 C 
HETATM   19  C10 LIG X 999      45.397 130.173  20.580  1.00  0.00     0.024 C 
BRANCH  17  20
HETATM   20  C6  LIG X 999      45.928 130.578  16.816  1.00  0.00    -0.090 C 
HETATM   21  C7  LIG X 999      46.495 130.489  15.756  1.00  0.00     0.005 C 
BRANCH  21  22
HETATM   22  C8  LIG X 999      47.171 130.383  14.495  1.00  0.00     0.258 C 
HETATM   23  O1  LIG X 999      47.700 129.294  14.153  1.00  0.00    -0.637 OA
HETATM   24  O2  LIG X 999      47.242 131.484  13.652  1.00  0.00    -0.637 OA
ENDBRANCH  21  22
ENDBRANCH  17  20
ENDBRANCH   8  10
ENDBRANCH   1   4
TORSDOF 4
