REMARK VINA RESULT:      -6.6      1.505      2.097
REMARK  4 active torsions:
REMARK  status: ('A' for Active; 'I' for Inactive)
REMARK    1  A    between atoms: C1_1  and  C2_6 
REMARK    2  A    between atoms: N1_2  and  N2_3 
REMARK    3  A    between atoms: C2_6  and  C3_8 
REMARK    4  A    between atoms: C11_16  and  N4_17 
ROOT
HETATM    1  N4  LIG X 999      45.747 130.079  19.104  1.00  0.00    -0.105 NA
HETATM    2  N5  LIG X 999      45.601 129.753  20.283  1.00  0.00    -0.167 NA
HETATM    3  N6  LIG X 999      45.453 129.428  21.460  1.00  0.00     0.068 N 
ENDROOT
BRANCH   1   4
HETATM    4  C11 LIG X 999      45.517 131.452  18.662  1.00  0.00     0.179 C 
HETATM    5  C10 LIG X 999      44.118 131.865  19.065  1.00  0.00    -0.024 A 
HETATM    6  C5  LIG X 999      43.047 131.880  18.137  1.00  0.00    -0.049 A 
HETATM    7  C9  LIG X 999      43.860 132.151  20.418  1.00  0.00     0.010 A 
HETATM    8  C4  LIG X 999      43.273 131.659  16.660  1.00  0.00     0.051 C 
HETATM    9  C6  LIG X 999      41.757 132.220  18.578  1.00  0.00     0.007 A 
HETATM   10  C3  LIG X 999      44.590 130.923  16.367  1.00  0.00     0.068 C 
HETATM   11  C12 LIG X 999      45.742 131.579  17.144  1.00  0.00     0.048 C 
HETATM   12  C7  LIG X 999      41.520 132.508  19.923  1.00  0.00     0.001 A 
HETATM   13  C8  LIG X 999      42.569 132.472  20.842  1.00  0.00     0.001 A 
BRANCH  10  14
HETATM   14  C2  LIG X 999      44.870 130.924  14.884  1.00  0.00     0.172 C 
HETATM   15  O1  LIG X 999      43.957 131.234  14.071  1.00  0.00    -0.291 OA
BRANCH  14  16
HETATM   16  C1  LIG X 999      46.194 130.532  14.376  1.00  0.00     0.190 C 
HETATM   17  N1  LIG X 999      46.656 129.342  14.599  1.00  0.00    -0.165 NA
BRANCH  17  18
HETATM   18  N2  LIG X 999      47.914 128.939  14.129  1.00  0.00    -0.177 N 
HETATM   19  H2  LIG X 999      48.377 128.078  14.503  1.00  0.00     0.214 HD
HETATM   20  N3  LIG X 999      48.502 129.623  13.238  1.00  0.00    -0.031 N 
ENDBRANCH  17  18
ENDBRANCH  14  16
ENDBRANCH  10  14
ENDBRANCH   1   4
TORSDOF 4
