REMARK VINA RESULT:      -7.2      3.566      5.959
REMARK  1 active torsions:
REMARK  status: ('A' for Active; 'I' for Inactive)
REMARK    1  A    between atoms: C10_11  and  N2_12 
ROOT
HETATM    1  N2  LIG X 999      44.903 131.441  14.401  1.00  0.00    -0.052 NA
HETATM    2  N3  LIG X 999      46.003 131.162  13.921  1.00  0.00    -0.160 NA
HETATM    3  N4  LIG X 999      47.100 130.884  13.439  1.00  0.00     0.068 N 
ENDROOT
BRANCH   1   4
HETATM    4  C10 LIG X 999      44.676 131.399  15.812  1.00  0.00     0.186 C 
HETATM    5  N1  LIG X 999      43.512 131.852  16.337  1.00  0.00    -0.226 NA
HETATM    6  C9  LIG X 999      43.267 131.847  17.673  1.00  0.00     0.071 C 
HETATM    7  C8  LIG X 999      42.016 132.270  18.120  1.00  0.00     0.033 C 
HETATM    8  C14 LIG X 999      44.258 131.397  18.592  1.00  0.00     0.010 C 
HETATM    9  C7  LIG X 999      41.714 132.275  19.474  1.00  0.00     0.014 C 
HETATM   10  C5  LIG X 999      42.697 131.962  20.417  1.00  0.00    -0.025 C 
HETATM   11  C4  LIG X 999      44.005 131.583  19.993  1.00  0.00    -0.013 C 
HETATM   12  C6  LIG X 999      42.397 132.078  21.783  1.00  0.00     0.012 C 
HETATM   13  C3  LIG X 999      45.012 131.515  20.985  1.00  0.00     0.013 C 
HETATM   14  C2  LIG X 999      44.702 131.648  22.341  1.00  0.00     0.001 C 
HETATM   15  C1  LIG X 999      43.393 131.900  22.740  1.00  0.00     0.001 C 
HETATM   16  C12 LIG X 999      45.412 130.758  18.032  1.00  0.00    -0.045 C 
HETATM   17  C11 LIG X 999      45.632 130.832  16.646  1.00  0.00     0.063 C 
HETATM   18  C13 LIG X 999      46.354 129.868  18.806  1.00  0.00     0.049 C 
ENDBRANCH   1   4
TORSDOF 1
