REMARK VINA RESULT:      -7.1      1.689      6.232
REMARK  1 active torsions:
REMARK  status: ('A' for Active; 'I' for Inactive)
REMARK    1  A    between atoms: C11_13  and  N2_14 
ROOT
HETATM    1  N2  LIG X 999      41.874 132.854  20.494  1.00  0.00    -0.053 NA
HETATM    2  N3  LIG X 999      42.008 132.516  21.671  1.00  0.00    -0.160 NA
HETATM    3  N4  LIG X 999      42.141 132.178  22.846  1.00  0.00     0.068 N 
ENDROOT
BRANCH   1   4
HETATM    4  C11 LIG X 999      42.712 132.316  19.470  1.00  0.00     0.175 A 
HETATM    5  C10 LIG X 999      43.932 131.693  19.685  1.00  0.00     0.026 A 
HETATM    6  C5  LIG X 999      44.374 131.346  18.453  1.00  0.00     0.017 A 
HETATM    7  C9  LIG X 999      44.690 131.399  20.818  1.00  0.00     0.016 A 
HETATM    8  C4  LIG X 999      43.465 131.738  17.527  1.00  0.00     0.046 A 
HETATM    9  C6  LIG X 999      45.561 130.695  18.194  1.00  0.00     0.005 A 
HETATM   10  C3  LIG X 999      43.694 131.484  16.096  1.00  0.00     0.033 A 
HETATM   11  N5  LIG X 999      42.422 132.344  18.137  1.00  0.00    -0.337 N 
HETATM   12  C2  LIG X 999      44.832 130.850  15.731  1.00  0.00     0.034 A 
HETATM   13  C1  LIG X 999      45.843 130.413  16.753  1.00  0.00     0.059 A 
HETATM   14  N1  LIG X 999      46.920 129.808  16.363  1.00  0.00    -0.300 NA
HETATM   15  H1  LIG X 999      47.661 129.479  17.019  1.00  0.00     0.187 HD
HETATM   16  H7  LIG X 999      41.575 132.748  17.678  1.00  0.00     0.167 HD
HETATM   17  C7  LIG X 999      46.363 130.377  19.315  1.00  0.00     0.015 A 
HETATM   18  C8  LIG X 999      45.923 130.730  20.622  1.00  0.00     0.002 A 
ENDBRANCH   1   4
TORSDOF 1
