MODEL 1
REMARK VINA RESULT:      -8.8      0.000      0.000
REMARK  3 active torsions:
REMARK  status: ('A' for Active; 'I' for Inactive)
REMARK    1  A    between atoms: C3_3  and  O1_4 
REMARK    2  A    between atoms: O1_4  and  C4_5 
REMARK    3  A    between atoms: C5_7  and  C6_8 
ROOT
HETATM    1  C1  LIG X 999      47.625 131.004  13.001  1.00  0.00     0.014 C 
HETATM    2  C2  LIG X 999      46.993 130.422  13.846  1.00  0.00    -0.091 C 
HETATM    3  C3  LIG X 999      46.224 129.718  14.874  1.00  0.00     0.270 C 
ENDROOT
BRANCH   3   4
HETATM    4  O1  LIG X 999      45.791 130.652  15.854  1.00  0.00    -0.317 OA
BRANCH   4   5
HETATM    5  C4  LIG X 999      44.591 131.357  15.739  1.00  0.00     0.217 C 
HETATM    6  O2  LIG X 999      44.081 131.672  14.483  1.00  0.00    -0.164 OA
HETATM    7  C5  LIG X 999      43.915 131.726  16.830  1.00  0.00     0.079 C 
BRANCH   7   8
HETATM    8  C6  LIG X 999      44.368 131.390  18.199  1.00  0.00    -0.020 A 
HETATM    9  C7  LIG X 999      45.577 130.690  18.325  1.00  0.00     0.012 A 
HETATM   10  C8  LIG X 999      46.093 130.380  19.583  1.00  0.00     0.002 A 
HETATM   11  C9  LIG X 999      45.408 130.755  20.737  1.00  0.00     0.012 A 
HETATM   12  C10 LIG X 999      44.180 131.426  20.643  1.00  0.00    -0.025 A 
HETATM   13  C11 LIG X 999      43.481 131.777  21.809  1.00  0.00     0.012 A 
HETATM   14  C15 LIG X 999      43.638 131.738  19.366  1.00  0.00    -0.015 A 
HETATM   15  C12 LIG X 999      42.244 132.415  21.721  1.00  0.00     0.001 A 
HETATM   16  C13 LIG X 999      41.688 132.698  20.474  1.00  0.00     0.001 A 
HETATM   17  C14 LIG X 999      42.370 132.357  19.304  1.00  0.00     0.013 A 
ENDBRANCH   7   8
ENDBRANCH   4   5
ENDBRANCH   3   4
TORSDOF 3
ENDMDL
MODEL 2
REMARK VINA RESULT:      -8.8      1.853      6.495
REMARK  3 active torsions:
REMARK  status: ('A' for Active; 'I' for Inactive)
REMARK    1  A    between atoms: C3_3  and  O1_4 
REMARK    2  A    between atoms: O1_4  and  C4_5 
REMARK    3  A    between atoms: C5_7  and  C6_8 
ROOT
HETATM    1  C1  LIG X 999      41.616 132.166  19.007  1.00  0.00     0.014 C 
HETATM    2  C2  LIG X 999      42.716 132.184  19.500  1.00  0.00    -0.091 C 
HETATM    3  C3  LIG X 999      44.053 132.205  20.097  1.00  0.00     0.270 C 
ENDROOT
BRANCH   3   4
HETATM    4  O1  LIG X 999      45.009 131.844  19.110  1.00  0.00    -0.317 OA
BRANCH   4   5
HETATM    5  C4  LIG X 999      45.634 130.594  19.093  1.00  0.00     0.217 C 
HETATM    6  O2  LIG X 999      46.027 129.992  20.284  1.00  0.00    -0.164 OA
HETATM    7  C5  LIG X 999      45.850 129.960  17.938  1.00  0.00     0.079 C 
BRANCH   7   8
HETATM    8  C6  LIG X 999      45.421 130.513  16.634  1.00  0.00    -0.020 A 
HETATM    9  C7  LIG X 999      44.170 131.148  16.581  1.00  0.00     0.012 A 
HETATM   10  C8  LIG X 999      43.719 131.736  15.400  1.00  0.00     0.002 A 
HETATM   11  C9  LIG X 999      44.502 131.693  14.248  1.00  0.00     0.012 A 
HETATM   12  C10 LIG X 999      45.740 131.036  14.260  1.00  0.00    -0.025 A 
HETATM   13  C11 LIG X 999      46.512 130.973  13.089  1.00  0.00     0.012 A 
HETATM   14  C15 LIG X 999      46.208 130.423  15.455  1.00  0.00    -0.015 A 
HETATM   15  C12 LIG X 999      47.731 130.293  13.086  1.00  0.00     0.001 A 
HETATM   16  C13 LIG X 999      48.184 129.661  14.244  1.00  0.00     0.001 A 
HETATM   17  C14 LIG X 999      47.429 129.715  15.418  1.00  0.00     0.013 A 
ENDBRANCH   7   8
ENDBRANCH   4   5
ENDBRANCH   3   4
TORSDOF 3
ENDMDL
MODEL 3
REMARK VINA RESULT:      -8.1      1.043      2.491
REMARK  3 active torsions:
REMARK  status: ('A' for Active; 'I' for Inactive)
REMARK    1  A    between atoms: C3_3  and  O1_4 
REMARK    2  A    between atoms: O1_4  and  C4_5 
REMARK    3  A    between atoms: C5_7  and  C6_8 
ROOT
HETATM    1  C1  LIG X 999      47.591 131.052  13.002  1.00  0.00     0.014 C 
HETATM    2  C2  LIG X 999      46.522 131.043  13.559  1.00  0.00    -0.091 C 
HETATM    3  C3  LIG X 999      45.225 131.033  14.238  1.00  0.00     0.270 C 
ENDROOT
BRANCH   3   4
HETATM    4  O1  LIG X 999      45.412 131.379  15.604  1.00  0.00    -0.317 OA
BRANCH   4   5
HETATM    5  C4  LIG X 999      46.119 130.567  16.494  1.00  0.00     0.217 C 
HETATM    6  O2  LIG X 999      47.285 129.928  16.084  1.00  0.00    -0.164 OA
HETATM    7  C5  LIG X 999      45.691 130.404  17.748  1.00  0.00     0.079 C 
BRANCH   7   8
HETATM    8  C6  LIG X 999      44.486 131.084  18.273  1.00  0.00    -0.020 A 
HETATM    9  C7  LIG X 999      43.564 131.579  17.338  1.00  0.00     0.012 A 
HETATM   10  C8  LIG X 999      42.382 132.188  17.757  1.00  0.00     0.002 A 
HETATM   11  C9  LIG X 999      42.103 132.325  19.115  1.00  0.00     0.012 A 
HETATM   12  C10 LIG X 999      43.020 131.872  20.073  1.00  0.00    -0.025 A 
HETATM   13  C11 LIG X 999      42.745 132.037  21.440  1.00  0.00     0.012 A 
HETATM   14  C15 LIG X 999      44.234 131.258  19.661  1.00  0.00    -0.015 A 
HETATM   15  C12 LIG X 999      43.669 131.618  22.399  1.00  0.00     0.001 A 
HETATM   16  C13 LIG X 999      44.876 131.043  22.004  1.00  0.00     0.001 A 
HETATM   17  C14 LIG X 999      45.165 130.871  20.649  1.00  0.00     0.013 A 
ENDBRANCH   7   8
ENDBRANCH   4   5
ENDBRANCH   3   4
TORSDOF 3
ENDMDL
MODEL 4
REMARK VINA RESULT:      -7.1      2.446      5.868
REMARK  3 active torsions:
REMARK  status: ('A' for Active; 'I' for Inactive)
REMARK    1  A    between atoms: C3_3  and  O1_4 
REMARK    2  A    between atoms: O1_4  and  C4_5 
REMARK    3  A    between atoms: C5_7  and  C6_8 
ROOT
HETATM    1  C1  LIG X 999      44.254 129.224  22.800  1.00  0.00     0.014 C 
HETATM    2  C2  LIG X 999      43.715 130.272  22.546  1.00  0.00    -0.091 C 
HETATM    3  C3  LIG X 999      43.060 131.544  22.235  1.00  0.00     0.270 C 
ENDROOT
BRANCH   3   4
HETATM    4  O1  LIG X 999      43.479 131.981  20.950  1.00  0.00    -0.317 OA
BRANCH   4   5
HETATM    5  C4  LIG X 999      42.575 132.395  19.967  1.00  0.00     0.217 C 
HETATM    6  O2  LIG X 999      41.416 133.077  20.325  1.00  0.00    -0.164 OA
HETATM    7  C5  LIG X 999      42.819 132.152  18.677  1.00  0.00     0.079 C 
BRANCH   7   8
HETATM    8  C6  LIG X 999      44.050 131.474  18.213  1.00  0.00    -0.020 A 
HETATM    9  C7  LIG X 999      44.940 131.009  19.193  1.00  0.00     0.012 A 
HETATM   10  C8  LIG X 999      46.096 130.317  18.835  1.00  0.00     0.002 A 
HETATM   11  C9  LIG X 999      46.391 130.086  17.493  1.00  0.00     0.012 A 
HETATM   12  C10 LIG X 999      45.539 130.569  16.489  1.00  0.00    -0.025 A 
HETATM   13  C11 LIG X 999      45.856 130.357  15.138  1.00  0.00     0.012 A 
HETATM   14  C15 LIG X 999      44.362 131.285  16.840  1.00  0.00    -0.015 A 
HETATM   15  C12 LIG X 999      45.030 130.863  14.134  1.00  0.00     0.001 A 
HETATM   16  C13 LIG X 999      43.889 131.593  14.467  1.00  0.00     0.001 A 
HETATM   17  C14 LIG X 999      43.559 131.813  15.806  1.00  0.00     0.013 A 
ENDBRANCH   7   8
ENDBRANCH   4   5
ENDBRANCH   3   4
TORSDOF 3
ENDMDL
MODEL 5
REMARK VINA RESULT:      -7.1      3.528      6.916
REMARK  3 active torsions:
REMARK  status: ('A' for Active; 'I' for Inactive)
REMARK    1  A    between atoms: C3_3  and  O1_4 
REMARK    2  A    between atoms: O1_4  and  C4_5 
REMARK    3  A    between atoms: C5_7  and  C6_8 
ROOT
HETATM    1  C1  LIG X 999      41.957 126.556  23.763  1.00  0.00     0.014 C 
HETATM    2  C2  LIG X 999      41.928 127.760  23.824  1.00  0.00    -0.091 C 
HETATM    3  C3  LIG X 999      41.893 129.222  23.895  1.00  0.00     0.270 C 
ENDROOT
BRANCH   3   4
HETATM    4  O1  LIG X 999      42.708 129.758  22.862  1.00  0.00    -0.317 OA
BRANCH   4   5
HETATM    5  C4  LIG X 999      43.896 130.446  23.125  1.00  0.00     0.217 C 
HETATM    6  O2  LIG X 999      44.624 130.170  24.278  1.00  0.00    -0.164 OA
HETATM    7  C5  LIG X 999      44.350 131.365  22.269  1.00  0.00     0.079 C 
BRANCH   7   8
HETATM    8  C6  LIG X 999      43.658 131.682  21.000  1.00  0.00    -0.020 A 
HETATM    9  C7  LIG X 999      42.390 132.278  21.086  1.00  0.00     0.012 A 
HETATM   10  C8  LIG X 999      41.697 132.650  19.935  1.00  0.00     0.002 A 
HETATM   11  C9  LIG X 999      42.252 132.426  18.677  1.00  0.00     0.012 A 
HETATM   12  C10 LIG X 999      43.501 131.801  18.556  1.00  0.00    -0.025 A 
HETATM   13  C11 LIG X 999      44.041 131.553  17.284  1.00  0.00     0.012 A 
HETATM   14  C15 LIG X 999      44.213 131.407  19.721  1.00  0.00    -0.015 A 
HETATM   15  C12 LIG X 999      45.269 130.903  17.157  1.00  0.00     0.001 A 
HETATM   16  C13 LIG X 999      45.961 130.484  18.293  1.00  0.00     0.001 A 
HETATM   17  C14 LIG X 999      45.439 130.723  19.565  1.00  0.00     0.013 A 
ENDBRANCH   7   8
ENDBRANCH   4   5
ENDBRANCH   3   4
TORSDOF 3
ENDMDL
MODEL 6
REMARK VINA RESULT:      -7.0      3.706      5.971
REMARK  3 active torsions:
REMARK  status: ('A' for Active; 'I' for Inactive)
REMARK    1  A    between atoms: C3_3  and  O1_4 
REMARK    2  A    between atoms: O1_4  and  C4_5 
REMARK    3  A    between atoms: C5_7  and  C6_8 
ROOT
HETATM    1  C1  LIG X 999      45.415 127.252  22.067  1.00  0.00     0.014 C 
HETATM    2  C2  LIG X 999      44.613 127.784  22.793  1.00  0.00    -0.091 C 
HETATM    3  C3  LIG X 999      43.638 128.432  23.672  1.00  0.00     0.270 C 
ENDROOT
BRANCH   3   4
HETATM    4  O1  LIG X 999      42.983 129.470  22.956  1.00  0.00    -0.317 OA
BRANCH   4   5
HETATM    5  C4  LIG X 999      42.969 130.795  23.401  1.00  0.00     0.217 C 
HETATM    6  O2  LIG X 999      42.390 131.117  24.624  1.00  0.00    -0.164 OA
HETATM    7  C5  LIG X 999      43.519 131.762  22.663  1.00  0.00     0.079 C 
BRANCH   7   8
HETATM    8  C6  LIG X 999      44.194 131.494  21.373  1.00  0.00    -0.020 A 
HETATM    9  C7  LIG X 999      45.508 131.005  21.421  1.00  0.00     0.012 A 
HETATM   10  C8  LIG X 999      46.191 130.682  20.249  1.00  0.00     0.002 A 
HETATM   11  C9  LIG X 999      45.580 130.852  19.008  1.00  0.00     0.012 A 
HETATM   12  C10 LIG X 999      44.280 131.371  18.926  1.00  0.00    -0.025 A 
HETATM   13  C11 LIG X 999      43.680 131.565  17.672  1.00  0.00     0.012 A 
HETATM   14  C15 LIG X 999      43.576 131.714  20.113  1.00  0.00    -0.015 A 
HETATM   15  C12 LIG X 999      42.399 132.112  17.582  1.00  0.00     0.001 A 
HETATM   16  C13 LIG X 999      41.713 132.481  18.739  1.00  0.00     0.001 A 
HETATM   17  C14 LIG X 999      42.294 132.294  19.994  1.00  0.00     0.013 A 
ENDBRANCH   7   8
ENDBRANCH   4   5
ENDBRANCH   3   4
TORSDOF 3
ENDMDL
MODEL 7
REMARK VINA RESULT:      -6.4      5.066      6.939
REMARK  3 active torsions:
REMARK  status: ('A' for Active; 'I' for Inactive)
REMARK    1  A    between atoms: C3_3  and  O1_4 
REMARK    2  A    between atoms: O1_4  and  C4_5 
REMARK    3  A    between atoms: C5_7  and  C6_8 
ROOT
HETATM    1  C1  LIG X 999      45.784 131.114  20.496  1.00  0.00     0.014 C 
HETATM    2  C2  LIG X 999      44.613 131.263  20.742  1.00  0.00    -0.091 C 
HETATM    3  C3  LIG X 999      43.192 131.442  21.044  1.00  0.00     0.270 C 
ENDROOT
BRANCH   3   4
HETATM    4  O1  LIG X 999      42.830 130.575  22.111  1.00  0.00    -0.317 OA
BRANCH   4   5
HETATM    5  C4  LIG X 999      43.291 130.760  23.417  1.00  0.00     0.217 C 
HETATM    6  O2  LIG X 999      43.180 132.004  24.030  1.00  0.00    -0.164 OA
HETATM    7  C5  LIG X 999      43.832 129.744  24.094  1.00  0.00     0.079 C 
BRANCH   7   8
HETATM    8  C6  LIG X 999      43.945 128.381  23.529  1.00  0.00    -0.020 A 
HETATM    9  C7  LIG X 999      45.087 128.088  22.768  1.00  0.00     0.012 A 
HETATM   10  C8  LIG X 999      45.287 126.812  22.244  1.00  0.00     0.002 A 
HETATM   11  C9  LIG X 999      44.347 125.807  22.461  1.00  0.00     0.012 A 
HETATM   12  C10 LIG X 999      43.179 126.077  23.187  1.00  0.00    -0.025 A 
HETATM   13  C11 LIG X 999      42.222 125.067  23.378  1.00  0.00     0.012 A 
HETATM   14  C15 LIG X 999      42.957 127.377  23.718  1.00  0.00    -0.015 A 
HETATM   15  C12 LIG X 999      41.043 125.339  24.073  1.00  0.00     0.001 A 
HETATM   16  C13 LIG X 999      40.801 126.619  24.570  1.00  0.00     0.001 A 
HETATM   17  C14 LIG X 999      41.742 127.635  24.390  1.00  0.00     0.013 A 
ENDBRANCH   7   8
ENDBRANCH   4   5
ENDBRANCH   3   4
TORSDOF 3
ENDMDL
MODEL 8
REMARK VINA RESULT:      -6.3      4.709      7.262
REMARK  3 active torsions:
REMARK  status: ('A' for Active; 'I' for Inactive)
REMARK    1  A    between atoms: C3_3  and  O1_4 
REMARK    2  A    between atoms: O1_4  and  C4_5 
REMARK    3  A    between atoms: C5_7  and  C6_8 
ROOT
HETATM    1  C1  LIG X 999      41.986 124.012  21.448  1.00  0.00     0.014 C 
HETATM    2  C2  LIG X 999      42.157 124.755  22.382  1.00  0.00    -0.091 C 
HETATM    3  C3  LIG X 999      42.365 125.659  23.514  1.00  0.00     0.270 C 
ENDROOT
BRANCH   3   4
HETATM    4  O1  LIG X 999      43.139 126.771  23.086  1.00  0.00    -0.317 OA
BRANCH   4   5
HETATM    5  C4  LIG X 999      44.471 126.951  23.468  1.00  0.00     0.217 C 
HETATM    6  O2  LIG X 999      45.263 125.851  23.781  1.00  0.00    -0.164 OA
HETATM    7  C5  LIG X 999      45.000 128.175  23.525  1.00  0.00     0.079 C 
BRANCH   7   8
HETATM    8  C6  LIG X 999      44.236 129.391  23.164  1.00  0.00    -0.020 A 
HETATM    9  C7  LIG X 999      43.200 129.783  24.026  1.00  0.00     0.012 A 
HETATM   10  C8  LIG X 999      42.469 130.944  23.778  1.00  0.00     0.002 A 
HETATM   11  C9  LIG X 999      42.750 131.728  22.662  1.00  0.00     0.012 A 
HETATM   12  C10 LIG X 999      43.756 131.344  21.764  1.00  0.00    -0.025 A 
HETATM   13  C11 LIG X 999      44.016 132.125  20.626  1.00  0.00     0.012 A 
HETATM   14  C15 LIG X 999      44.503 130.158  21.998  1.00  0.00    -0.015 A 
HETATM   15  C12 LIG X 999      44.993 131.731  19.712  1.00  0.00     0.001 A 
HETATM   16  C13 LIG X 999      45.710 130.552  19.916  1.00  0.00     0.001 A 
HETATM   17  C14 LIG X 999      45.465 129.765  21.043  1.00  0.00     0.013 A 
ENDBRANCH   7   8
ENDBRANCH   4   5
ENDBRANCH   3   4
TORSDOF 3
ENDMDL
MODEL 9
REMARK VINA RESULT:      -6.2      3.205      5.408
REMARK  3 active torsions:
REMARK  status: ('A' for Active; 'I' for Inactive)
REMARK    1  A    between atoms: C3_3  and  O1_4 
REMARK    2  A    between atoms: O1_4  and  C4_5 
REMARK    3  A    between atoms: C5_7  and  C6_8 
ROOT
HETATM    1  C1  LIG X 999      43.875 131.394  16.699  1.00  0.00     0.014 C 
HETATM    2  C2  LIG X 999      43.303 131.722  17.709  1.00  0.00    -0.091 C 
HETATM    3  C3  LIG X 999      42.612 132.119  18.936  1.00  0.00     0.270 C 
ENDROOT
BRANCH   3   4
HETATM    4  O1  LIG X 999      43.191 131.435  20.039  1.00  0.00    -0.317 OA
BRANCH   4   5
HETATM    5  C4  LIG X 999      44.459 131.750  20.535  1.00  0.00     0.217 C 
HETATM    6  O2  LIG X 999      45.352 132.482  19.759  1.00  0.00    -0.164 OA
HETATM    7  C5  LIG X 999      44.823 131.362  21.760  1.00  0.00     0.079 C 
BRANCH   7   8
HETATM    8  C6  LIG X 999      43.915 130.620  22.663  1.00  0.00    -0.020 A 
HETATM    9  C7  LIG X 999      42.945 131.361  23.356  1.00  0.00     0.012 A 
HETATM   10  C8  LIG X 999      42.023 130.727  24.187  1.00  0.00     0.002 A 
HETATM   11  C9  LIG X 999      42.057 129.344  24.350  1.00  0.00     0.012 A 
HETATM   12  C10 LIG X 999      43.036 128.580  23.699  1.00  0.00    -0.025 A 
HETATM   13  C11 LIG X 999      43.082 127.189  23.889  1.00  0.00     0.012 A 
HETATM   14  C15 LIG X 999      43.989 129.215  22.856  1.00  0.00    -0.015 A 
HETATM   15  C12 LIG X 999      44.073 126.428  23.269  1.00  0.00     0.001 A 
HETATM   16  C13 LIG X 999      45.032 127.045  22.466  1.00  0.00     0.001 A 
HETATM   17  C14 LIG X 999      45.000 128.427  22.265  1.00  0.00     0.013 A 
ENDBRANCH   7   8
ENDBRANCH   4   5
ENDBRANCH   3   4
TORSDOF 3
ENDMDL
