REMARK VINA RESULT:      -5.8      2.256      3.268
REMARK  6 active torsions:
REMARK  status: ('A' for Active; 'I' for Inactive)
REMARK    1  A    between atoms: O1_2  and  C2_3 
REMARK    2  A    between atoms: C2_3  and  C3_5 
REMARK    3  A    between atoms: C6_9  and  N1_10 
REMARK    4  A    between atoms: N1_10  and  C7_11 
REMARK    5  A    between atoms: C7_11  and  N2_13 
REMARK    6  A    between atoms: N2_13  and  C8_14 
ROOT
HETATM    1  C7  LIG X 999      44.709 129.906  22.140  1.00  0.00     0.278 C 
HETATM    2  S2  LIG X 999      45.413 128.647  21.353  1.00  0.00    -0.033 SA
ENDROOT
BRANCH   1   3
HETATM    3  N1  LIG X 999      44.591 129.853  23.574  1.00  0.00     0.012 N 
HETATM    4  H6  LIG X 999      44.514 130.834  23.932  1.00  0.00     0.293 HD
HETATM    5  H7  LIG X 999      45.442 129.423  24.003  1.00  0.00     0.293 HD
BRANCH   3   6
HETATM    6  C6  LIG X 999      43.432 129.088  23.959  1.00  0.00     0.164 A 
HETATM    7  C3  LIG X 999      43.453 127.731  24.321  1.00  0.00     0.114 A 
HETATM    8  S1  LIG X 999      41.866 127.257  24.625  1.00  0.00    -0.094 SA
HETATM    9  C4  LIG X 999      41.143 128.739  24.310  1.00  0.00     0.053 A 
HETATM   10  C5  LIG X 999      42.137 129.638  23.954  1.00  0.00     0.046 A 
BRANCH   7  11
HETATM   11  C2  LIG X 999      44.611 126.823  24.411  1.00  0.00     0.302 C 
HETATM   12  O2  LIG X 999      45.757 127.303  24.625  1.00  0.00    -0.259 OA
BRANCH  11  13
HETATM   13  O1  LIG X 999      44.449 125.443  24.261  1.00  0.00    -0.322 OA
HETATM   14  C1  LIG X 999      44.783 124.755  23.064  1.00  0.00     0.213 C 
ENDBRANCH  11  13
ENDBRANCH   7  11
ENDBRANCH   3   6
ENDBRANCH   1   3
BRANCH   1  15
HETATM   15  N2  LIG X 999      44.565 131.163  21.458  1.00  0.00    -0.327 N 
HETATM   16  H8  LIG X 999      44.604 132.036  22.031  1.00  0.00     0.168 HD
BRANCH  15  17
HETATM   17  C8  LIG X 999      44.318 131.282  20.047  1.00  0.00     0.035 A 
HETATM   18  C9  LIG X 999      43.099 131.786  19.558  1.00  0.00     0.030 A 
HETATM   19  C10 LIG X 999      42.885 131.920  18.184  1.00  0.00     0.014 A 
HETATM   20  C11 LIG X 999      43.892 131.564  17.276  1.00  0.00    -0.026 A 
HETATM   21  C12 LIG X 999      43.688 131.696  15.893  1.00  0.00     0.012 A 
HETATM   22  C16 LIG X 999      45.130 131.075  17.758  1.00  0.00    -0.024 A 
HETATM   23  C13 LIG X 999      44.703 131.343  14.998  1.00  0.00     0.001 A 
HETATM   24  C14 LIG X 999      45.924 130.861  15.475  1.00  0.00     0.001 A 
HETATM   25  C15 LIG X 999      46.140 130.726  16.848  1.00  0.00     0.012 A 
HETATM   26  C17 LIG X 999      45.334 130.945  19.140  1.00  0.00     0.041 A 
ENDBRANCH  15  17
ENDBRANCH   1  15
TORSDOF 6
