REMARK VINA RESULT:      -4.8      2.783      3.698
REMARK  6 active torsions:
REMARK  status: ('A' for Active; 'I' for Inactive)
REMARK    1  A    between atoms: C8_8  and  O1_9 
REMARK    2  A    between atoms: O1_9  and  C9_10 
REMARK    3  A    between atoms: C9_10  and  C10_11 
REMARK    4  A    between atoms: C10_11  and  C11_12 
REMARK    5  A    between atoms: C11_12  and  N1_13 
REMARK    6  A    between atoms: C13_18  and  N4_19 
ROOT
HETATM    1  N1  LIG X 999      45.988 130.693  14.429  1.00  0.00    -0.116 NA
HETATM    2  N2  LIG X 999      46.983 130.038  14.116  1.00  0.00    -0.168 NA
HETATM    3  N3  LIG X 999      47.977 129.383  13.804  1.00  0.00     0.068 N 
ENDROOT
BRANCH   1   4
HETATM    4  C11 LIG X 999      46.052 131.702  15.477  1.00  0.00     0.191 C 
BRANCH   4   5
HETATM    5  C10 LIG X 999      45.222 131.274  16.692  1.00  0.00     0.051 C 
BRANCH   5   6
HETATM    6  C9  LIG X 999      45.889 130.120  17.440  1.00  0.00     0.170 C 
BRANCH   6   7
HETATM    7  O1  LIG X 999      46.331 130.582  18.699  1.00  0.00    -0.384 OA
BRANCH   7   8
HETATM    8  C8  LIG X 999      45.338 130.372  19.691  1.00  0.00     0.146 C 
HETATM    9  C7  LIG X 999      45.784 129.221  20.609  1.00  0.00     0.072 C 
HETATM   10  C5  LIG X 999      45.004 129.141  21.902  1.00  0.00    -0.047 A 
HETATM   11  C4  LIG X 999      44.273 130.247  22.401  1.00  0.00    -0.023 A 
HETATM   12  C6  LIG X 999      45.119 127.980  22.683  1.00  0.00     0.008 A 
HETATM   13  C3  LIG X 999      43.655 130.150  23.661  1.00  0.00     0.010 A 
HETATM   14  C13 LIG X 999      44.065 131.497  21.571  1.00  0.00     0.199 C 
HETATM   15  C2  LIG X 999      43.766 128.983  24.419  1.00  0.00     0.001 A 
HETATM   16  C1  LIG X 999      44.496 127.899  23.930  1.00  0.00     0.001 A 
HETATM   17  C12 LIG X 999      45.177 131.659  20.516  1.00  0.00     0.143 C 
HETATM   18 CL1  LIG X 999      44.830 133.057  19.450  1.00  0.00    -0.120 Cl
BRANCH  14  19
HETATM   19  N4  LIG X 999      42.759 131.447  20.916  1.00  0.00    -0.104 NA
HETATM   20  N5  LIG X 999      42.056 132.452  20.805  1.00  0.00    -0.167 NA
HETATM   21  N6  LIG X 999      41.354 133.455  20.695  1.00  0.00     0.068 N 
ENDBRANCH  14  19
ENDBRANCH   7   8
ENDBRANCH   6   7
ENDBRANCH   5   6
ENDBRANCH   4   5
ENDBRANCH   1   4
TORSDOF 6
