MODEL 1
REMARK VINA RESULT:      -7.8      0.000      0.000
REMARK  1 active torsions:
REMARK  status: ('A' for Active; 'I' for Inactive)
REMARK    1  A    between atoms: C10_11  and  N2_12 
ROOT
HETATM    1  N2  LIG X 999      44.490 131.329  15.639  1.00  0.00    -0.052 NA
HETATM    2  N3  LIG X 999      45.578 131.363  15.061  1.00  0.00    -0.160 NA
HETATM    3  N4  LIG X 999      46.663 131.397  14.483  1.00  0.00     0.068 N 
ENDROOT
BRANCH   1   4
HETATM    4  C10 LIG X 999      44.378 131.380  17.067  1.00  0.00     0.186 C 
HETATM    5  N1  LIG X 999      43.271 131.934  17.615  1.00  0.00    -0.226 NA
HETATM    6  C9  LIG X 999      43.072 132.001  18.957  1.00  0.00     0.071 C 
HETATM    7  C8  LIG X 999      41.931 132.650  19.425  1.00  0.00     0.033 C 
HETATM    8  C14 LIG X 999      44.019 131.442  19.860  1.00  0.00     0.010 C 
HETATM    9  C7  LIG X 999      41.685 132.751  20.787  1.00  0.00     0.014 C 
HETATM   10  C5  LIG X 999      42.522 132.108  21.703  1.00  0.00    -0.025 C 
HETATM   11  C4  LIG X 999      43.665 131.386  21.251  1.00  0.00    -0.013 C 
HETATM   12  C6  LIG X 999      42.192 132.135  23.069  1.00  0.00     0.012 C 
HETATM   13  C3  LIG X 999      44.326 130.563  22.193  1.00  0.00     0.013 C 
HETATM   14  C2  LIG X 999      43.977 130.589  23.545  1.00  0.00     0.001 C 
HETATM   15  C1  LIG X 999      42.932 131.394  23.986  1.00  0.00     0.001 C 
HETATM   16  C12 LIG X 999      45.267 131.017  19.302  1.00  0.00    -0.045 C 
HETATM   17  C11 LIG X 999      45.402 130.929  17.907  1.00  0.00     0.063 C 
HETATM   18  C13 LIG X 999      46.526 130.793  20.105  1.00  0.00     0.049 C 
ENDBRANCH   1   4
TORSDOF 1
ENDMDL
MODEL 2
REMARK VINA RESULT:      -7.3      1.019      2.712
REMARK  1 active torsions:
REMARK  status: ('A' for Active; 'I' for Inactive)
REMARK    1  A    between atoms: C10_11  and  N2_12 
ROOT
HETATM    1  N2  LIG X 999      45.496 131.585  15.173  1.00  0.00    -0.052 NA
HETATM    2  N3  LIG X 999      46.245 130.719  14.716  1.00  0.00    -0.160 NA
HETATM    3  N4  LIG X 999      46.992 129.856  14.258  1.00  0.00     0.068 N 
ENDROOT
BRANCH   1   4
HETATM    4  C10 LIG X 999      44.956 131.510  16.498  1.00  0.00     0.186 C 
HETATM    5  N1  LIG X 999      45.721 130.989  17.486  1.00  0.00    -0.226 NA
HETATM    6  C9  LIG X 999      45.298 130.903  18.773  1.00  0.00     0.071 C 
HETATM    7  C8  LIG X 999      46.134 130.291  19.706  1.00  0.00     0.033 C 
HETATM    8  C14 LIG X 999      44.022 131.406  19.154  1.00  0.00     0.010 C 
HETATM    9  C7  LIG X 999      45.744 130.173  21.033  1.00  0.00     0.014 C 
HETATM   10  C5  LIG X 999      44.557 130.763  21.473  1.00  0.00    -0.025 C 
HETATM   11  C4  LIG X 999      43.709 131.449  20.554  1.00  0.00    -0.013 C 
HETATM   12  C6  LIG X 999      44.238 130.722  22.842  1.00  0.00     0.012 C 
HETATM   13  C3  LIG X 999      42.659 132.226  21.098  1.00  0.00     0.013 C 
HETATM   14  C2  LIG X 999      42.362 132.186  22.462  1.00  0.00     0.001 C 
HETATM   15  C1  LIG X 999      43.132 131.415  23.327  1.00  0.00     0.001 C 
HETATM   16  C12 LIG X 999      43.141 131.792  18.093  1.00  0.00    -0.045 C 
HETATM   17  C11 LIG X 999      43.645 131.903  16.787  1.00  0.00     0.063 C 
HETATM   18  C13 LIG X 999      41.647 131.950  18.242  1.00  0.00     0.049 C 
ENDBRANCH   1   4
TORSDOF 1
ENDMDL
MODEL 3
REMARK VINA RESULT:      -6.6      3.214      6.329
REMARK  1 active torsions:
REMARK  status: ('A' for Active; 'I' for Inactive)
REMARK    1  A    between atoms: C10_11  and  N2_12 
ROOT
HETATM    1  N2  LIG X 999      42.984 131.072  23.786  1.00  0.00    -0.052 NA
HETATM    2  N3  LIG X 999      42.343 130.106  24.205  1.00  0.00    -0.160 NA
HETATM    3  N4  LIG X 999      41.704 129.143  24.624  1.00  0.00     0.068 N 
ENDROOT
BRANCH   1   4
HETATM    4  C10 LIG X 999      43.257 131.266  22.393  1.00  0.00     0.186 C 
HETATM    5  N1  LIG X 999      44.420 130.795  21.885  1.00  0.00    -0.226 NA
HETATM    6  C9  LIG X 999      44.748 130.912  20.572  1.00  0.00     0.071 C 
HETATM    7  C8  LIG X 999      45.997 130.453  20.158  1.00  0.00     0.033 C 
HETATM    8  C14 LIG X 999      43.845 131.511  19.649  1.00  0.00     0.010 C 
HETATM    9  C7  LIG X 999      46.382 130.557  18.829  1.00  0.00     0.014 C 
HETATM   10  C5  LIG X 999      45.479 131.022  17.868  1.00  0.00    -0.025 C 
HETATM   11  C4  LIG X 999      44.172 131.443  18.253  1.00  0.00    -0.013 C 
HETATM   12  C6  LIG X 999      45.856 131.016  16.514  1.00  0.00     0.012 C 
HETATM   13  C3  LIG X 999      43.234 131.669  17.218  1.00  0.00     0.013 C 
HETATM   14  C2  LIG X 999      43.620 131.645  15.875  1.00  0.00     0.001 C 
HETATM   15  C1  LIG X 999      44.933 131.347  15.526  1.00  0.00     0.001 C 
HETATM   16  C12 LIG X 999      42.700 132.167  20.204  1.00  0.00    -0.045 C 
HETATM   17  C11 LIG X 999      42.387 131.976  21.560  1.00  0.00     0.063 C 
HETATM   18  C13 LIG X 999      41.866 133.190  19.469  1.00  0.00     0.049 C 
ENDBRANCH   1   4
TORSDOF 1
ENDMDL
MODEL 4
REMARK VINA RESULT:      -5.3      6.315      7.827
REMARK  1 active torsions:
REMARK  status: ('A' for Active; 'I' for Inactive)
REMARK    1  A    between atoms: C10_11  and  N2_12 
ROOT
HETATM    1  N2  LIG X 999      43.559 129.771  23.368  1.00  0.00    -0.052 NA
HETATM    2  N3  LIG X 999      43.341 130.517  22.411  1.00  0.00    -0.160 NA
HETATM    3  N4  LIG X 999      43.125 131.262  21.458  1.00  0.00     0.068 N 
ENDROOT
BRANCH   1   4
HETATM    4  C10 LIG X 999      42.925 128.492  23.503  1.00  0.00     0.186 C 
HETATM    5  N1  LIG X 999      41.620 128.446  23.859  1.00  0.00    -0.226 NA
HETATM    6  C9  LIG X 999      40.936 127.280  23.985  1.00  0.00     0.071 C 
HETATM    7  C8  LIG X 999      39.612 127.333  24.421  1.00  0.00     0.033 C 
HETATM    8  C14 LIG X 999      41.564 126.034  23.702  1.00  0.00     0.010 C 
HETATM    9  C7  LIG X 999      38.872 126.168  24.573  1.00  0.00     0.014 C 
HETATM   10  C5  LIG X 999      39.409 124.937  24.186  1.00  0.00    -0.025 C 
HETATM   11  C4  LIG X 999      40.740 124.859  23.680  1.00  0.00    -0.013 C 
HETATM   12  C6  LIG X 999      38.602 123.788  24.248  1.00  0.00     0.012 C 
HETATM   13  C3  LIG X 999      41.135 123.638  23.083  1.00  0.00     0.013 C 
HETATM   14  C2  LIG X 999      40.316 122.508  23.140  1.00  0.00     0.001 C 
HETATM   15  C1  LIG X 999      39.065 122.576  23.745  1.00  0.00     0.001 C 
HETATM   16  C12 LIG X 999      42.981 126.061  23.500  1.00  0.00    -0.045 C 
HETATM   17  C11 LIG X 999      43.629 127.296  23.336  1.00  0.00     0.063 C 
HETATM   18  C13 LIG X 999      43.877 124.850  23.600  1.00  0.00     0.049 C 
ENDBRANCH   1   4
TORSDOF 1
ENDMDL
MODEL 5
REMARK VINA RESULT:      -5.2      2.754      6.226
REMARK  1 active torsions:
REMARK  status: ('A' for Active; 'I' for Inactive)
REMARK    1  A    between atoms: C10_11  and  N2_12 
ROOT
HETATM    1  N2  LIG X 999      42.379 132.531  20.474  1.00  0.00    -0.052 NA
HETATM    2  N3  LIG X 999      42.539 132.170  21.641  1.00  0.00    -0.160 NA
HETATM    3  N4  LIG X 999      42.697 131.811  22.807  1.00  0.00     0.068 N 
ENDROOT
BRANCH   1   4
HETATM    4  C10 LIG X 999      43.178 132.022  19.398  1.00  0.00     0.186 C 
HETATM    5  N1  LIG X 999      42.747 132.198  18.127  1.00  0.00    -0.226 NA
HETATM    6  C9  LIG X 999      43.453 131.771  17.048  1.00  0.00     0.071 C 
HETATM    7  C8  LIG X 999      42.894 131.941  15.782  1.00  0.00     0.033 C 
HETATM    8  C14 LIG X 999      44.721 131.146  17.211  1.00  0.00     0.010 C 
HETATM    9  C7  LIG X 999      43.573 131.515  14.648  1.00  0.00     0.014 C 
HETATM   10  C5  LIG X 999      44.872 131.011  14.753  1.00  0.00    -0.025 C 
HETATM   11  C4  LIG X 999      45.494 130.882  16.030  1.00  0.00    -0.013 C 
HETATM   12  C6  LIG X 999      45.578 130.688  13.581  1.00  0.00     0.012 C 
HETATM   13  C3  LIG X 999      46.881 130.600  16.050  1.00  0.00     0.013 C 
HETATM   14  C2  LIG X 999      47.572 130.295  14.875  1.00  0.00     0.001 C 
HETATM   15  C1  LIG X 999      46.917 130.312  13.648  1.00  0.00     0.001 C 
HETATM   16  C12 LIG X 999      45.099 130.797  18.547  1.00  0.00    -0.045 C 
HETATM   17  C11 LIG X 999      44.355 131.302  19.626  1.00  0.00     0.063 C 
HETATM   18  C13 LIG X 999      46.168 129.789  18.894  1.00  0.00     0.049 C 
ENDBRANCH   1   4
TORSDOF 1
ENDMDL
MODEL 6
REMARK VINA RESULT:      -4.9      4.945      6.618
REMARK  1 active torsions:
REMARK  status: ('A' for Active; 'I' for Inactive)
REMARK    1  A    between atoms: C10_11  and  N2_12 
ROOT
HETATM    1  N2  LIG X 999      43.674 131.248  22.492  1.00  0.00    -0.052 NA
HETATM    2  N3  LIG X 999      43.312 131.682  21.396  1.00  0.00    -0.160 NA
HETATM    3  N4  LIG X 999      42.952 132.116  20.303  1.00  0.00     0.068 N 
ENDROOT
BRANCH   1   4
HETATM    4  C10 LIG X 999      43.549 129.866  22.849  1.00  0.00     0.186 C 
HETATM    5  N1  LIG X 999      42.371 129.425  23.347  1.00  0.00    -0.226 NA
HETATM    6  C9  LIG X 999      42.158 128.128  23.687  1.00  0.00     0.071 C 
HETATM    7  C8  LIG X 999      40.931 127.785  24.254  1.00  0.00     0.033 C 
HETATM    8  C14 LIG X 999      43.172 127.149  23.490  1.00  0.00     0.010 C 
HETATM    9  C7  LIG X 999      40.668 126.473  24.625  1.00  0.00     0.014 C 
HETATM   10  C5  LIG X 999      41.586 125.461  24.334  1.00  0.00    -0.025 C 
HETATM   11  C4  LIG X 999      42.824 125.772  23.700  1.00  0.00    -0.013 C 
HETATM   12  C6  LIG X 999      41.249 124.127  24.622  1.00  0.00     0.012 C 
HETATM   13  C3  LIG X 999      43.595 124.688  23.216  1.00  0.00     0.013 C 
HETATM   14  C2  LIG X 999      43.240 123.367  23.498  1.00  0.00     0.001 C 
HETATM   15  C1  LIG X 999      42.085 123.089  24.222  1.00  0.00     0.001 C 
HETATM   16  C12 LIG X 999      44.472 127.634  23.133  1.00  0.00    -0.045 C 
HETATM   17  C11 LIG X 999      44.624 128.977  22.752  1.00  0.00     0.063 C 
HETATM   18  C13 LIG X 999      45.747 126.838  23.281  1.00  0.00     0.049 C 
ENDBRANCH   1   4
TORSDOF 1
ENDMDL
