REMARK VINA RESULT:      -7.0      1.979      5.935
REMARK  1 active torsions:
REMARK  status: ('A' for Active; 'I' for Inactive)
REMARK    1  A    between atoms: C8_9  and  N2_10 
ROOT
HETATM    1  C1  LIG X 999      42.627 130.234  23.884  1.00  0.00     0.283 C 
HETATM    2  N1  LIG X 999      43.540 131.199  23.237  1.00  0.00    -0.005 N 
HETATM    3  C2  LIG X 999      43.934 132.258  24.189  1.00  0.00     0.283 C 
HETATM    4  C3  LIG X 999      44.743 130.509  22.662  1.00  0.00     0.286 A 
HETATM    5  C4  LIG X 999      44.694 130.762  21.187  1.00  0.00    -0.015 A 
HETATM    6  C5  LIG X 999      45.590 130.331  20.209  1.00  0.00     0.022 A 
HETATM    7  C6  LIG X 999      45.348 130.689  18.866  1.00  0.00    -0.023 A 
HETATM    8  C7  LIG X 999      46.223 130.276  17.850  1.00  0.00     0.041 A 
HETATM    9  C8  LIG X 999      45.978 130.635  16.516  1.00  0.00     0.026 A 
HETATM   10  C9  LIG X 999      44.853 131.409  16.198  1.00  0.00     0.030 A 
HETATM   11  C10 LIG X 999      43.973 131.828  17.199  1.00  0.00     0.014 A 
HETATM   12  C11 LIG X 999      44.206 131.476  18.535  1.00  0.00    -0.025 A 
HETATM   13  C12 LIG X 999      43.323 131.893  19.551  1.00  0.00     0.030 A 
HETATM   14  C13 LIG X 999      43.604 131.514  20.863  1.00  0.00     0.049 A 
HETATM   15  C14 LIG X 999      42.897 131.788  22.084  1.00  0.00     0.351 A 
HETATM   16  O1  LIG X 999      41.834 132.465  22.147  1.00  0.00    -0.259 OA
ENDROOT
BRANCH   9  17
HETATM   17  N2  LIG X 999      46.873 130.213  15.484  1.00  0.00    -0.399 N 
HETATM   18  H11 LIG X 999      46.598 129.464  14.810  1.00  0.00     0.156 HD
HETATM   19  H12 LIG X 999      47.819 130.646  15.385  1.00  0.00     0.156 HD
ENDBRANCH   9  17
TORSDOF 1
