REMARK VINA RESULT:      -8.0      0.000      0.000
REMARK  1 active torsions:
REMARK  status: ('A' for Active; 'I' for Inactive)
REMARK    1  A    between atoms: C7_7  and  N1_8 
ROOT
HETATM    1  N1  LIG X 999      45.384 131.300  18.137  1.00  0.00    -0.110 NA
HETATM    2  N2  LIG X 999      44.572 131.575  19.020  1.00  0.00    -0.167 NA
HETATM    3  N3  LIG X 999      43.761 131.850  19.904  1.00  0.00     0.068 N 
ENDROOT
BRANCH   1   4
HETATM    4  C7  LIG X 999      45.185 131.753  16.762  1.00  0.00     0.153 C 
HETATM    5  C6  LIG X 999      43.831 131.248  16.245  1.00  0.00     0.031 C 
HETATM    6  C5  LIG X 999      43.587 131.728  14.811  1.00  0.00     0.003 C 
HETATM    7  C4  LIG X 999      44.700 131.249  13.876  1.00  0.00     0.009 C 
HETATM    8  C3  LIG X 999      46.089 131.710  14.365  1.00  0.00     0.018 C 
HETATM    9  C2  LIG X 999      47.157 131.128  13.467  1.00  0.00    -0.021 C 
HETATM   10  C8  LIG X 999      46.347 131.294  15.841  1.00  0.00     0.043 C 
HETATM   11  C1  LIG X 999      47.692 129.929  13.731  1.00  0.00    -0.004 C 
HETATM   12  C10 LIG X 999      47.322 129.198  14.958  1.00  0.00    -0.004 C 
HETATM   13  C9  LIG X 999      46.635 129.807  15.931  1.00  0.00    -0.019 C 
ENDBRANCH   1   4
TORSDOF 1
