REMARK VINA RESULT:      -6.9      1.088      5.868
REMARK  1 active torsions:
REMARK  status: ('A' for Active; 'I' for Inactive)
REMARK    1  A    between atoms: C9_10  and  N2_11 
ROOT
HETATM    1  C1  LIG X 999      42.618 130.413  24.291  1.00  0.00     0.272 C 
HETATM    2  N1  LIG X 999      43.414 131.294  23.405  1.00  0.00    -0.067 N 
HETATM    3  C2  LIG X 999      43.908 132.449  24.193  1.00  0.00     0.272 C 
HETATM    4  C3  LIG X 999      42.584 131.775  22.255  1.00  0.00     0.276 C 
HETATM    5  C4  LIG X 999      43.396 131.521  21.046  1.00  0.00    -0.024 A 
HETATM    6  C5  LIG X 999      43.108 131.884  19.729  1.00  0.00     0.021 A 
HETATM    7  C6  LIG X 999      44.015 131.519  18.715  1.00  0.00    -0.025 A 
HETATM    8  C7  LIG X 999      43.770 131.866  17.379  1.00  0.00     0.014 A 
HETATM    9  C8  LIG X 999      44.675 131.498  16.380  1.00  0.00     0.030 A 
HETATM   10  C9  LIG X 999      45.836 130.779  16.701  1.00  0.00     0.026 A 
HETATM   11  C10 LIG X 999      46.091 130.426  18.033  1.00  0.00     0.041 A 
HETATM   12  C11 LIG X 999      45.192 130.790  19.047  1.00  0.00    -0.023 A 
HETATM   13  C12 LIG X 999      45.442 130.436  20.387  1.00  0.00     0.021 A 
HETATM   14  C13 LIG X 999      44.522 130.822  21.363  1.00  0.00    -0.024 A 
HETATM   15  C14 LIG X 999      44.568 130.544  22.814  1.00  0.00     0.276 C 
ENDROOT
BRANCH  10  16
HETATM   16  N2  LIG X 999      46.755 130.406  15.671  1.00  0.00    -0.399 N 
HETATM   17  H12 LIG X 999      47.748 130.174  15.897  1.00  0.00     0.156 HD
HETATM   18  H13 LIG X 999      46.450 130.360  14.673  1.00  0.00     0.156 HD
ENDBRANCH  10  16
TORSDOF 1
