REMARK VINA RESULT:      -7.9      2.772      5.818
REMARK  1 active torsions:
REMARK  status: ('A' for Active; 'I' for Inactive)
REMARK    1  A    between atoms: C8_8  and  N1_9 
ROOT
HETATM    1  N1  LIG X 999      42.353 132.276  18.226  1.00  0.00    -0.072 NA
HETATM    2  N2  LIG X 999      42.083 132.626  19.375  1.00  0.00    -0.162 NA
HETATM    3  N3  LIG X 999      41.812 132.976  20.523  1.00  0.00     0.068 N 
ENDROOT
BRANCH   1   4
HETATM    4  C8  LIG X 999      43.592 131.630  17.891  1.00  0.00     0.104 A 
HETATM    5  C7  LIG X 999      44.486 131.165  18.904  1.00  0.00     0.038 A 
HETATM    6  C6  LIG X 999      45.705 130.530  18.569  1.00  0.00     0.033 A 
HETATM    7  C5  LIG X 999      46.009 130.371  17.218  1.00  0.00     0.047 A 
HETATM    8  C4  LIG X 999      45.144 130.820  16.263  1.00  0.00     0.019 A 
HETATM    9  N4  LIG X 999      47.158 129.772  16.617  1.00  0.00    -0.322 N 
HETATM   10  C3  LIG X 999      45.615 130.575  15.009  1.00  0.00     0.045 A 
HETATM   11  C9  LIG X 999      43.940 131.448  16.532  1.00  0.00     0.009 A 
HETATM   12  C2  LIG X 999      44.881 130.956  13.888  1.00  0.00     0.018 A 
HETATM   13  C11 LIG X 999      46.899 129.906  15.212  1.00  0.00     0.257 A 
HETATM   14  C1  LIG X 999      43.641 131.603  14.103  1.00  0.00     0.002 A 
HETATM   15  C10 LIG X 999      43.168 131.850  15.419  1.00  0.00     0.015 A 
HETATM   16  O1  LIG X 999      47.675 129.502  14.306  1.00  0.00    -0.267 OA
HETATM   17  H6  LIG X 999      47.984 129.341  17.086  1.00  0.00     0.169 HD
ENDBRANCH   1   4
TORSDOF 1
