REMARK VINA RESULT:      -6.3      1.045      2.106
REMARK  4 active torsions:
REMARK  status: ('A' for Active; 'I' for Inactive)
REMARK    1  A    between atoms: C3_3  and  C4_4 
REMARK    2  A    between atoms: C4_4  and  C5_5 
REMARK    3  A    between atoms: C5_5  and  N1_6 
REMARK    4  A    between atoms: N4_15  and  C12_16 
ROOT
HETATM    1  C12 LIG X 999      44.367 131.331  19.248  1.00  0.00     0.059 A 
HETATM    2  C13 LIG X 999      45.655 130.779  19.319  1.00  0.00     0.032 A 
HETATM    3  C14 LIG X 999      46.406 130.574  18.159  1.00  0.00     0.014 A 
HETATM    4  C15 LIG X 999      45.873 130.907  16.906  1.00  0.00    -0.024 A 
HETATM    5  C16 LIG X 999      46.618 130.704  15.734  1.00  0.00     0.034 A 
HETATM    6  C17 LIG X 999      46.073 131.037  14.487  1.00  0.00     0.045 A 
HETATM    7  C18 LIG X 999      46.841 130.829  13.287  1.00  0.00     0.099 C 
HETATM    8  N5  LIG X 999      47.458 130.661  12.322  1.00  0.00    -0.191 NA
HETATM    9  C19 LIG X 999      44.782 131.573  14.407  1.00  0.00     0.023 A 
HETATM   10  C20 LIG X 999      44.032 131.778  15.569  1.00  0.00     0.014 A 
HETATM   11  C21 LIG X 999      44.568 131.449  16.823  1.00  0.00    -0.024 A 
HETATM   12  C22 LIG X 999      43.823 131.651  17.993  1.00  0.00     0.043 A 
ENDROOT
BRANCH   1  13
HETATM   13  N4  LIG X 999      43.585 131.529  20.438  1.00  0.00    -0.243 N 
HETATM   14  C2  LIG X 999      44.007 131.602  21.719  1.00  0.00     0.058 A 
HETATM   15  C1  LIG X 999      45.426 131.488  22.195  1.00  0.00     0.072 C 
HETATM   16  C3  LIG X 999      42.874 131.778  22.497  1.00  0.00     0.082 A 
HETATM   17  N2  LIG X 999      41.802 131.814  21.680  1.00  0.00    -0.161 NA
HETATM   18  N3  LIG X 999      42.268 131.675  20.448  1.00  0.00    -0.212 N 
HETATM   19  H20 LIG X 999      41.661 131.653  19.598  1.00  0.00     0.211 HD
BRANCH  16  20
HETATM   20  C4  LIG X 999      42.791 131.846  23.993  1.00  0.00     0.093 C 
BRANCH  20  21
HETATM   21  C5  LIG X 999      43.124 130.486  24.615  1.00  0.00     0.279 C 
BRANCH  21  22
HETATM   22  N1  LIG X 999      42.753 129.393  23.694  1.00  0.00     0.093 N 
HETATM   23  C6  LIG X 999      41.381 128.899  23.926  1.00  0.00     0.273 C 
HETATM   24  C7  LIG X 999      41.449 127.408  24.217  1.00  0.00     0.036 C 
HETATM   25  C8  LIG X 999      42.794 126.981  23.665  1.00  0.00     0.016 C 
HETATM   26  C9  LIG X 999      43.361 125.758  24.396  1.00  0.00     0.012 C 
HETATM   27  C10 LIG X 999      43.657 128.234  23.826  1.00  0.00     0.222 C 
HETATM   28  C11 LIG X 999      44.755 128.307  22.761  1.00  0.00     0.043 C 
ENDBRANCH  21  22
ENDBRANCH  20  21
ENDBRANCH  16  20
ENDBRANCH   1  13
TORSDOF 4
