REMARK VINA RESULT:      -6.5      2.639      4.802
REMARK  1 active torsions:
REMARK  status: ('A' for Active; 'I' for Inactive)
REMARK    1  A    between atoms: C14_14  and  N1_15 
ROOT
HETATM    1  N1  LIG X 999      42.216 132.216  18.641  1.00  0.00    -0.054 NA
HETATM    2  N2  LIG X 999      42.482 132.096  19.838  1.00  0.00    -0.160 NA
HETATM    3  N3  LIG X 999      42.746 131.977  21.033  1.00  0.00     0.068 N 
ENDROOT
BRANCH   1   4
HETATM    4  C14 LIG X 999      43.116 131.794  17.605  1.00  0.00     0.165 C 
HETATM    5  C13 LIG X 999      42.849 132.045  16.256  1.00  0.00     0.061 C 
HETATM    6  C11 LIG X 999      43.735 131.606  15.261  1.00  0.00    -0.045 C 
HETATM    7  C10 LIG X 999      44.985 131.025  15.644  1.00  0.00     0.008 C 
HETATM    8  C12 LIG X 999      43.215 131.649  13.844  1.00  0.00     0.049 C 
HETATM    9  C4  LIG X 999      46.070 130.733  14.751  1.00  0.00    -0.013 C 
HETATM   10  C9  LIG X 999      45.136 130.677  17.018  1.00  0.00     0.045 C 
HETATM   11  C3  LIG X 999      46.213 131.330  13.476  1.00  0.00     0.013 C 
HETATM   12  C5  LIG X 999      47.124 129.884  15.195  1.00  0.00    -0.025 C 
HETATM   13  C2  LIG X 999      47.257 130.969  12.622  1.00  0.00     0.001 C 
HETATM   14  C1  LIG X 999      48.212 130.044  13.032  1.00  0.00     0.001 C 
HETATM   15  C6  LIG X 999      48.160 129.518  14.320  1.00  0.00     0.012 C 
HETATM   16  C7  LIG X 999      47.168 129.452  16.522  1.00  0.00     0.014 C 
HETATM   17  C8  LIG X 999      46.218 129.890  17.433  1.00  0.00     0.031 C 
HETATM   18  N4  LIG X 999      44.222 131.085  17.944  1.00  0.00    -0.338 N 
HETATM   19  H11 LIG X 999      44.368 130.853  18.954  1.00  0.00     0.167 HD
ENDBRANCH   1   4
TORSDOF 1
