REMARK VINA RESULT:      -8.1      3.928      5.957
REMARK  2 active torsions:
REMARK  status: ('A' for Active; 'I' for Inactive)
REMARK    1  A    between atoms: C1_1  and  N1_14 
REMARK    2  A    between atoms: C2_2  and  C3_4 
ROOT
HETATM    1  C3  LIG X 999      44.137 131.516  18.727  1.00  0.00     0.003 A 
HETATM    2  C4  LIG X 999      45.302 130.782  19.031  1.00  0.00     0.015 A 
HETATM    3  C5  LIG X 999      46.133 130.310  18.012  1.00  0.00     0.013 A 
HETATM    4  C6  LIG X 999      45.814 130.554  16.670  1.00  0.00    -0.026 A 
HETATM    5  C7  LIG X 999      46.644 130.083  15.639  1.00  0.00     0.012 A 
HETATM    6  C8  LIG X 999      46.312 130.331  14.305  1.00  0.00     0.001 A 
HETATM    7  C9  LIG X 999      45.153 131.045  13.989  1.00  0.00     0.001 A 
HETATM    8  C10 LIG X 999      44.319 131.518  15.004  1.00  0.00     0.012 A 
HETATM    9  C11 LIG X 999      44.640 131.277  16.350  1.00  0.00    -0.025 A 
HETATM   10  C12 LIG X 999      43.810 131.747  17.380  1.00  0.00     0.026 A 
ENDROOT
BRANCH   1  11
HETATM   11  C2  LIG X 999      43.230 132.018  19.792  1.00  0.00     0.132 C 
HETATM   12  C1  LIG X 999      42.116 132.709  19.510  1.00  0.00     0.121 C 
HETATM   13  O1  LIG X 999      43.543 131.735  21.119  1.00  0.00    -0.190 OA
BRANCH  12  14
HETATM   14  N1  LIG X 999      41.252 133.192  20.543  1.00  0.00    -0.406 N 
HETATM   15  H9  LIG X 999      41.446 133.018  21.554  1.00  0.00     0.155 HD
HETATM   16  H10 LIG X 999      40.401 133.740  20.286  1.00  0.00     0.155 HD
ENDBRANCH  12  14
ENDBRANCH   1  11
TORSDOF 2
