REMARK VINA RESULT:      -4.0     11.178     13.178
REMARK  3 active torsions:
REMARK  status: ('A' for Active; 'I' for Inactive)
REMARK    1  A    between atoms: C5_5  and  N1_6 
REMARK    2  A    between atoms: C6_9  and  N4_10 
REMARK    3  A    between atoms: C8_15  and  N7_16 
ROOT
HETATM    1  N1  LIG X 999      48.542 134.237  22.420  1.00  0.00    -0.069 NA
HETATM    2  N2  LIG X 999      47.634 134.118  23.244  1.00  0.00    -0.162 NA
HETATM    3  N3  LIG X 999      46.729 133.995  24.067  1.00  0.00     0.068 N 
ENDROOT
BRANCH   1   4
HETATM    4  C5  LIG X 999      49.607 135.188  22.590  1.00  0.00     0.137 C 
HETATM    5  C4  LIG X 999      49.627 136.346  21.780  1.00  0.00     0.011 A 
HETATM    6  C3  LIG X 999      48.548 136.638  20.918  1.00  0.00     0.015 A 
HETATM    7  C9  LIG X 999      50.741 137.227  21.822  1.00  0.00     0.010 A 
HETATM    8  C2  LIG X 999      48.550 137.798  20.146  1.00  0.00     0.001 A 
HETATM    9  C1  LIG X 999      49.616 138.689  20.224  1.00  0.00     0.001 A 
HETATM   10  C10 LIG X 999      50.699 138.415  21.059  1.00  0.00     0.015 A 
HETATM   11  C8  LIG X 999      51.849 136.911  22.649  1.00  0.00     0.128 C 
HETATM   12  C7  LIG X 999      51.774 135.812  23.517  1.00  0.00     0.100 C 
HETATM   13  C6  LIG X 999      50.651 134.972  23.523  1.00  0.00     0.149 C 
HETATM   14 CL1  LIG X 999      53.110 135.484  24.624  1.00  0.00    -0.079 Cl
BRANCH  11  15
HETATM   15  N7  LIG X 999      53.058 137.688  22.646  1.00  0.00    -0.070 NA
HETATM   16  N8  LIG X 999      53.275 138.562  23.487  1.00  0.00    -0.162 NA
HETATM   17  N9  LIG X 999      53.493 139.436  24.324  1.00  0.00     0.068 N 
ENDBRANCH  11  15
BRANCH  13  18
HETATM   18  N4  LIG X 999      50.586 133.938  24.517  1.00  0.00    -0.068 NA
HETATM   19  N5  LIG X 999      50.956 132.785  24.289  1.00  0.00    -0.162 NA
HETATM   20  N6  LIG X 999      51.322 131.632  24.062  1.00  0.00     0.068 N 
ENDBRANCH  13  18
ENDBRANCH   1   4
TORSDOF 3
