REMARK VINA RESULT:      -7.2      1.763      2.990
REMARK  1 active torsions:
REMARK  status: ('A' for Active; 'I' for Inactive)
REMARK    1  A    between atoms: C2_5  and  C3_6 
ROOT
HETATM    1  C3  LIG X 999      44.594 131.346  18.045  1.00  0.00     0.030 A 
HETATM    2  C4  LIG X 999      45.772 130.782  18.575  1.00  0.00     0.017 A 
HETATM    3  C5  LIG X 999      45.977 130.678  19.947  1.00  0.00     0.002 A 
HETATM    4  C6  LIG X 999      45.013 131.131  20.835  1.00  0.00     0.012 A 
HETATM    5  C7  LIG X 999      43.825 131.700  20.360  1.00  0.00    -0.025 A 
HETATM    6  C8  LIG X 999      42.869 132.149  21.285  1.00  0.00     0.012 A 
HETATM    7  C9  LIG X 999      41.677 132.718  20.846  1.00  0.00     0.001 A 
HETATM    8  C10 LIG X 999      41.428 132.844  19.484  1.00  0.00     0.001 A 
HETATM    9  C11 LIG X 999      42.366 132.403  18.547  1.00  0.00     0.013 A 
HETATM   10  C12 LIG X 999      43.590 131.819  18.956  1.00  0.00    -0.011 A 
ENDROOT
BRANCH   1  11
HETATM   11  C2  LIG X 999      44.511 131.393  16.551  1.00  0.00     0.203 A 
HETATM   12  O1  LIG X 999      43.407 131.709  15.900  1.00  0.00    -0.255 OA
HETATM   13  C1  LIG X 999      43.728 131.641  14.633  1.00  0.00     0.262 A 
HETATM   14  N1  LIG X 999      42.914 131.882  13.657  1.00  0.00    -0.260 NA
HETATM   15  N3  LIG X 999      45.008 131.289  14.472  1.00  0.00    -0.238 N 
HETATM   16  H1  LIG X 999      41.923 132.153  13.843  1.00  0.00     0.190 HD
HETATM   17  N2  LIG X 999      45.513 131.130  15.683  1.00  0.00    -0.145 NA
HETATM   18  H9  LIG X 999      45.532 131.158  13.578  1.00  0.00     0.193 HD
ENDBRANCH   1  11
TORSDOF 1
