REMARK VINA RESULT:      -4.8      3.426      5.191
REMARK  1 active torsions:
REMARK  status: ('A' for Active; 'I' for Inactive)
REMARK    1  A    between atoms: C7_7  and  N1_8 
ROOT
HETATM    1  N1  LIG X 999      43.750 132.329  18.728  1.00  0.00    -0.110 NA
HETATM    2  N2  LIG X 999      43.347 131.950  19.828  1.00  0.00    -0.167 NA
HETATM    3  N3  LIG X 999      42.944 131.574  20.927  1.00  0.00     0.068 N 
ENDROOT
BRANCH   1   4
HETATM    4  C7  LIG X 999      44.973 131.786  18.144  1.00  0.00     0.153 C 
HETATM    5  C6  LIG X 999      45.108 130.304  18.522  1.00  0.00     0.031 C 
HETATM    6  C5  LIG X 999      46.397 129.711  17.941  1.00  0.00     0.003 C 
HETATM    7  C4  LIG X 999      46.427 129.855  16.416  1.00  0.00     0.009 C 
HETATM    8  C3  LIG X 999      46.271 131.328  15.982  1.00  0.00     0.018 C 
HETATM    9  C2  LIG X 999      46.205 131.403  14.474  1.00  0.00    -0.021 C 
HETATM   10  C8  LIG X 999      45.004 131.980  16.605  1.00  0.00     0.043 C 
HETATM   11  C1  LIG X 999      45.032 131.307  13.836  1.00  0.00    -0.004 C 
HETATM   12  C10 LIG X 999      43.769 131.227  14.597  1.00  0.00    -0.004 C 
HETATM   13  C9  LIG X 999      43.751 131.478  15.911  1.00  0.00    -0.019 C 
ENDBRANCH   1   4
TORSDOF 1
