MODEL 1
REMARK VINA RESULT:      -5.4      0.000      0.000
REMARK  5 active torsions:
REMARK  status: ('A' for Active; 'I' for Inactive)
REMARK    1  A    between atoms: C3_3  and  N1_4 
REMARK    2  A    between atoms: N1_4  and  C6_7 
REMARK    3  A    between atoms: C6_7  and  C7_8 
REMARK    4  A    between atoms: C9_10  and  C10_11 
REMARK    5  A    between atoms: C11_14  and  N4_15 
ROOT
HETATM    1  C1  LIG X 999      46.839 131.387  14.330  1.00  0.00     0.013 C 
HETATM    2  C2  LIG X 999      46.231 131.727  15.314  1.00  0.00    -0.089 C 
HETATM    3  C3  LIG X 999      45.489 132.145  16.520  1.00  0.00     0.329 C 
ENDROOT
BRANCH   3   4
HETATM    4  N1  LIG X 999      44.782 131.019  17.204  1.00  0.00    -0.061 N 
HETATM    5  C4  LIG X 999      45.750 130.250  18.029  1.00  0.00     0.273 C 
HETATM    6  C5  LIG X 999      44.253 130.101  16.164  1.00  0.00     0.273 C 
BRANCH   4   7
HETATM    7  C6  LIG X 999      43.672 131.489  18.097  1.00  0.00     0.275 C 
BRANCH   7   8
HETATM    8  C7  LIG X 999      44.053 131.613  19.560  1.00  0.00    -0.035 C 
HETATM    9  C8  LIG X 999      43.145 131.373  20.529  1.00  0.00     0.001 C 
HETATM   10  C9  LIG X 999      43.574 131.312  21.980  1.00  0.00     0.054 C 
HETATM   11  C12 LIG X 999      42.377 131.590  22.923  1.00  0.00     0.023 C 
HETATM   12  C16 LIG X 999      44.638 132.426  22.217  1.00  0.00     0.028 C 
HETATM   13  C13 LIG X 999      42.826 131.638  24.399  1.00  0.00     0.002 C 
HETATM   14  C14 LIG X 999      43.951 132.663  24.625  1.00  0.00     0.001 C 
HETATM   15  C15 LIG X 999      45.135 132.439  23.671  1.00  0.00     0.010 C 
HETATM   16  C17 LIG X 999      45.743 132.338  21.195  1.00  0.00    -0.020 C 
HETATM   17  C18 LIG X 999      45.439 132.016  19.932  1.00  0.00     0.005 C 
BRANCH  10  18
HETATM   18  C10 LIG X 999      44.105 129.906  22.219  1.00  0.00     0.184 A 
HETATM   19  N2  LIG X 999      45.173 129.364  21.595  1.00  0.00    -0.124 NA
HETATM   20  N3  LIG X 999      45.276 128.117  22.027  1.00  0.00    -0.099 NA
HETATM   21  C11 LIG X 999      44.261 127.945  22.891  1.00  0.00     0.326 A 
HETATM   22  O1  LIG X 999      43.534 129.030  23.014  1.00  0.00    -0.255 OA
BRANCH  21  23
HETATM   23  N4  LIG X 999      44.010 126.724  23.581  1.00  0.00    -0.023 NA
HETATM   24  N5  LIG X 999      43.876 125.668  22.963  1.00  0.00    -0.158 NA
HETATM   25  N6  LIG X 999      43.741 124.613  22.344  1.00  0.00     0.068 N 
ENDBRANCH  21  23
ENDBRANCH  10  18
ENDBRANCH   7   8
ENDBRANCH   4   7
ENDBRANCH   3   4
TORSDOF 5
ENDMDL
MODEL 2
REMARK VINA RESULT:      -5.3      3.587      4.934
REMARK  5 active torsions:
REMARK  status: ('A' for Active; 'I' for Inactive)
REMARK    1  A    between atoms: C3_3  and  N1_4 
REMARK    2  A    between atoms: N1_4  and  C6_7 
REMARK    3  A    between atoms: C6_7  and  C7_8 
REMARK    4  A    between atoms: C9_10  and  C10_11 
REMARK    5  A    between atoms: C11_14  and  N4_15 
ROOT
HETATM    1  C1  LIG X 999      47.920 131.053  12.954  1.00  0.00     0.013 C 
HETATM    2  C2  LIG X 999      47.111 130.507  13.660  1.00  0.00    -0.089 C 
HETATM    3  C3  LIG X 999      46.118 129.836  14.523  1.00  0.00     0.329 C 
ENDROOT
BRANCH   3   4
HETATM    4  N1  LIG X 999      45.642 130.688  15.656  1.00  0.00    -0.061 N 
HETATM    5  C4  LIG X 999      44.157 130.710  15.674  1.00  0.00     0.273 C 
HETATM    6  C5  LIG X 999      46.107 132.078  15.420  1.00  0.00     0.273 C 
BRANCH   4   7
HETATM    7  C6  LIG X 999      46.123 130.197  16.990  1.00  0.00     0.275 C 
BRANCH   7   8
HETATM    8  C7  LIG X 999      45.341 130.733  18.174  1.00  0.00    -0.035 C 
HETATM    9  C8  LIG X 999      45.620 130.317  19.427  1.00  0.00     0.001 C 
HETATM   10  C9  LIG X 999      44.971 130.989  20.618  1.00  0.00     0.054 C 
HETATM   11  C12 LIG X 999      44.969 130.050  21.851  1.00  0.00     0.023 C 
HETATM   12  C16 LIG X 999      43.489 131.298  20.251  1.00  0.00     0.028 C 
HETATM   13  C13 LIG X 999      44.214 130.684  23.037  1.00  0.00     0.002 C 
HETATM   14  C14 LIG X 999      42.779 131.090  22.655  1.00  0.00     0.001 C 
HETATM   15  C15 LIG X 999      42.747 131.987  21.408  1.00  0.00     0.010 C 
HETATM   16  C17 LIG X 999      43.405 132.043  18.943  1.00  0.00    -0.020 C 
HETATM   17  C18 LIG X 999      44.244 131.718  17.952  1.00  0.00     0.005 C 
BRANCH  10  18
HETATM   18  C10 LIG X 999      45.793 132.234  20.918  1.00  0.00     0.184 A 
HETATM   19  N2  LIG X 999      45.514 133.475  20.465  1.00  0.00    -0.124 NA
HETATM   20  N3  LIG X 999      46.489 134.265  20.889  1.00  0.00    -0.099 NA
HETATM   21  C11 LIG X 999      47.328 133.472  21.576  1.00  0.00     0.326 A 
HETATM   22  O1  LIG X 999      46.918 132.226  21.597  1.00  0.00    -0.255 OA
BRANCH  21  23
HETATM   23  N4  LIG X 999      48.523 133.938  22.198  1.00  0.00    -0.023 NA
HETATM   24  N5  LIG X 999      49.009 135.026  21.889  1.00  0.00    -0.158 NA
HETATM   25  N6  LIG X 999      49.495 136.113  21.578  1.00  0.00     0.068 N 
ENDBRANCH  21  23
ENDBRANCH  10  18
ENDBRANCH   7   8
ENDBRANCH   4   7
ENDBRANCH   3   4
TORSDOF 5
ENDMDL
MODEL 3
REMARK VINA RESULT:      -4.6      2.556      6.018
REMARK  5 active torsions:
REMARK  status: ('A' for Active; 'I' for Inactive)
REMARK    1  A    between atoms: C3_3  and  N1_4 
REMARK    2  A    between atoms: N1_4  and  C6_7 
REMARK    3  A    between atoms: C6_7  and  C7_8 
REMARK    4  A    between atoms: C9_10  and  C10_11 
REMARK    5  A    between atoms: C11_14  and  N4_15 
ROOT
HETATM    1  C1  LIG X 999      48.977 125.565  22.302  1.00  0.00     0.013 C 
HETATM    2  C2  LIG X 999      47.997 125.966  22.879  1.00  0.00    -0.089 C 
HETATM    3  C3  LIG X 999      46.799 126.456  23.588  1.00  0.00     0.329 C 
ENDROOT
BRANCH   3   4
HETATM    4  N1  LIG X 999      45.567 125.662  23.294  1.00  0.00    -0.061 N 
HETATM    5  C4  LIG X 999      45.847 124.216  23.486  1.00  0.00     0.273 C 
HETATM    6  C5  LIG X 999      45.213 125.863  21.866  1.00  0.00     0.273 C 
BRANCH   4   7
HETATM    7  C6  LIG X 999      44.411 126.039  24.174  1.00  0.00     0.275 C 
BRANCH   7   8
HETATM    8  C7  LIG X 999      43.893 127.449  23.960  1.00  0.00    -0.035 C 
HETATM    9  C8  LIG X 999      44.686 128.516  24.193  1.00  0.00     0.001 C 
HETATM   10  C9  LIG X 999      44.232 129.906  23.801  1.00  0.00     0.054 C 
HETATM   11  C12 LIG X 999      44.977 130.985  24.625  1.00  0.00     0.023 C 
HETATM   12  C16 LIG X 999      42.712 130.026  24.120  1.00  0.00     0.028 C 
HETATM   13  C13 LIG X 999      44.444 132.398  24.310  1.00  0.00     0.002 C 
HETATM   14  C14 LIG X 999      42.924 132.500  24.523  1.00  0.00     0.001 C 
HETATM   15  C15 LIG X 999      42.160 131.412  23.751  1.00  0.00     0.010 C 
HETATM   16  C17 LIG X 999      41.943 128.881  23.511  1.00  0.00    -0.020 C 
HETATM   17  C18 LIG X 999      42.490 127.659  23.503  1.00  0.00     0.005 C 
BRANCH  10  18
HETATM   18  C10 LIG X 999      44.555 130.070  22.322  1.00  0.00     0.184 A 
HETATM   19  N2  LIG X 999      45.429 129.308  21.631  1.00  0.00    -0.124 NA
HETATM   20  N3  LIG X 999      45.476 129.799  20.402  1.00  0.00    -0.099 NA
HETATM   21  C11 LIG X 999      44.635 130.847  20.396  1.00  0.00     0.326 A 
HETATM   22  O1  LIG X 999      44.069 131.027  21.565  1.00  0.00    -0.255 OA
BRANCH  21  23
HETATM   23  N4  LIG X 999      44.398 131.662  19.252  1.00  0.00    -0.023 NA
HETATM   24  N5  LIG X 999      44.862 131.355  18.154  1.00  0.00    -0.158 NA
HETATM   25  N6  LIG X 999      45.329 131.048  17.057  1.00  0.00     0.068 N 
ENDBRANCH  21  23
ENDBRANCH  10  18
ENDBRANCH   7   8
ENDBRANCH   4   7
ENDBRANCH   3   4
TORSDOF 5
ENDMDL
MODEL 4
REMARK VINA RESULT:      -4.2      2.950      4.350
REMARK  5 active torsions:
REMARK  status: ('A' for Active; 'I' for Inactive)
REMARK    1  A    between atoms: C3_3  and  N1_4 
REMARK    2  A    between atoms: N1_4  and  C6_7 
REMARK    3  A    between atoms: C6_7  and  C7_8 
REMARK    4  A    between atoms: C9_10  and  C10_11 
REMARK    5  A    between atoms: C11_14  and  N4_15 
ROOT
HETATM    1  C1  LIG X 999      46.112 130.412  14.217  1.00  0.00     0.013 C 
HETATM    2  C2  LIG X 999      45.847 131.191  15.098  1.00  0.00    -0.089 C 
HETATM    3  C3  LIG X 999      45.524 132.146  16.177  1.00  0.00     0.329 C 
ENDROOT
BRANCH   3   4
HETATM    4  N1  LIG X 999      44.997 131.491  17.413  1.00  0.00    -0.061 N 
HETATM    5  C4  LIG X 999      45.540 130.112  17.518  1.00  0.00     0.273 C 
HETATM    6  C5  LIG X 999      43.521 131.383  17.290  1.00  0.00     0.273 C 
BRANCH   4   7
HETATM    7  C6  LIG X 999      45.362 132.237  18.663  1.00  0.00     0.275 C 
BRANCH   7   8
HETATM    8  C7  LIG X 999      44.574 131.826  19.892  1.00  0.00    -0.035 C 
HETATM    9  C8  LIG X 999      45.070 130.914  20.755  1.00  0.00     0.001 C 
HETATM   10  C9  LIG X 999      44.371 130.647  22.071  1.00  0.00     0.054 C 
HETATM   11  C12 LIG X 999      44.742 129.247  22.620  1.00  0.00     0.023 C 
HETATM   12  C16 LIG X 999      42.834 130.670  21.816  1.00  0.00     0.028 C 
HETATM   13  C13 LIG X 999      43.952 128.923  23.905  1.00  0.00     0.002 C 
HETATM   14  C14 LIG X 999      42.433 129.043  23.692  1.00  0.00     0.001 C 
HETATM   15  C15 LIG X 999      42.039 130.408  23.105  1.00  0.00     0.010 C 
HETATM   16  C17 LIG X 999      42.428 131.929  21.094  1.00  0.00    -0.020 C 
HETATM   17  C18 LIG X 999      43.231 132.424  20.144  1.00  0.00     0.005 C 
BRANCH  10  18
HETATM   18  C10 LIG X 999      44.840 131.724  23.040  1.00  0.00     0.184 A 
HETATM   19  N2  LIG X 999      44.109 132.219  24.060  1.00  0.00    -0.124 NA
HETATM   20  N3  LIG X 999      44.836 133.171  24.625  1.00  0.00    -0.099 NA
HETATM   21  C11 LIG X 999      45.978 133.224  23.919  1.00  0.00     0.326 A 
HETATM   22  O1  LIG X 999      45.992 132.348  22.944  1.00  0.00    -0.255 OA
BRANCH  21  23
HETATM   23  N4  LIG X 999      47.039 134.132  24.203  1.00  0.00    -0.023 NA
HETATM   24  N5  LIG X 999      47.874 134.412  23.342  1.00  0.00    -0.158 NA
HETATM   25  N6  LIG X 999      48.708 134.691  22.481  1.00  0.00     0.068 N 
ENDBRANCH  21  23
ENDBRANCH  10  18
ENDBRANCH   7   8
ENDBRANCH   4   7
ENDBRANCH   3   4
TORSDOF 5
ENDMDL
MODEL 5
REMARK VINA RESULT:      -4.2      3.283      5.976
REMARK  5 active torsions:
REMARK  status: ('A' for Active; 'I' for Inactive)
REMARK    1  A    between atoms: C3_3  and  N1_4 
REMARK    2  A    between atoms: N1_4  and  C6_7 
REMARK    3  A    between atoms: C6_7  and  C7_8 
REMARK    4  A    between atoms: C9_10  and  C10_11 
REMARK    5  A    between atoms: C11_14  and  N4_15 
ROOT
HETATM    1  C1  LIG X 999      44.824 131.329  18.753  1.00  0.00     0.013 C 
HETATM    2  C2  LIG X 999      44.897 131.512  19.942  1.00  0.00    -0.089 C 
HETATM    3  C3  LIG X 999      44.988 131.736  21.398  1.00  0.00     0.329 C 
ENDROOT
BRANCH   3   4
HETATM    4  N1  LIG X 999      44.487 130.585  22.210  1.00  0.00    -0.061 N 
HETATM    5  C4  LIG X 999      43.054 130.344  21.903  1.00  0.00     0.273 C 
HETATM    6  C5  LIG X 999      44.581 130.953  23.646  1.00  0.00     0.273 C 
BRANCH   4   7
HETATM    7  C6  LIG X 999      45.245 129.318  21.947  1.00  0.00     0.275 C 
BRANCH   7   8
HETATM    8  C7  LIG X 999      44.669 128.089  22.626  1.00  0.00    -0.035 C 
HETATM    9  C8  LIG X 999      44.503 126.939  21.942  1.00  0.00     0.001 C 
HETATM   10  C9  LIG X 999      44.108 125.669  22.665  1.00  0.00     0.054 C 
HETATM   11  C12 LIG X 999      43.442 124.663  21.694  1.00  0.00     0.023 C 
HETATM   12  C16 LIG X 999      43.063 126.040  23.759  1.00  0.00     0.028 C 
HETATM   13  C13 LIG X 999      42.939 123.410  22.442  1.00  0.00     0.002 C 
HETATM   14  C14 LIG X 999      41.985 123.773  23.593  1.00  0.00     0.001 C 
HETATM   15  C15 LIG X 999      42.603 124.805  24.551  1.00  0.00     0.010 C 
HETATM   16  C17 LIG X 999      43.570 127.165  24.625  1.00  0.00    -0.020 C 
HETATM   17  C18 LIG X 999      44.271 128.157  24.062  1.00  0.00     0.005 C 
BRANCH  10  18
HETATM   18  C10 LIG X 999      45.389 125.072  23.229  1.00  0.00     0.184 A 
HETATM   19  N2  LIG X 999      45.600 124.777  24.529  1.00  0.00    -0.124 NA
HETATM   20  N3  LIG X 999      46.846 124.337  24.625  1.00  0.00    -0.099 NA
HETATM   21  C11 LIG X 999      47.348 124.392  23.379  1.00  0.00     0.326 A 
HETATM   22  O1  LIG X 999      46.470 124.844  22.517  1.00  0.00    -0.255 OA
BRANCH  21  23
HETATM   23  N4  LIG X 999      48.679 124.007  23.048  1.00  0.00    -0.023 NA
HETATM   24  N5  LIG X 999      48.953 123.593  21.921  1.00  0.00    -0.158 NA
HETATM   25  N6  LIG X 999      49.224 123.179  20.794  1.00  0.00     0.068 N 
ENDBRANCH  21  23
ENDBRANCH  10  18
ENDBRANCH   7   8
ENDBRANCH   4   7
ENDBRANCH   3   4
TORSDOF 5
ENDMDL
MODEL 6
REMARK VINA RESULT:      -4.0      2.406      6.018
REMARK  5 active torsions:
REMARK  status: ('A' for Active; 'I' for Inactive)
REMARK    1  A    between atoms: C3_3  and  N1_4 
REMARK    2  A    between atoms: N1_4  and  C6_7 
REMARK    3  A    between atoms: C6_7  and  C7_8 
REMARK    4  A    between atoms: C9_10  and  C10_11 
REMARK    5  A    between atoms: C11_14  and  N4_15 
ROOT
HETATM    1  C1  LIG X 999      47.303 123.890  21.044  1.00  0.00     0.013 C 
HETATM    2  C2  LIG X 999      47.095 124.560  22.024  1.00  0.00    -0.089 C 
HETATM    3  C3  LIG X 999      46.840 125.379  23.225  1.00  0.00     0.329 C 
ENDROOT
BRANCH   3   4
HETATM    4  N1  LIG X 999      45.444 125.906  23.302  1.00  0.00    -0.061 N 
HETATM    5  C4  LIG X 999      45.282 126.714  24.538  1.00  0.00     0.273 C 
HETATM    6  C5  LIG X 999      44.515 124.752  23.397  1.00  0.00     0.273 C 
BRANCH   4   7
HETATM    7  C6  LIG X 999      45.085 126.767  22.126  1.00  0.00     0.275 C 
BRANCH   7   8
HETATM    8  C7  LIG X 999      44.330 128.034  22.483  1.00  0.00    -0.035 C 
HETATM    9  C8  LIG X 999      44.988 129.196  22.673  1.00  0.00     0.001 C 
HETATM   10  C9  LIG X 999      44.221 130.491  22.841  1.00  0.00     0.054 C 
HETATM   11  C12 LIG X 999      45.076 131.549  23.581  1.00  0.00     0.023 C 
HETATM   12  C16 LIG X 999      42.963 130.198  23.713  1.00  0.00     0.028 C 
HETATM   13  C13 LIG X 999      44.266 132.834  23.853  1.00  0.00     0.002 C 
HETATM   14  C14 LIG X 999      42.967 132.542  24.624  1.00  0.00     0.001 C 
HETATM   15  C15 LIG X 999      42.118 131.462  23.936  1.00  0.00     0.010 C 
HETATM   16  C17 LIG X 999      42.184 129.033  23.157  1.00  0.00    -0.020 C 
HETATM   17  C18 LIG X 999      42.848 127.992  22.639  1.00  0.00     0.005 C 
BRANCH  10  18
HETATM   18  C10 LIG X 999      43.885 130.984  21.441  1.00  0.00     0.184 A 
HETATM   19  N2  LIG X 999      42.651 131.328  21.015  1.00  0.00    -0.124 NA
HETATM   20  N3  LIG X 999      42.762 131.642  19.733  1.00  0.00    -0.099 NA
HETATM   21  C11 LIG X 999      44.059 131.467  19.426  1.00  0.00     0.326 A 
HETATM   22  O1  LIG X 999      44.756 131.060  20.460  1.00  0.00    -0.255 OA
BRANCH  21  23
HETATM   23  N4  LIG X 999      44.600 131.695  18.128  1.00  0.00    -0.023 NA
HETATM   24  N5  LIG X 999      45.287 130.838  17.574  1.00  0.00    -0.158 NA
HETATM   25  N6  LIG X 999      45.976 129.980  17.021  1.00  0.00     0.068 N 
ENDBRANCH  21  23
ENDBRANCH  10  18
ENDBRANCH   7   8
ENDBRANCH   4   7
ENDBRANCH   3   4
TORSDOF 5
ENDMDL
MODEL 7
REMARK VINA RESULT:      -3.7      5.130      8.161
REMARK  5 active torsions:
REMARK  status: ('A' for Active; 'I' for Inactive)
REMARK    1  A    between atoms: C3_3  and  N1_4 
REMARK    2  A    between atoms: N1_4  and  C6_7 
REMARK    3  A    between atoms: C6_7  and  C7_8 
REMARK    4  A    between atoms: C9_10  and  C10_11 
REMARK    5  A    between atoms: C11_14  and  N4_15 
ROOT
HETATM    1  C1  LIG X 999      52.037 124.897  20.321  1.00  0.00     0.013 C 
HETATM    2  C2  LIG X 999      51.080 124.763  21.043  1.00  0.00    -0.089 C 
HETATM    3  C3  LIG X 999      49.910 124.600  21.928  1.00  0.00     0.329 C 
ENDROOT
BRANCH   3   4
HETATM    4  N1  LIG X 999      49.694 123.191  22.377  1.00  0.00    -0.061 N 
HETATM    5  C4  LIG X 999      50.980 122.616  22.851  1.00  0.00     0.273 C 
HETATM    6  C5  LIG X 999      49.252 122.392  21.206  1.00  0.00     0.273 C 
BRANCH   4   7
HETATM    7  C6  LIG X 999      48.692 123.084  23.488  1.00  0.00     0.275 C 
BRANCH   7   8
HETATM    8  C7  LIG X 999      47.252 123.288  23.057  1.00  0.00    -0.035 C 
HETATM    9  C8  LIG X 999      46.321 123.700  23.942  1.00  0.00     0.001 C 
HETATM   10  C9  LIG X 999      44.934 124.083  23.470  1.00  0.00     0.054 C 
HETATM   11  C12 LIG X 999      43.907 123.975  24.625  1.00  0.00     0.023 C 
HETATM   12  C16 LIG X 999      44.508 123.079  22.357  1.00  0.00     0.028 C 
HETATM   13  C13 LIG X 999      42.474 124.257  24.129  1.00  0.00     0.002 C 
HETATM   14  C14 LIG X 999      42.080 123.340  22.958  1.00  0.00     0.001 C 
HETATM   15  C15 LIG X 999      43.105 123.393  21.814  1.00  0.00     0.010 C 
HETATM   16  C17 LIG X 999      45.567 122.981  21.289  1.00  0.00    -0.020 C 
HETATM   17  C18 LIG X 999      46.858 123.016  21.645  1.00  0.00     0.005 C 
BRANCH  10  18
HETATM   18  C10 LIG X 999      45.019 125.523  22.987  1.00  0.00     0.184 A 
HETATM   19  N2  LIG X 999      45.977 126.011  22.169  1.00  0.00    -0.124 NA
HETATM   20  N3  LIG X 999      45.740 127.307  22.033  1.00  0.00    -0.099 NA
HETATM   21  C11 LIG X 999      44.652 127.559  22.781  1.00  0.00     0.326 A 
HETATM   22  O1  LIG X 999      44.205 126.478  23.374  1.00  0.00    -0.255 OA
BRANCH  21  23
HETATM   23  N4  LIG X 999      44.067 128.851  22.912  1.00  0.00    -0.023 NA
HETATM   24  N5  LIG X 999      44.471 129.796  22.235  1.00  0.00    -0.158 NA
HETATM   25  N6  LIG X 999      44.877 130.741  21.558  1.00  0.00     0.068 N 
ENDBRANCH  21  23
ENDBRANCH  10  18
ENDBRANCH   7   8
ENDBRANCH   4   7
ENDBRANCH   3   4
TORSDOF 5
ENDMDL
MODEL 8
REMARK VINA RESULT:      -3.0      2.654      6.206
REMARK  5 active torsions:
REMARK  status: ('A' for Active; 'I' for Inactive)
REMARK    1  A    between atoms: C3_3  and  N1_4 
REMARK    2  A    between atoms: N1_4  and  C6_7 
REMARK    3  A    between atoms: C6_7  and  C7_8 
REMARK    4  A    between atoms: C9_10  and  C10_11 
REMARK    5  A    between atoms: C11_14  and  N4_15 
ROOT
HETATM    1  C1  LIG X 999      46.301 126.239  22.337  1.00  0.00     0.013 C 
HETATM    2  C2  LIG X 999      45.101 126.294  22.435  1.00  0.00    -0.089 C 
HETATM    3  C3  LIG X 999      43.631 126.363  22.554  1.00  0.00     0.329 C 
ENDROOT
BRANCH   3   4
HETATM    4  N1  LIG X 999      43.165 127.081  23.779  1.00  0.00    -0.061 N 
HETATM    5  C4  LIG X 999      44.340 127.544  24.563  1.00  0.00     0.273 C 
HETATM    6  C5  LIG X 999      42.414 126.120  24.625  1.00  0.00     0.273 C 
BRANCH   4   7
HETATM    7  C6  LIG X 999      42.311 128.273  23.462  1.00  0.00     0.275 C 
BRANCH   7   8
HETATM    8  C7  LIG X 999      43.089 129.529  23.117  1.00  0.00    -0.035 C 
HETATM    9  C8  LIG X 999      43.987 129.528  22.110  1.00  0.00     0.001 C 
HETATM   10  C9  LIG X 999      44.620 130.823  21.648  1.00  0.00     0.054 C 
HETATM   11  C12 LIG X 999      45.966 130.556  20.928  1.00  0.00     0.023 C 
HETATM   12  C16 LIG X 999      44.916 131.693  22.906  1.00  0.00     0.028 C 
HETATM   13  C13 LIG X 999      46.670 131.875  20.549  1.00  0.00     0.002 C 
HETATM   14  C14 LIG X 999      46.874 132.789  21.770  1.00  0.00     0.001 C 
HETATM   15  C15 LIG X 999      45.562 133.036  22.531  1.00  0.00     0.010 C 
HETATM   16  C17 LIG X 999      43.686 131.827  23.767  1.00  0.00    -0.020 C 
HETATM   17  C18 LIG X 999      42.870 130.775  23.906  1.00  0.00     0.005 C 
BRANCH  10  18
HETATM   18  C10 LIG X 999      43.637 131.469  20.683  1.00  0.00     0.184 A 
HETATM   19  N2  LIG X 999      42.526 132.146  21.045  1.00  0.00    -0.124 NA
HETATM   20  N3  LIG X 999      41.910 132.496  19.926  1.00  0.00    -0.099 NA
HETATM   21  C11 LIG X 999      42.664 132.009  18.927  1.00  0.00     0.326 A 
HETATM   22  O1  LIG X 999      43.720 131.374  19.375  1.00  0.00    -0.255 OA
BRANCH  21  23
HETATM   23  N4  LIG X 999      42.342 132.166  17.547  1.00  0.00    -0.023 NA
HETATM   24  N5  LIG X 999      43.118 131.780  16.673  1.00  0.00    -0.158 NA
HETATM   25  N6  LIG X 999      43.895 131.394  15.799  1.00  0.00     0.068 N 
ENDBRANCH  21  23
ENDBRANCH  10  18
ENDBRANCH   7   8
ENDBRANCH   4   7
ENDBRANCH   3   4
TORSDOF 5
ENDMDL
