MODEL 1
REMARK VINA RESULT:      -8.1      0.000      0.000
REMARK  3 active torsions:
REMARK  status: ('A' for Active; 'I' for Inactive)
REMARK    1  A    between atoms: C7_9  and  C8_10 
REMARK    2  A    between atoms: C9_13  and  N4_14 
REMARK    3  A    between atoms: N7_23  and  C14_24 
ROOT
HETATM    1  N4  LIG X 999      46.445 129.714  14.086  1.00  0.00    -0.023 NA
HETATM    2  N5  LIG X 999      47.622 129.601  13.747  1.00  0.00    -0.158 NA
HETATM    3  N6  LIG X 999      48.800 129.489  13.408  1.00  0.00     0.068 N 
ENDROOT
BRANCH   1   4
HETATM    4  C9  LIG X 999      46.090 130.454  15.253  1.00  0.00     0.326 A 
HETATM    5  N3  LIG X 999      45.964 131.792  15.276  1.00  0.00    -0.099 NA
HETATM    6  N2  LIG X 999      45.629 132.100  16.520  1.00  0.00    -0.119 NA
HETATM    7  C8  LIG X 999      45.574 130.939  17.204  1.00  0.00     0.205 A 
HETATM    8  O1  LIG X 999      45.848 129.919  16.425  1.00  0.00    -0.252 OA
BRANCH   7   9
HETATM    9  C7  LIG X 999      45.194 130.836  18.627  1.00  0.00     0.032 A 
HETATM   10  C6  LIG X 999      44.024 131.456  19.168  1.00  0.00     0.020 A 
HETATM   11  C1  LIG X 999      42.890 132.121  18.445  1.00  0.00     0.060 A 
HETATM   12  C5  LIG X 999      43.867 131.378  20.541  1.00  0.00     0.019 A 
HETATM   13  N1  LIG X 999      42.817 132.111  17.152  1.00  0.00    -0.299 NA
HETATM   14  C2  LIG X 999      41.769 132.717  19.250  1.00  0.00     0.034 A 
HETATM   15  H1  LIG X 999      42.015 132.539  16.639  1.00  0.00     0.187 HD
HETATM   16  C3  LIG X 999      41.733 132.601  20.594  1.00  0.00     0.033 A 
HETATM   17  C4  LIG X 999      42.833 131.888  21.262  1.00  0.00     0.048 A 
HETATM   18  N7  LIG X 999      42.998 131.579  22.572  1.00  0.00    -0.324 N 
HETATM   19  C13 LIG X 999      44.146 130.850  22.641  1.00  0.00     0.193 A 
HETATM   20  C12 LIG X 999      44.706 130.722  21.381  1.00  0.00     0.032 A 
HETATM   21  O2  LIG X 999      44.658 130.303  23.812  1.00  0.00    -0.171 OA
HETATM   22  C11 LIG X 999      45.829 130.065  20.895  1.00  0.00     0.018 A 
HETATM   23  C10 LIG X 999      46.073 130.130  19.505  1.00  0.00     0.018 A 
BRANCH  18  24
HETATM   24  C14 LIG X 999      42.076 131.865  23.671  1.00  0.00     0.127 C 
HETATM   25  C15 LIG X 999      42.690 132.882  24.624  1.00  0.00     0.027 C 
ENDBRANCH  18  24
ENDBRANCH   7   9
ENDBRANCH   1   4
TORSDOF 3
ENDMDL
MODEL 2
REMARK VINA RESULT:      -7.2      1.634      2.886
REMARK  3 active torsions:
REMARK  status: ('A' for Active; 'I' for Inactive)
REMARK    1  A    between atoms: C7_9  and  C8_10 
REMARK    2  A    between atoms: C9_13  and  N4_14 
REMARK    3  A    between atoms: N7_23  and  C14_24 
ROOT
HETATM    1  N4  LIG X 999      46.886 131.362  13.858  1.00  0.00    -0.023 NA
HETATM    2  N5  LIG X 999      47.666 130.437  13.635  1.00  0.00    -0.158 NA
HETATM    3  N6  LIG X 999      48.447 129.513  13.412  1.00  0.00     0.068 N 
ENDROOT
BRANCH   1   4
HETATM    4  C9  LIG X 999      45.749 131.170  14.698  1.00  0.00     0.326 A 
HETATM    5  N3  LIG X 999      44.738 130.336  14.402  1.00  0.00    -0.099 NA
HETATM    6  N2  LIG X 999      43.884 130.434  15.410  1.00  0.00    -0.119 NA
HETATM    7  C8  LIG X 999      44.407 131.328  16.273  1.00  0.00     0.205 A 
HETATM    8  O1  LIG X 999      45.562 131.779  15.843  1.00  0.00    -0.252 OA
BRANCH   7   9
HETATM    9  C7  LIG X 999      43.781 131.698  17.559  1.00  0.00     0.032 A 
HETATM   10  C6  LIG X 999      44.319 131.314  18.827  1.00  0.00     0.020 A 
HETATM   11  C1  LIG X 999      45.645 130.682  19.135  1.00  0.00     0.060 A 
HETATM   12  C5  LIG X 999      43.556 131.625  19.938  1.00  0.00     0.019 A 
HETATM   13  N1  LIG X 999      46.534 130.496  18.212  1.00  0.00    -0.299 NA
HETATM   14  C2  LIG X 999      45.976 130.357  20.565  1.00  0.00     0.034 A 
HETATM   15  H1  LIG X 999      47.473 130.090  18.420  1.00  0.00     0.187 HD
HETATM   16  C3  LIG X 999      45.139 130.687  21.570  1.00  0.00     0.033 A 
HETATM   17  C4  LIG X 999      43.876 131.361  21.233  1.00  0.00     0.048 A 
HETATM   18  N7  LIG X 999      42.910 131.851  22.048  1.00  0.00    -0.324 N 
HETATM   19  C13 LIG X 999      41.995 132.441  21.229  1.00  0.00     0.193 A 
HETATM   20  C12 LIG X 999      42.381 132.302  19.906  1.00  0.00     0.032 A 
HETATM   21  O2  LIG X 999      40.856 133.101  21.672  1.00  0.00    -0.171 OA
HETATM   22  C11 LIG X 999      41.843 132.737  18.701  1.00  0.00     0.018 A 
HETATM   23  C10 LIG X 999      42.552 132.425  17.519  1.00  0.00     0.018 A 
BRANCH  18  24
HETATM   24  C14 LIG X 999      42.902 131.853  23.511  1.00  0.00     0.127 C 
HETATM   25  C15 LIG X 999      42.389 130.519  24.038  1.00  0.00     0.027 C 
ENDBRANCH  18  24
ENDBRANCH   7   9
ENDBRANCH   1   4
TORSDOF 3
ENDMDL
MODEL 3
REMARK VINA RESULT:      -5.7      6.914      8.067
REMARK  3 active torsions:
REMARK  status: ('A' for Active; 'I' for Inactive)
REMARK    1  A    between atoms: C7_9  and  C8_10 
REMARK    2  A    between atoms: C9_13  and  N4_14 
REMARK    3  A    between atoms: N7_23  and  C14_24 
ROOT
HETATM    1  N4  LIG X 999      49.189 122.954  19.895  1.00  0.00    -0.023 NA
HETATM    2  N5  LIG X 999      49.983 123.385  19.061  1.00  0.00    -0.158 NA
HETATM    3  N6  LIG X 999      50.777 123.817  18.225  1.00  0.00     0.068 N 
ENDROOT
BRANCH   1   4
HETATM    4  C9  LIG X 999      48.601 123.824  20.860  1.00  0.00     0.326 A 
HETATM    5  N3  LIG X 999      49.312 124.569  21.722  1.00  0.00    -0.099 NA
HETATM    6  N2  LIG X 999      48.422 125.231  22.446  1.00  0.00    -0.119 NA
HETATM    7  C8  LIG X 999      47.206 124.856  22.000  1.00  0.00     0.205 A 
HETATM    8  O1  LIG X 999      47.310 123.995  21.015  1.00  0.00    -0.252 OA
BRANCH   7   9
HETATM    9  C7  LIG X 999      45.934 125.396  22.519  1.00  0.00     0.032 A 
HETATM   10  C6  LIG X 999      44.862 124.566  22.973  1.00  0.00     0.020 A 
HETATM   11  C1  LIG X 999      44.855 123.084  23.211  1.00  0.00     0.060 A 
HETATM   12  C5  LIG X 999      43.686 125.211  23.312  1.00  0.00     0.019 A 
HETATM   13  N1  LIG X 999      45.935 122.379  23.106  1.00  0.00    -0.299 NA
HETATM   14  C2  LIG X 999      43.584 122.434  23.682  1.00  0.00     0.034 A 
HETATM   15  H1  LIG X 999      45.950 121.354  23.304  1.00  0.00     0.187 HD
HETATM   16  C3  LIG X 999      42.484 123.165  23.959  1.00  0.00     0.033 A 
HETATM   17  C4  LIG X 999      42.550 124.622  23.772  1.00  0.00     0.048 A 
HETATM   18  N7  LIG X 999      41.622 125.574  24.039  1.00  0.00    -0.324 N 
HETATM   19  C13 LIG X 999      42.217 126.765  23.753  1.00  0.00     0.193 A 
HETATM   20  C12 LIG X 999      43.506 126.555  23.290  1.00  0.00     0.032 A 
HETATM   21  O2  LIG X 999      41.613 128.005  23.925  1.00  0.00    -0.171 OA
HETATM   22  C11 LIG X 999      44.533 127.405  22.901  1.00  0.00     0.018 A 
HETATM   23  C10 LIG X 999      45.755 126.814  22.508  1.00  0.00     0.018 A 
BRANCH  18  24
HETATM   24  C14 LIG X 999      40.295 125.378  24.624  1.00  0.00     0.127 C 
HETATM   25  C15 LIG X 999      39.326 124.852  23.574  1.00  0.00     0.027 C 
ENDBRANCH  18  24
ENDBRANCH   7   9
ENDBRANCH   1   4
TORSDOF 3
ENDMDL
MODEL 4
REMARK VINA RESULT:      -5.3      7.262      8.272
REMARK  3 active torsions:
REMARK  status: ('A' for Active; 'I' for Inactive)
REMARK    1  A    between atoms: C7_9  and  C8_10 
REMARK    2  A    between atoms: C9_13  and  N4_14 
REMARK    3  A    between atoms: N7_23  and  C14_24 
ROOT
HETATM    1  N4  LIG X 999      49.777 123.287  19.457  1.00  0.00    -0.023 NA
HETATM    2  N5  LIG X 999      50.952 122.953  19.596  1.00  0.00    -0.158 NA
HETATM    3  N6  LIG X 999      52.129 122.619  19.735  1.00  0.00     0.068 N 
ENDROOT
BRANCH   1   4
HETATM    4  C9  LIG X 999      48.831 123.079  20.505  1.00  0.00     0.326 A 
HETATM    5  N3  LIG X 999      49.096 122.375  21.618  1.00  0.00    -0.099 NA
HETATM    6  N2  LIG X 999      47.984 122.407  22.337  1.00  0.00    -0.119 NA
HETATM    7  C8  LIG X 999      47.086 123.121  21.628  1.00  0.00     0.205 A 
HETATM    8  O1  LIG X 999      47.606 123.546  20.501  1.00  0.00    -0.252 OA
BRANCH   7   9
HETATM    9  C7  LIG X 999      45.721 123.429  22.097  1.00  0.00     0.032 A 
HETATM   10  C6  LIG X 999      45.343 124.708  22.612  1.00  0.00     0.020 A 
HETATM   11  C1  LIG X 999      46.117 125.994  22.602  1.00  0.00     0.060 A 
HETATM   12  C5  LIG X 999      44.064 124.809  23.131  1.00  0.00     0.019 A 
HETATM   13  N1  LIG X 999      47.255 126.091  21.992  1.00  0.00    -0.299 NA
HETATM   14  C2  LIG X 999      45.501 127.215  23.226  1.00  0.00     0.034 A 
HETATM   15  H1  LIG X 999      47.786 126.988  21.947  1.00  0.00     0.187 HD
HETATM   16  C3  LIG X 999      44.248 127.188  23.726  1.00  0.00     0.033 A 
HETATM   17  C4  LIG X 999      43.497 125.925  23.662  1.00  0.00     0.048 A 
HETATM   18  N7  LIG X 999      42.219 125.655  24.025  1.00  0.00    -0.324 N 
HETATM   19  C13 LIG X 999      42.002 124.354  23.688  1.00  0.00     0.193 A 
HETATM   20  C12 LIG X 999      43.148 123.808  23.134  1.00  0.00     0.032 A 
HETATM   21  O2  LIG X 999      40.794 123.689  23.862  1.00  0.00    -0.171 OA
HETATM   22  C11 LIG X 999      43.454 122.562  22.602  1.00  0.00     0.018 A 
HETATM   23  C10 LIG X 999      44.755 122.375  22.084  1.00  0.00     0.018 A 
BRANCH  18  24
HETATM   24  C14 LIG X 999      41.234 126.595  24.561  1.00  0.00     0.127 C 
HETATM   25  C15 LIG X 999      40.338 127.115  23.445  1.00  0.00     0.027 C 
ENDBRANCH  18  24
ENDBRANCH   7   9
ENDBRANCH   1   4
TORSDOF 3
ENDMDL
