REMARK VINA RESULT:      -5.9      0.000      0.000
REMARK  5 active torsions:
REMARK  status: ('A' for Active; 'I' for Inactive)
REMARK    1  A    between atoms: C3_3  and  C4_4 
REMARK    2  A    between atoms: C4_4  and  S1_5 
REMARK    3  A    between atoms: S1_5  and  C5_6 
REMARK    4  A    between atoms: C6_7  and  N1_8 
REMARK    5  A    between atoms: C10_12  and  N2_13 
ROOT
HETATM    1  C1  LIG X 999      46.486 125.743  22.290  1.00  0.00     0.112 C 
HETATM    2  C2  LIG X 999      45.617 126.894  22.528  1.00  0.00    -0.110 C 
HETATM    3  C3  LIG X 999      44.904 127.844  22.731  1.00  0.00    -0.097 C 
ENDROOT
BRANCH   3   4
HETATM    4  C4  LIG X 999      44.039 128.997  22.989  1.00  0.00     0.173 C 
BRANCH   4   5
HETATM    5  S1  LIG X 999      44.976 130.553  22.809  1.00  0.00    -0.115 SA
BRANCH   5   6
HETATM    6  C5  LIG X 999      43.668 131.426  21.906  1.00  0.00     0.038 A 
HETATM    7  C6  LIG X 999      42.628 132.056  22.625  1.00  0.00     0.043 A 
HETATM    8  C7  LIG X 999      41.608 132.714  21.934  1.00  0.00     0.031 A 
HETATM    9  C8  LIG X 999      41.598 132.763  20.544  1.00  0.00     0.017 A 
HETATM   10  C9  LIG X 999      42.616 132.150  19.792  1.00  0.00     0.002 A 
HETATM   11  C10 LIG X 999      42.619 132.191  18.364  1.00  0.00     0.045 A 
HETATM   12  C14 LIG X 999      43.682 131.493  20.487  1.00  0.00    -0.004 A 
HETATM   13  C11 LIG X 999      43.714 131.629  17.690  1.00  0.00     0.003 A 
HETATM   14  C12 LIG X 999      44.726 131.015  18.356  1.00  0.00    -0.021 A 
HETATM   15  C18 LIG X 999      43.942 131.532  16.226  1.00  0.00     0.278 C 
HETATM   16  C13 LIG X 999      44.737 130.917  19.742  1.00  0.00     0.023 A 
HETATM   17  C15 LIG X 999      45.715 130.450  17.414  1.00  0.00     0.276 C 
HETATM   18  N3  LIG X 999      45.304 130.934  16.060  1.00  0.00    -0.067 N 
HETATM   19  C16 LIG X 999      46.256 131.963  15.579  1.00  0.00     0.272 C 
HETATM   20  C17 LIG X 999      45.272 129.815  15.091  1.00  0.00     0.272 C 
BRANCH   7  21
HETATM   21  N1  LIG X 999      42.596 132.059  24.061  1.00  0.00    -0.398 N 
HETATM   22  H6  LIG X 999      41.744 132.319  24.602  1.00  0.00     0.156 HD
HETATM   23  H7  LIG X 999      43.438 131.778  24.609  1.00  0.00     0.156 HD
ENDBRANCH   7  21
BRANCH  11  24
HETATM   24  N2  LIG X 999      41.539 132.757  17.604  1.00  0.00    -0.398 N 
HETATM   25  H10 LIG X 999      41.625 132.892  16.573  1.00  0.00     0.156 HD
HETATM   26  H11 LIG X 999      40.597 132.934  18.010  1.00  0.00     0.156 HD
ENDBRANCH  11  24
ENDBRANCH   5   6
ENDBRANCH   4   5
ENDBRANCH   3   4
TORSDOF 5
