MODEL 1
REMARK VINA RESULT:      -8.8      0.000      0.000
REMARK  3 active torsions:
REMARK  status: ('A' for Active; 'I' for Inactive)
REMARK    1  A    between atoms: C3_3  and  S1_4 
REMARK    2  A    between atoms: S1_4  and  C4_7 
REMARK    3  A    between atoms: C12_15  and  N1_16 
ROOT
HETATM    1  C1  LIG X 999      47.667 130.919  12.955  1.00  0.00     0.013 C 
HETATM    2  C2  LIG X 999      47.059 131.391  13.883  1.00  0.00    -0.102 C 
HETATM    3  C3  LIG X 999      46.320 131.964  15.011  1.00  0.00     0.233 C 
ENDROOT
BRANCH   3   4
HETATM    4  S1  LIG X 999      45.765 130.678  16.122  1.00  0.00     0.159 S 
HETATM    5  O1  LIG X 999      46.920 129.787  16.488  1.00  0.00    -0.227 OA
HETATM    6  O2  LIG X 999      44.725 129.859  15.411  1.00  0.00    -0.227 OA
BRANCH   4   7
HETATM    7  C4  LIG X 999      45.035 131.376  17.609  1.00  0.00     0.116 C 
HETATM    8  C5  LIG X 999      45.393 130.537  18.844  1.00  0.00     0.059 C 
HETATM    9  C6  LIG X 999      44.643 130.973  20.079  1.00  0.00    -0.049 A 
HETATM   10  C7  LIG X 999      45.132 130.580  21.335  1.00  0.00     0.007 A 
HETATM   11  C11 LIG X 999      43.428 131.699  19.997  1.00  0.00    -0.019 A 
HETATM   12  C8  LIG X 999      44.458 130.940  22.503  1.00  0.00     0.001 A 
HETATM   13  C9  LIG X 999      43.288 131.694  22.430  1.00  0.00     0.001 A 
HETATM   14  C10 LIG X 999      42.780 132.079  21.189  1.00  0.00     0.010 A 
HETATM   15  C12 LIG X 999      42.883 132.186  18.665  1.00  0.00     0.252 C 
HETATM   16  C13 LIG X 999      43.511 131.452  17.463  1.00  0.00     0.060 C 
BRANCH  15  17
HETATM   17  N1  LIG X 999      41.422 132.059  18.629  1.00  0.00     0.087 N 
HETATM   18  H12 LIG X 999      41.040 132.292  19.574  1.00  0.00     0.313 HD
HETATM   19  H13 LIG X 999      41.031 132.751  17.949  1.00  0.00     0.313 HD
ENDBRANCH  15  17
ENDBRANCH   4   7
ENDBRANCH   3   4
TORSDOF 3
ENDMDL
MODEL 2
REMARK VINA RESULT:      -8.7      1.663      2.449
REMARK  3 active torsions:
REMARK  status: ('A' for Active; 'I' for Inactive)
REMARK    1  A    between atoms: C3_3  and  S1_4 
REMARK    2  A    between atoms: S1_4  and  C4_7 
REMARK    3  A    between atoms: C12_15  and  N1_16 
ROOT
HETATM    1  C1  LIG X 999      47.743 131.000  12.953  1.00  0.00     0.013 C 
HETATM    2  C2  LIG X 999      47.154 131.339  13.948  1.00  0.00    -0.102 C 
HETATM    3  C3  LIG X 999      46.436 131.750  15.158  1.00  0.00     0.233 C 
ENDROOT
BRANCH   3   4
HETATM    4  S1  LIG X 999      44.962 130.765  15.384  1.00  0.00     0.159 S 
HETATM    5  O1  LIG X 999      45.189 129.377  14.855  1.00  0.00    -0.227 OA
HETATM    6  O2  LIG X 999      43.845 131.405  14.608  1.00  0.00    -0.227 OA
BRANCH   4   7
HETATM    7  C4  LIG X 999      44.492 130.690  17.118  1.00  0.00     0.116 C 
HETATM    8  C5  LIG X 999      43.490 131.801  17.465  1.00  0.00     0.059 C 
HETATM    9  C6  LIG X 999      43.221 131.896  18.948  1.00  0.00    -0.049 A 
HETATM   10  C7  LIG X 999      42.069 132.574  19.378  1.00  0.00     0.007 A 
HETATM   11  C11 LIG X 999      44.133 131.389  19.906  1.00  0.00    -0.019 A 
HETATM   12  C8  LIG X 999      41.792 132.707  20.739  1.00  0.00     0.001 A 
HETATM   13  C9  LIG X 999      42.662 132.168  21.686  1.00  0.00     0.001 A 
HETATM   14  C10 LIG X 999      43.820 131.506  21.275  1.00  0.00     0.010 A 
HETATM   15  C12 LIG X 999      45.369 130.608  19.490  1.00  0.00     0.252 C 
HETATM   16  C13 LIG X 999      45.734 130.821  18.007  1.00  0.00     0.060 C 
BRANCH  15  17
HETATM   17  N1  LIG X 999      46.508 130.954  20.347  1.00  0.00     0.087 N 
HETATM   18  H12 LIG X 999      47.218 131.467  19.775  1.00  0.00     0.313 HD
HETATM   19  H13 LIG X 999      46.187 131.597  21.107  1.00  0.00     0.313 HD
ENDBRANCH  15  17
ENDBRANCH   4   7
ENDBRANCH   3   4
TORSDOF 3
ENDMDL
MODEL 3
REMARK VINA RESULT:      -7.2      3.565      6.047
REMARK  3 active torsions:
REMARK  status: ('A' for Active; 'I' for Inactive)
REMARK    1  A    between atoms: C3_3  and  S1_4 
REMARK    2  A    between atoms: S1_4  and  C4_7 
REMARK    3  A    between atoms: C12_15  and  N1_16 
ROOT
HETATM    1  C1  LIG X 999      44.984 127.890  22.680  1.00  0.00     0.013 C 
HETATM    2  C2  LIG X 999      44.212 128.700  23.130  1.00  0.00    -0.102 C 
HETATM    3  C3  LIG X 999      43.275 129.684  23.676  1.00  0.00     0.233 C 
ENDROOT
BRANCH   3   4
HETATM    4  S1  LIG X 999      43.450 131.256  22.841  1.00  0.00     0.159 S 
HETATM    5  O1  LIG X 999      44.759 131.891  23.221  1.00  0.00    -0.227 OA
HETATM    6  O2  LIG X 999      42.328 132.151  23.285  1.00  0.00    -0.227 OA
BRANCH   4   7
HETATM    7  C4  LIG X 999      43.362 131.056  21.057  1.00  0.00     0.116 C 
HETATM    8  C5  LIG X 999      44.758 131.138  20.425  1.00  0.00     0.059 C 
HETATM    9  C6  LIG X 999      44.711 131.171  18.916  1.00  0.00    -0.049 A 
HETATM   10  C7  LIG X 999      45.878 130.857  18.201  1.00  0.00     0.007 A 
HETATM   11  C11 LIG X 999      43.550 131.583  18.215  1.00  0.00    -0.019 A 
HETATM   12  C8  LIG X 999      45.887 130.898  16.806  1.00  0.00     0.001 A 
HETATM   13  C9  LIG X 999      44.733 131.257  16.110  1.00  0.00     0.001 A 
HETATM   14  C10 LIG X 999      43.570 131.588  16.806  1.00  0.00     0.010 A 
HETATM   15  C12 LIG X 999      42.251 131.889  18.942  1.00  0.00     0.252 C 
HETATM   16  C13 LIG X 999      42.459 132.135  20.450  1.00  0.00     0.060 C 
BRANCH  15  17
HETATM   17  N1  LIG X 999      41.577 133.038  18.329  1.00  0.00     0.087 N 
HETATM   18  H12 LIG X 999      41.299 132.786  17.353  1.00  0.00     0.313 HD
HETATM   19  H13 LIG X 999      40.703 133.252  18.863  1.00  0.00     0.313 HD
ENDBRANCH  15  17
ENDBRANCH   4   7
ENDBRANCH   3   4
TORSDOF 3
ENDMDL
MODEL 4
REMARK VINA RESULT:      -7.0      1.470      1.751
REMARK  3 active torsions:
REMARK  status: ('A' for Active; 'I' for Inactive)
REMARK    1  A    between atoms: C3_3  and  S1_4 
REMARK    2  A    between atoms: S1_4  and  C4_7 
REMARK    3  A    between atoms: C12_15  and  N1_16 
ROOT
HETATM    1  C1  LIG X 999      43.163 131.798  13.714  1.00  0.00     0.013 C 
HETATM    2  C2  LIG X 999      43.824 131.025  14.361  1.00  0.00    -0.102 C 
HETATM    3  C3  LIG X 999      44.627 130.086  15.149  1.00  0.00     0.233 C 
ENDROOT
BRANCH   3   4
HETATM    4  S1  LIG X 999      45.807 130.962  16.166  1.00  0.00     0.159 S 
HETATM    5  O1  LIG X 999      46.382 132.120  15.399  1.00  0.00    -0.227 OA
HETATM    6  O2  LIG X 999      46.918 130.014  16.520  1.00  0.00    -0.227 OA
BRANCH   4   7
HETATM    7  C4  LIG X 999      45.044 131.551  17.684  1.00  0.00     0.116 C 
HETATM    8  C5  LIG X 999      45.431 130.663  18.874  1.00  0.00     0.059 C 
HETATM    9  C6  LIG X 999      44.659 131.003  20.127  1.00  0.00    -0.049 A 
HETATM   10  C7  LIG X 999      45.160 130.564  21.364  1.00  0.00     0.007 A 
HETATM   11  C11 LIG X 999      43.416 131.682  20.077  1.00  0.00    -0.019 A 
HETATM   12  C8  LIG X 999      44.468 130.835  22.544  1.00  0.00     0.001 A 
HETATM   13  C9  LIG X 999      43.268 131.543  22.505  1.00  0.00     0.001 A 
HETATM   14  C10 LIG X 999      42.749 131.972  21.283  1.00  0.00     0.010 A 
HETATM   15  C12 LIG X 999      42.857 132.216  18.768  1.00  0.00     0.252 C 
HETATM   16  C13 LIG X 999      43.519 131.573  17.533  1.00  0.00     0.060 C 
BRANCH  15  17
HETATM   17  N1  LIG X 999      41.402 132.032  18.718  1.00  0.00     0.087 N 
HETATM   18  H12 LIG X 999      40.951 132.958  18.538  1.00  0.00     0.313 HD
HETATM   19  H13 LIG X 999      41.161 131.400  17.920  1.00  0.00     0.313 HD
ENDBRANCH  15  17
ENDBRANCH   4   7
ENDBRANCH   3   4
TORSDOF 3
ENDMDL
MODEL 5
REMARK VINA RESULT:      -6.7      1.416      1.694
REMARK  3 active torsions:
REMARK  status: ('A' for Active; 'I' for Inactive)
REMARK    1  A    between atoms: C3_3  and  S1_4 
REMARK    2  A    between atoms: S1_4  and  C4_7 
REMARK    3  A    between atoms: C12_15  and  N1_16 
ROOT
HETATM    1  C1  LIG X 999      47.098 130.071  13.923  1.00  0.00     0.013 C 
HETATM    2  C2  LIG X 999      46.536 130.085  14.990  1.00  0.00    -0.102 C 
HETATM    3  C3  LIG X 999      45.852 130.102  16.285  1.00  0.00     0.233 C 
ENDROOT
BRANCH   3   4
HETATM    4  S1  LIG X 999      44.997 131.653  16.529  1.00  0.00     0.159 S 
HETATM    5  O1  LIG X 999      43.753 131.688  15.686  1.00  0.00    -0.227 OA
HETATM    6  O2  LIG X 999      45.910 132.765  16.096  1.00  0.00    -0.227 OA
BRANCH   4   7
HETATM    7  C4  LIG X 999      44.571 131.894  18.259  1.00  0.00     0.116 C 
HETATM    8  C5  LIG X 999      44.934 130.656  19.092  1.00  0.00     0.059 C 
HETATM    9  C6  LIG X 999      44.416 130.738  20.508  1.00  0.00    -0.049 A 
HETATM   10  C7  LIG X 999      44.982 129.896  21.479  1.00  0.00     0.007 A 
HETATM   11  C11 LIG X 999      43.333 131.581  20.859  1.00  0.00    -0.019 A 
HETATM   12  C8  LIG X 999      44.519 129.921  22.795  1.00  0.00     0.001 A 
HETATM   13  C9  LIG X 999      43.485 130.783  23.156  1.00  0.00     0.001 A 
HETATM   14  C10 LIG X 999      42.901 131.614  22.199  1.00  0.00     0.010 A 
HETATM   15  C12 LIG X 999      42.718 132.543  19.855  1.00  0.00     0.252 C 
HETATM   16  C13 LIG X 999      43.073 132.185  18.397  1.00  0.00     0.060 C 
BRANCH  15  17
HETATM   17  N1  LIG X 999      41.262 132.601  20.023  1.00  0.00     0.087 N 
HETATM   18  H12 LIG X 999      41.042 132.659  21.044  1.00  0.00     0.313 HD
HETATM   19  H13 LIG X 999      40.896 133.469  19.569  1.00  0.00     0.313 HD
ENDBRANCH  15  17
ENDBRANCH   4   7
ENDBRANCH   3   4
TORSDOF 3
ENDMDL
MODEL 6
REMARK VINA RESULT:      -6.3      3.082      6.269
REMARK  3 active torsions:
REMARK  status: ('A' for Active; 'I' for Inactive)
REMARK    1  A    between atoms: C3_3  and  S1_4 
REMARK    2  A    between atoms: S1_4  and  C4_7 
REMARK    3  A    between atoms: C12_15  and  N1_16 
ROOT
HETATM    1  C1  LIG X 999      41.652 129.524  24.222  1.00  0.00     0.013 C 
HETATM    2  C2  LIG X 999      42.200 130.456  23.688  1.00  0.00    -0.102 C 
HETATM    3  C3  LIG X 999      42.867 131.587  23.037  1.00  0.00     0.233 C 
ENDROOT
BRANCH   3   4
HETATM    4  S1  LIG X 999      44.294 131.034  22.113  1.00  0.00     0.159 S 
HETATM    5  O1  LIG X 999      44.747 129.696  22.627  1.00  0.00    -0.227 OA
HETATM    6  O2  LIG X 999      45.399 132.033  22.314  1.00  0.00    -0.227 OA
BRANCH   4   7
HETATM    7  C4  LIG X 999      43.926 130.924  20.357  1.00  0.00     0.116 C 
HETATM    8  C5  LIG X 999      45.191 131.146  19.515  1.00  0.00     0.059 C 
HETATM    9  C6  LIG X 999      44.893 131.256  18.039  1.00  0.00    -0.049 A 
HETATM   10  C7  LIG X 999      45.944 131.071  17.127  1.00  0.00     0.007 A 
HETATM   11  C11 LIG X 999      43.607 131.614  17.561  1.00  0.00    -0.019 A 
HETATM   12  C8  LIG X 999      45.720 131.187  15.754  1.00  0.00     0.001 A 
HETATM   13  C9  LIG X 999      44.446 131.492  15.277  1.00  0.00     0.001 A 
HETATM   14  C10 LIG X 999      43.395 131.695  16.171  1.00  0.00     0.010 A 
HETATM   15  C12 LIG X 999      42.428 131.779  18.506  1.00  0.00     0.252 C 
HETATM   16  C13 LIG X 999      42.864 131.961  19.974  1.00  0.00     0.060 C 
BRANCH  15  17
HETATM   17  N1  LIG X 999      41.586 132.904  18.085  1.00  0.00     0.087 N 
HETATM   18  H12 LIG X 999      40.778 132.987  18.744  1.00  0.00     0.313 HD
HETATM   19  H13 LIG X 999      42.138 133.791  18.145  1.00  0.00     0.313 HD
ENDBRANCH  15  17
ENDBRANCH   4   7
ENDBRANCH   3   4
TORSDOF 3
ENDMDL
MODEL 7
REMARK VINA RESULT:      -6.2      2.059      2.951
REMARK  3 active torsions:
REMARK  status: ('A' for Active; 'I' for Inactive)
REMARK    1  A    between atoms: C3_3  and  S1_4 
REMARK    2  A    between atoms: S1_4  and  C4_7 
REMARK    3  A    between atoms: C12_15  and  N1_16 
ROOT
HETATM    1  C1  LIG X 999      43.134 131.781  13.725  1.00  0.00     0.013 C 
HETATM    2  C2  LIG X 999      43.893 130.954  14.164  1.00  0.00    -0.102 C 
HETATM    3  C3  LIG X 999      44.815 129.949  14.699  1.00  0.00     0.233 C 
ENDROOT
BRANCH   3   4
HETATM    4  S1  LIG X 999      45.868 130.662  15.956  1.00  0.00     0.159 S 
HETATM    5  O1  LIG X 999      46.268 132.055  15.556  1.00  0.00    -0.227 OA
HETATM    6  O2  LIG X 999      47.104 129.815  16.069  1.00  0.00    -0.227 OA
BRANCH   4   7
HETATM    7  C4  LIG X 999      45.042 130.696  17.552  1.00  0.00     0.116 C 
HETATM    8  C5  LIG X 999      43.909 131.732  17.562  1.00  0.00     0.059 C 
HETATM    9  C6  LIG X 999      43.319 131.932  18.937  1.00  0.00    -0.049 A 
HETATM   10  C7  LIG X 999      42.053 132.532  19.044  1.00  0.00     0.007 A 
HETATM   11  C11 LIG X 999      44.037 131.601  20.114  1.00  0.00    -0.019 A 
HETATM   12  C8  LIG X 999      41.479 132.759  20.295  1.00  0.00     0.001 A 
HETATM   13  C9  LIG X 999      42.162 132.392  21.454  1.00  0.00     0.001 A 
HETATM   14  C10 LIG X 999      43.427 131.809  21.366  1.00  0.00     0.010 A 
HETATM   15  C12 LIG X 999      45.388 130.909  20.049  1.00  0.00     0.252 C 
HETATM   16  C13 LIG X 999      46.048 131.023  18.660  1.00  0.00     0.060 C 
BRANCH  15  17
HETATM   17  N1  LIG X 999      46.286 131.436  21.082  1.00  0.00     0.087 N 
HETATM   18  H12 LIG X 999      45.867 131.249  22.022  1.00  0.00     0.313 HD
HETATM   19  H13 LIG X 999      47.202 130.931  21.036  1.00  0.00     0.313 HD
ENDBRANCH  15  17
ENDBRANCH   4   7
ENDBRANCH   3   4
TORSDOF 3
ENDMDL
