REMARK VINA RESULT:      -1.7      5.370      7.065
REMARK  3 active torsions:
REMARK  status: ('A' for Active; 'I' for Inactive)
REMARK    1  A    between atoms: C3_3  and  S1_4 
REMARK    2  A    between atoms: S1_4  and  C4_7 
REMARK    3  A    between atoms: C13_17  and  N2_18 
ROOT
HETATM    1  C1  LIG X 999      47.488 130.431  13.363  1.00  0.00     0.013 C 
HETATM    2  C2  LIG X 999      46.873 131.071  14.179  1.00  0.00    -0.102 C 
HETATM    3  C3  LIG X 999      46.125 131.844  15.174  1.00  0.00     0.238 C 
ENDROOT
BRANCH   3   4
HETATM    4  S1  LIG X 999      45.024 130.774  16.079  1.00  0.00     0.185 S 
HETATM    5  O1  LIG X 999      43.747 130.604  15.305  1.00  0.00    -0.222 OA
HETATM    6  O2  LIG X 999      45.664 129.424  16.250  1.00  0.00    -0.222 OA
BRANCH   4   7
HETATM    7  C4  LIG X 999      44.667 131.486  17.652  1.00  0.00     0.062 C 
HETATM    8  C5  LIG X 999      45.716 131.613  18.580  1.00  0.00     0.025 C 
HETATM    9  C6  LIG X 999      45.736 132.586  19.585  1.00  0.00     0.024 C 
HETATM   10  C7  LIG X 999      46.159 132.311  20.897  1.00  0.00     0.044 C 
HETATM   11  C8  LIG X 999      46.678 133.400  21.681  1.00  0.00     0.099 C 
HETATM   12  C9  LIG X 999      46.027 131.050  21.518  1.00  0.00     0.022 C 
HETATM   13  N1  LIG X 999      47.097 134.276  22.312  1.00  0.00    -0.191 NA
HETATM   14  C10 LIG X 999      45.131 130.031  21.136  1.00  0.00     0.002 C 
HETATM   15  C11 LIG X 999      43.982 130.226  20.357  1.00  0.00     0.002 C 
HETATM   16  C12 LIG X 999      43.261 131.426  20.361  1.00  0.00     0.034 C 
HETATM   17  C13 LIG X 999      42.743 132.021  19.199  1.00  0.00     0.094 C 
HETATM   18  C14 LIG X 999      43.331 131.862  17.918  1.00  0.00     0.057 C 
BRANCH  17  19
HETATM   19  N2  LIG X 999      41.607 132.882  19.367  1.00  0.00    -0.073 NA
HETATM   20  N3  LIG X 999      41.208 133.243  20.476  1.00  0.00    -0.162 NA
HETATM   21  N4  LIG X 999      40.808 133.605  21.581  1.00  0.00     0.068 N 
ENDBRANCH  17  19
ENDBRANCH   4   7
ENDBRANCH   3   4
TORSDOF 3
