REMARK VINA RESULT:      -7.5      3.691      7.451
REMARK  2 active torsions:
REMARK  status: ('A' for Active; 'I' for Inactive)
REMARK    1  A    between atoms: C2_5  and  C3_6 
REMARK    2  A    between atoms: N3_17  and  C13_18 
ROOT
HETATM    1  H1  LIG X 999      46.336 132.000  22.235  1.00  0.00     0.190 HD
HETATM    2  N1  LIG X 999      46.499 132.122  21.212  1.00  0.00    -0.260 NA
HETATM    3  C1  LIG X 999      45.622 131.798  20.316  1.00  0.00     0.269 A 
HETATM    4  O1  LIG X 999      45.833 131.903  19.028  1.00  0.00    -0.255 OA
HETATM    5  C2  LIG X 999      44.742 131.427  18.463  1.00  0.00     0.203 A 
HETATM    6  N2  LIG X 999      43.839 131.036  19.391  1.00  0.00    -0.137 NA
HETATM    7  N3  LIG X 999      44.402 131.277  20.564  1.00  0.00    -0.189 N 
ENDROOT
BRANCH   5   8
HETATM    8  C3  LIG X 999      44.501 131.365  17.002  1.00  0.00     0.030 A 
HETATM    9  C4  LIG X 999      43.292 131.898  16.521  1.00  0.00     0.017 A 
HETATM   10  C5  LIG X 999      43.024 131.949  15.154  1.00  0.00     0.002 A 
HETATM   11  C6  LIG X 999      43.955 131.470  14.238  1.00  0.00     0.012 A 
HETATM   12  C7  LIG X 999      45.159 130.907  14.682  1.00  0.00    -0.025 A 
HETATM   13  C8  LIG X 999      46.078 130.403  13.748  1.00  0.00     0.012 A 
HETATM   14  C12 LIG X 999      45.441 130.833  16.075  1.00  0.00    -0.011 A 
HETATM   15  C9  LIG X 999      47.262 129.807  14.178  1.00  0.00     0.001 A 
HETATM   16  C10 LIG X 999      47.534 129.695  15.541  1.00  0.00     0.001 A 
HETATM   17  C11 LIG X 999      46.633 130.194  16.485  1.00  0.00     0.013 A 
ENDBRANCH   5   8
BRANCH   7  18
HETATM   18  C13 LIG X 999      43.756 131.034  21.824  1.00  0.00     0.107 A 
HETATM   19  C14 LIG X 999      42.783 131.919  22.312  1.00  0.00     0.054 A 
HETATM   20  C15 LIG X 999      42.146 131.643  23.523  1.00  0.00     0.122 A 
HETATM   21  N4  LIG X 999      42.458 130.517  24.218  1.00  0.00    -0.230 NA
HETATM   22  C16 LIG X 999      43.384 129.632  23.762  1.00  0.00     0.251 A 
HETATM   23  F1  LIG X 999      43.662 128.520  24.483  1.00  0.00    -0.181 F 
HETATM   24  C17 LIG X 999      44.044 129.869  22.552  1.00  0.00     0.203 A 
HETATM   25  F2  LIG X 999      44.971 128.985  22.104  1.00  0.00    -0.199 F 
ENDBRANCH   7  18
TORSDOF 2
