REMARK VINA RESULT:      -6.6      3.024      7.157
REMARK  4 active torsions:
REMARK  status: ('A' for Active; 'I' for Inactive)
REMARK    1  A    between atoms: C1_1  and  C2_6 
REMARK    2  A    between atoms: N1_2  and  N2_3 
REMARK    3  A    between atoms: C2_6  and  C3_8 
REMARK    4  A    between atoms: C11_16  and  N4_17 
ROOT
HETATM    1  N4  LIG X 999      43.635 131.709  15.685  1.00  0.00    -0.105 NA
HETATM    2  N5  LIG X 999      43.270 131.680  14.509  1.00  0.00    -0.167 NA
HETATM    3  N6  LIG X 999      42.906 131.650  13.335  1.00  0.00     0.068 N 
ENDROOT
BRANCH   1   4
HETATM    4  C11 LIG X 999      44.985 132.131  16.050  1.00  0.00     0.179 C 
HETATM    5  C10 LIG X 999      45.982 131.217  15.371  1.00  0.00    -0.024 A 
HETATM    6  C5  LIG X 999      46.625 130.163  16.068  1.00  0.00    -0.049 A 
HETATM    7  C9  LIG X 999      46.202 131.362  13.990  1.00  0.00     0.010 A 
HETATM    8  C4  LIG X 999      46.490 130.003  17.564  1.00  0.00     0.051 C 
HETATM    9  C6  LIG X 999      47.500 129.311  15.376  1.00  0.00     0.007 A 
HETATM   10  C3  LIG X 999      45.242 130.703  18.125  1.00  0.00     0.068 C 
HETATM   11  C12 LIG X 999      45.157 132.138  17.580  1.00  0.00     0.048 C 
HETATM   12  C7  LIG X 999      47.713 129.474  14.005  1.00  0.00     0.001 A 
HETATM   13  C8  LIG X 999      47.064 130.497  13.314  1.00  0.00     0.001 A 
BRANCH  10  14
HETATM   14  C2  LIG X 999      45.274 130.700  19.633  1.00  0.00     0.172 C 
HETATM   15  O1  LIG X 999      46.022 129.889  20.246  1.00  0.00    -0.291 OA
BRANCH  14  16
HETATM   16  C1  LIG X 999      44.412 131.614  20.399  1.00  0.00     0.190 C 
HETATM   17  N1  LIG X 999      43.133 131.418  20.452  1.00  0.00    -0.165 NA
BRANCH  17  18
HETATM   18  N2  LIG X 999      42.284 132.271  21.172  1.00  0.00    -0.177 N 
HETATM   19  H2  LIG X 999      42.190 132.186  22.210  1.00  0.00     0.214 HD
HETATM   20  N3  LIG X 999      41.620 133.162  20.559  1.00  0.00    -0.031 N 
ENDBRANCH  17  18
ENDBRANCH  14  16
ENDBRANCH  10  14
ENDBRANCH   1   4
TORSDOF 4
