MODEL 1
REMARK VINA RESULT:      -8.8      0.000      0.000
REMARK  4 active torsions:
REMARK  status: ('A' for Active; 'I' for Inactive)
REMARK    1  A    between atoms: C3_3  and  O1_4 
REMARK    2  A    between atoms: O1_4  and  C4_5 
REMARK    3  A    between atoms: C4_5  and  O2_6 
REMARK    4  A    between atoms: C5_8  and  C6_9 
ROOT
HETATM    1  C1  LIG X 999      43.214 130.574  22.444  1.00  0.00     0.014 C 
HETATM    2  C2  LIG X 999      43.703 131.227  21.557  1.00  0.00    -0.091 C 
HETATM    3  C3  LIG X 999      44.299 132.019  20.481  1.00  0.00     0.270 C 
ENDROOT
BRANCH   3   4
HETATM    4  O1  LIG X 999      44.023 131.394  19.234  1.00  0.00    -0.319 OA
BRANCH   4   5
HETATM    5  C4  LIG X 999      43.109 131.921  18.317  1.00  0.00     0.179 C 
HETATM    6  C5  LIG X 999      43.317 131.795  16.999  1.00  0.00     0.075 C 
BRANCH   5   7
HETATM    7  O2  LIG X 999      41.957 132.558  18.782  1.00  0.00    -0.341 OA
HETATM    8  H4  LIG X 999      41.192 132.045  19.208  1.00  0.00     0.220 HD
ENDBRANCH   5   7
BRANCH   6   9
HETATM    9  C6  LIG X 999      44.507 131.144  16.404  1.00  0.00    -0.031 A 
HETATM   10  C7  LIG X 999      45.265 130.193  17.111  1.00  0.00     0.012 A 
HETATM   11  C8  LIG X 999      46.397 129.614  16.532  1.00  0.00     0.013 A 
HETATM   12  C9  LIG X 999      46.800 129.986  15.243  1.00  0.00    -0.026 A 
HETATM   13  C10 LIG X 999      47.935 129.409  14.652  1.00  0.00     0.012 A 
HETATM   14  C14 LIG X 999      46.059 130.961  14.533  1.00  0.00    -0.025 A 
HETATM   15  C11 LIG X 999      48.330 129.796  13.368  1.00  0.00     0.001 A 
HETATM   16  C12 LIG X 999      47.600 130.758  12.667  1.00  0.00     0.001 A 
HETATM   17  C13 LIG X 999      46.468 131.342  13.244  1.00  0.00     0.012 A 
HETATM   18  C15 LIG X 999      44.924 131.539  15.123  1.00  0.00     0.024 A 
ENDBRANCH   6   9
ENDBRANCH   4   5
ENDBRANCH   3   4
TORSDOF 4
ENDMDL
MODEL 2
REMARK VINA RESULT:      -8.7      1.946      6.721
REMARK  4 active torsions:
REMARK  status: ('A' for Active; 'I' for Inactive)
REMARK    1  A    between atoms: C3_3  and  O1_4 
REMARK    2  A    between atoms: O1_4  and  C4_5 
REMARK    3  A    between atoms: C4_5  and  O2_6 
REMARK    4  A    between atoms: C5_8  and  C6_9 
ROOT
HETATM    1  C1  LIG X 999      47.617 131.006  13.007  1.00  0.00     0.014 C 
HETATM    2  C2  LIG X 999      47.040 130.321  13.813  1.00  0.00    -0.091 C 
HETATM    3  C3  LIG X 999      46.339 129.491  14.793  1.00  0.00     0.270 C 
ENDROOT
BRANCH   3   4
HETATM    4  O1  LIG X 999      45.714 130.330  15.755  1.00  0.00    -0.319 OA
BRANCH   4   5
HETATM    5  C4  LIG X 999      44.563 131.070  15.469  1.00  0.00     0.179 C 
HETATM    6  C5  LIG X 999      43.847 131.625  16.458  1.00  0.00     0.075 C 
BRANCH   5   7
HETATM    7  O2  LIG X 999      44.175 131.254  14.140  1.00  0.00    -0.341 OA
HETATM    8  H4  LIG X 999      43.369 130.782  13.745  1.00  0.00     0.220 HD
ENDBRANCH   5   7
BRANCH   6   9
HETATM    9  C6  LIG X 999      44.168 131.485  17.896  1.00  0.00    -0.031 A 
HETATM   10  C7  LIG X 999      45.392 130.945  18.335  1.00  0.00     0.012 A 
HETATM   11  C8  LIG X 999      45.657 130.804  19.699  1.00  0.00     0.013 A 
HETATM   12  C9  LIG X 999      44.699 131.184  20.648  1.00  0.00    -0.026 A 
HETATM   13  C10 LIG X 999      44.957 131.047  22.021  1.00  0.00     0.012 A 
HETATM   14  C14 LIG X 999      43.455 131.704  20.217  1.00  0.00    -0.025 A 
HETATM   15  C11 LIG X 999      43.989 131.423  22.957  1.00  0.00     0.001 A 
HETATM   16  C12 LIG X 999      42.761 131.936  22.532  1.00  0.00     0.001 A 
HETATM   17  C13 LIG X 999      42.491 132.077  21.168  1.00  0.00     0.012 A 
HETATM   18  C15 LIG X 999      43.197 131.842  18.844  1.00  0.00     0.024 A 
ENDBRANCH   6   9
ENDBRANCH   4   5
ENDBRANCH   3   4
TORSDOF 4
ENDMDL
MODEL 3
REMARK VINA RESULT:      -8.5      1.311      2.068
REMARK  4 active torsions:
REMARK  status: ('A' for Active; 'I' for Inactive)
REMARK    1  A    between atoms: C3_3  and  O1_4 
REMARK    2  A    between atoms: O1_4  and  C4_5 
REMARK    3  A    between atoms: C4_5  and  O2_6 
REMARK    4  A    between atoms: C5_8  and  C6_9 
ROOT
HETATM    1  C1  LIG X 999      44.577 129.180  22.684  1.00  0.00     0.014 C 
HETATM    2  C2  LIG X 999      43.943 130.194  22.538  1.00  0.00    -0.091 C 
HETATM    3  C3  LIG X 999      43.174 131.426  22.361  1.00  0.00     0.270 C 
ENDROOT
BRANCH   3   4
HETATM    4  O1  LIG X 999      43.398 131.933  21.053  1.00  0.00    -0.319 OA
BRANCH   4   5
HETATM    5  C4  LIG X 999      42.364 132.425  20.251  1.00  0.00     0.179 C 
HETATM    6  C5  LIG X 999      42.421 132.307  18.917  1.00  0.00     0.075 C 
BRANCH   5   7
HETATM    7  O2  LIG X 999      41.251 133.017  20.851  1.00  0.00    -0.341 OA
HETATM    8  H4  LIG X 999      41.319 133.883  21.375  1.00  0.00     0.220 HD
ENDBRANCH   5   7
BRANCH   6   9
HETATM    9  C6  LIG X 999      43.557 131.702  18.184  1.00  0.00    -0.031 A 
HETATM   10  C7  LIG X 999      44.640 131.103  18.855  1.00  0.00     0.012 A 
HETATM   11  C8  LIG X 999      45.708 130.562  18.135  1.00  0.00     0.013 A 
HETATM   12  C9  LIG X 999      45.722 130.625  16.736  1.00  0.00    -0.026 A 
HETATM   13  C10 LIG X 999      46.791 130.083  16.005  1.00  0.00     0.012 A 
HETATM   14  C14 LIG X 999      44.651 131.248  16.053  1.00  0.00    -0.025 A 
HETATM   15  C11 LIG X 999      46.795 130.159  14.609  1.00  0.00     0.001 A 
HETATM   16  C12 LIG X 999      45.738 130.774  13.935  1.00  0.00     0.001 A 
HETATM   17  C13 LIG X 999      44.668 131.318  14.650  1.00  0.00     0.012 A 
HETATM   18  C15 LIG X 999      43.581 131.790  16.783  1.00  0.00     0.024 A 
ENDBRANCH   6   9
ENDBRANCH   4   5
ENDBRANCH   3   4
TORSDOF 4
ENDMDL
MODEL 4
REMARK VINA RESULT:      -7.5      0.983      1.927
REMARK  4 active torsions:
REMARK  status: ('A' for Active; 'I' for Inactive)
REMARK    1  A    between atoms: C3_3  and  O1_4 
REMARK    2  A    between atoms: O1_4  and  C4_5 
REMARK    3  A    between atoms: C4_5  and  O2_6 
REMARK    4  A    between atoms: C5_8  and  C6_9 
ROOT
HETATM    1  C1  LIG X 999      44.576 130.060  22.216  1.00  0.00     0.014 C 
HETATM    2  C2  LIG X 999      44.939 130.953  21.493  1.00  0.00    -0.091 C 
HETATM    3  C3  LIG X 999      45.381 132.037  20.615  1.00  0.00     0.270 C 
ENDROOT
BRANCH   3   4
HETATM    4  O1  LIG X 999      44.857 131.824  19.311  1.00  0.00    -0.319 OA
BRANCH   4   5
HETATM    5  C4  LIG X 999      43.484 131.751  19.057  1.00  0.00     0.179 C 
HETATM    6  C5  LIG X 999      43.031 131.533  17.814  1.00  0.00     0.075 C 
BRANCH   5   7
HETATM    7  O2  LIG X 999      42.581 131.878  20.115  1.00  0.00    -0.341 OA
HETATM    8  H4  LIG X 999      41.844 131.201  20.278  1.00  0.00     0.220 HD
ENDBRANCH   5   7
BRANCH   6   9
HETATM    9  C6  LIG X 999      43.902 131.391  16.625  1.00  0.00    -0.031 A 
HETATM   10  C7  LIG X 999      43.539 131.917  15.371  1.00  0.00     0.012 A 
HETATM   11  C8  LIG X 999      44.371 131.746  14.262  1.00  0.00     0.013 A 
HETATM   12  C9  LIG X 999      45.571 131.033  14.382  1.00  0.00    -0.026 A 
HETATM   13  C10 LIG X 999      46.414 130.857  13.273  1.00  0.00     0.012 A 
HETATM   14  C14 LIG X 999      45.932 130.477  15.633  1.00  0.00    -0.025 A 
HETATM   15  C11 LIG X 999      47.605 130.137  13.406  1.00  0.00     0.001 A 
HETATM   16  C12 LIG X 999      47.961 129.587  14.640  1.00  0.00     0.001 A 
HETATM   17  C13 LIG X 999      47.131 129.754  15.751  1.00  0.00     0.012 A 
HETATM   18  C15 LIG X 999      45.091 130.653  16.742  1.00  0.00     0.024 A 
ENDBRANCH   6   9
ENDBRANCH   4   5
ENDBRANCH   3   4
TORSDOF 4
ENDMDL
MODEL 5
REMARK VINA RESULT:      -7.5      1.554      2.989
REMARK  4 active torsions:
REMARK  status: ('A' for Active; 'I' for Inactive)
REMARK    1  A    between atoms: C3_3  and  O1_4 
REMARK    2  A    between atoms: O1_4  and  C4_5 
REMARK    3  A    between atoms: C4_5  and  O2_6 
REMARK    4  A    between atoms: C5_8  and  C6_9 
ROOT
HETATM    1  C1  LIG X 999      42.377 131.736  24.060  1.00  0.00     0.014 C 
HETATM    2  C2  LIG X 999      42.522 131.880  22.873  1.00  0.00    -0.091 C 
HETATM    3  C3  LIG X 999      42.699 132.055  21.431  1.00  0.00     0.270 C 
ENDROOT
BRANCH   3   4
HETATM    4  O1  LIG X 999      43.354 130.911  20.899  1.00  0.00    -0.319 OA
BRANCH   4   5
HETATM    5  C4  LIG X 999      44.675 130.585  21.222  1.00  0.00     0.179 C 
HETATM    6  C5  LIG X 999      45.622 130.560  20.275  1.00  0.00     0.075 C 
BRANCH   5   7
HETATM    7  O2  LIG X 999      45.010 130.313  22.550  1.00  0.00    -0.341 OA
HETATM    8  H4  LIG X 999      44.366 130.486  23.315  1.00  0.00     0.220 HD
ENDBRANCH   5   7
BRANCH   6   9
HETATM    9  C6  LIG X 999      45.370 130.827  18.840  1.00  0.00    -0.031 A 
HETATM   10  C7  LIG X 999      44.257 131.572  18.407  1.00  0.00     0.012 A 
HETATM   11  C8  LIG X 999      44.033 131.787  17.045  1.00  0.00     0.013 A 
HETATM   12  C9  LIG X 999      44.907 131.248  16.092  1.00  0.00    -0.026 A 
HETATM   13  C10 LIG X 999      44.690 131.459  14.721  1.00  0.00     0.012 A 
HETATM   14  C14 LIG X 999      46.014 130.475  16.516  1.00  0.00    -0.025 A 
HETATM   15  C11 LIG X 999      45.565 130.909  13.780  1.00  0.00     0.001 A 
HETATM   16  C12 LIG X 999      46.658 130.145  14.198  1.00  0.00     0.001 A 
HETATM   17  C13 LIG X 999      46.884 129.926  15.559  1.00  0.00     0.012 A 
HETATM   18  C15 LIG X 999      46.231 130.263  17.886  1.00  0.00     0.024 A 
ENDBRANCH   6   9
ENDBRANCH   4   5
ENDBRANCH   3   4
TORSDOF 4
ENDMDL
MODEL 6
REMARK VINA RESULT:      -7.4      2.611      4.898
REMARK  4 active torsions:
REMARK  status: ('A' for Active; 'I' for Inactive)
REMARK    1  A    between atoms: C3_3  and  O1_4 
REMARK    2  A    between atoms: O1_4  and  C4_5 
REMARK    3  A    between atoms: C4_5  and  O2_6 
REMARK    4  A    between atoms: C5_8  and  C6_9 
ROOT
HETATM    1  C1  LIG X 999      45.614 126.752  22.645  1.00  0.00     0.014 C 
HETATM    2  C2  LIG X 999      44.674 127.412  23.011  1.00  0.00    -0.091 C 
HETATM    3  C3  LIG X 999      43.533 128.213  23.454  1.00  0.00     0.270 C 
ENDROOT
BRANCH   3   4
HETATM    4  O1  LIG X 999      43.537 129.455  22.762  1.00  0.00    -0.319 OA
BRANCH   4   5
HETATM    5  C4  LIG X 999      44.176 130.592  23.265  1.00  0.00     0.179 C 
HETATM    6  C5  LIG X 999      44.468 131.622  22.458  1.00  0.00     0.075 C 
BRANCH   5   7
HETATM    7  O2  LIG X 999      44.486 130.663  24.625  1.00  0.00    -0.341 OA
HETATM    8  H4  LIG X 999      45.426 130.852  24.954  1.00  0.00     0.220 HD
ENDBRANCH   5   7
BRANCH   6   9
HETATM    9  C6  LIG X 999      44.188 131.645  21.004  1.00  0.00    -0.031 A 
HETATM   10  C7  LIG X 999      42.944 132.062  20.493  1.00  0.00     0.012 A 
HETATM   11  C8  LIG X 999      42.702 132.049  19.118  1.00  0.00     0.013 A 
HETATM   12  C9  LIG X 999      43.691 131.605  18.230  1.00  0.00    -0.026 A 
HETATM   13  C10 LIG X 999      43.457 131.590  16.846  1.00  0.00     0.012 A 
HETATM   14  C14 LIG X 999      44.935 131.159  18.736  1.00  0.00    -0.025 A 
HETATM   15  C11 LIG X 999      44.450 131.137  15.973  1.00  0.00     0.001 A 
HETATM   16  C12 LIG X 999      45.678 130.696  16.471  1.00  0.00     0.001 A 
HETATM   17  C13 LIG X 999      45.923 130.705  17.846  1.00  0.00     0.012 A 
HETATM   18  C15 LIG X 999      45.170 131.174  20.119  1.00  0.00     0.024 A 
ENDBRANCH   6   9
ENDBRANCH   4   5
ENDBRANCH   3   4
TORSDOF 4
ENDMDL
MODEL 7
REMARK VINA RESULT:      -6.9      1.937      7.141
REMARK  4 active torsions:
REMARK  status: ('A' for Active; 'I' for Inactive)
REMARK    1  A    between atoms: C3_3  and  O1_4 
REMARK    2  A    between atoms: O1_4  and  C4_5 
REMARK    3  A    between atoms: C4_5  and  O2_6 
REMARK    4  A    between atoms: C5_8  and  C6_9 
ROOT
HETATM    1  C1  LIG X 999      47.616 130.956  13.103  1.00  0.00     0.014 C 
HETATM    2  C2  LIG X 999      46.555 130.910  13.672  1.00  0.00    -0.091 C 
HETATM    3  C3  LIG X 999      45.267 130.854  14.364  1.00  0.00     0.270 C 
ENDROOT
BRANCH   3   4
HETATM    4  O1  LIG X 999      45.480 131.011  15.760  1.00  0.00    -0.319 OA
BRANCH   4   5
HETATM    5  C4  LIG X 999      46.443 130.279  16.460  1.00  0.00     0.179 C 
HETATM    6  C5  LIG X 999      46.347 130.120  17.788  1.00  0.00     0.075 C 
BRANCH   5   7
HETATM    7  O2  LIG X 999      47.497 129.686  15.762  1.00  0.00    -0.341 OA
HETATM    8  H4  LIG X 999      47.340 129.019  15.015  1.00  0.00     0.220 HD
ENDBRANCH   5   7
BRANCH   6   9
HETATM    9  C6  LIG X 999      45.275 130.711  18.620  1.00  0.00    -0.031 A 
HETATM   10  C7  LIG X 999      44.274 131.534  18.068  1.00  0.00     0.012 A 
HETATM   11  C8  LIG X 999      43.289 132.097  18.883  1.00  0.00     0.013 A 
HETATM   12  C9  LIG X 999      43.296 131.862  20.265  1.00  0.00    -0.026 A 
HETATM   13  C10 LIG X 999      42.309 132.423  21.091  1.00  0.00     0.012 A 
HETATM   14  C14 LIG X 999      44.312 131.059  20.833  1.00  0.00    -0.025 A 
HETATM   15  C11 LIG X 999      42.332 132.187  22.469  1.00  0.00     0.001 A 
HETATM   16  C12 LIG X 999      43.336 131.394  23.030  1.00  0.00     0.001 A 
HETATM   17  C13 LIG X 999      44.324 130.831  22.219  1.00  0.00     0.012 A 
HETATM   18  C15 LIG X 999      45.299 130.497  20.007  1.00  0.00     0.024 A 
ENDBRANCH   6   9
ENDBRANCH   4   5
ENDBRANCH   3   4
TORSDOF 4
ENDMDL
MODEL 8
REMARK VINA RESULT:      -6.9      2.141      3.167
REMARK  4 active torsions:
REMARK  status: ('A' for Active; 'I' for Inactive)
REMARK    1  A    between atoms: C3_3  and  O1_4 
REMARK    2  A    between atoms: O1_4  and  C4_5 
REMARK    3  A    between atoms: C4_5  and  O2_6 
REMARK    4  A    between atoms: C5_8  and  C6_9 
ROOT
HETATM    1  C1  LIG X 999      48.373 134.002  22.277  1.00  0.00     0.014 C 
HETATM    2  C2  LIG X 999      47.396 133.572  21.717  1.00  0.00    -0.091 C 
HETATM    3  C3  LIG X 999      46.211 133.050  21.036  1.00  0.00     0.270 C 
ENDROOT
BRANCH   3   4
HETATM    4  O1  LIG X 999      46.515 131.778  20.480  1.00  0.00    -0.319 OA
BRANCH   4   5
HETATM    5  C4  LIG X 999      45.619 130.706  20.525  1.00  0.00     0.179 C 
HETATM    6  C5  LIG X 999      45.174 130.141  19.394  1.00  0.00     0.075 C 
BRANCH   5   7
HETATM    7  O2  LIG X 999      45.208 130.204  21.762  1.00  0.00    -0.341 OA
HETATM    8  H4  LIG X 999      45.650 130.485  22.631  1.00  0.00     0.220 HD
ENDBRANCH   5   7
BRANCH   6   9
HETATM    9  C6  LIG X 999      45.543 130.600  18.035  1.00  0.00    -0.031 A 
HETATM   10  C7  LIG X 999      45.119 131.844  17.531  1.00  0.00     0.012 A 
HETATM   11  C8  LIG X 999      45.463 132.240  16.236  1.00  0.00     0.013 A 
HETATM   12  C9  LIG X 999      46.221 131.393  15.416  1.00  0.00    -0.026 A 
HETATM   13  C10 LIG X 999      46.572 131.783  14.114  1.00  0.00     0.012 A 
HETATM   14  C14 LIG X 999      46.629 130.129  15.905  1.00  0.00    -0.025 A 
HETATM   15  C11 LIG X 999      47.323 130.925  13.305  1.00  0.00     0.001 A 
HETATM   16  C12 LIG X 999      47.725 129.677  13.786  1.00  0.00     0.001 A 
HETATM   17  C13 LIG X 999      47.382 129.277  15.080  1.00  0.00     0.012 A 
HETATM   18  C15 LIG X 999      46.279 129.739  17.206  1.00  0.00     0.024 A 
ENDBRANCH   6   9
ENDBRANCH   4   5
ENDBRANCH   3   4
TORSDOF 4
ENDMDL
MODEL 9
REMARK VINA RESULT:      -5.9      4.956      8.688
REMARK  4 active torsions:
REMARK  status: ('A' for Active; 'I' for Inactive)
REMARK    1  A    between atoms: C3_3  and  O1_4 
REMARK    2  A    between atoms: O1_4  and  C4_5 
REMARK    3  A    between atoms: C4_5  and  O2_6 
REMARK    4  A    between atoms: C5_8  and  C6_9 
ROOT
HETATM    1  C1  LIG X 999      45.925 130.859  20.385  1.00  0.00     0.014 C 
HETATM    2  C2  LIG X 999      44.921 131.016  21.033  1.00  0.00    -0.091 C 
HETATM    3  C3  LIG X 999      43.703 131.206  21.820  1.00  0.00     0.270 C 
ENDROOT
BRANCH   3   4
HETATM    4  O1  LIG X 999      43.520 130.085  22.676  1.00  0.00    -0.319 OA
BRANCH   4   5
HETATM    5  C4  LIG X 999      44.216 129.939  23.879  1.00  0.00     0.179 C 
HETATM    6  C5  LIG X 999      44.496 128.720  24.361  1.00  0.00     0.075 C 
BRANCH   5   7
HETATM    7  O2  LIG X 999      44.647 131.076  24.567  1.00  0.00    -0.341 OA
HETATM    8  H4  LIG X 999      44.910 131.044  25.546  1.00  0.00     0.220 HD
ENDBRANCH   5   7
BRANCH   6   9
HETATM    9  C6  LIG X 999      44.081 127.455  23.713  1.00  0.00    -0.031 A 
HETATM   10  C7  LIG X 999      44.952 126.724  22.884  1.00  0.00     0.012 A 
HETATM   11  C8  LIG X 999      44.524 125.546  22.267  1.00  0.00     0.013 A 
HETATM   12  C9  LIG X 999      43.213 125.086  22.454  1.00  0.00    -0.026 A 
HETATM   13  C10 LIG X 999      42.774 123.903  21.840  1.00  0.00     0.012 A 
HETATM   14  C14 LIG X 999      42.322 125.828  23.265  1.00  0.00    -0.025 A 
HETATM   15  C11 LIG X 999      41.462 123.461  22.029  1.00  0.00     0.001 A 
HETATM   16  C12 LIG X 999      40.581 124.193  22.829  1.00  0.00     0.001 A 
HETATM   17  C13 LIG X 999      41.005 125.373  23.445  1.00  0.00     0.012 A 
HETATM   18  C15 LIG X 999      42.760 127.011  23.880  1.00  0.00     0.024 A 
ENDBRANCH   6   9
ENDBRANCH   4   5
ENDBRANCH   3   4
TORSDOF 4
ENDMDL
