REMARK VINA RESULT:      -6.6      2.170      5.905
REMARK  2 active torsions:
REMARK  status: ('A' for Active; 'I' for Inactive)
REMARK    1  A    between atoms: N1_1  and  C1_2 
REMARK    2  A    between atoms: C7_8  and  N2_9 
ROOT
HETATM    1  C1  LIG X 999      42.913 131.710  22.133  1.00  0.00     0.103 A 
HETATM    2  C2  LIG X 999      42.179 132.145  21.027  1.00  0.00     0.049 A 
HETATM    3  C3  LIG X 999      42.690 131.958  19.739  1.00  0.00     0.001 A 
HETATM    4  C4  LIG X 999      41.984 132.387  18.613  1.00  0.00     0.015 A 
HETATM    5  C5  LIG X 999      42.508 132.191  17.334  1.00  0.00     0.015 A 
HETATM    6  C6  LIG X 999      43.752 131.550  17.150  1.00  0.00     0.003 A 
HETATM    7  C7  LIG X 999      44.307 131.328  15.859  1.00  0.00     0.037 A 
HETATM    8  C8  LIG X 999      45.572 130.733  15.745  1.00  0.00     0.030 A 
HETATM    9  C9  LIG X 999      46.279 130.333  16.876  1.00  0.00     0.003 A 
HETATM   10  C10 LIG X 999      45.739 130.522  18.144  1.00  0.00     0.015 A 
HETATM   11  C11 LIG X 999      44.481 131.129  18.301  1.00  0.00     0.011 A 
HETATM   12  C12 LIG X 999      43.943 131.330  19.590  1.00  0.00     0.101 A 
HETATM   13  O1  LIG X 999      44.613 130.931  20.672  1.00  0.00    -0.272 OA
HETATM   14  C13 LIG X 999      44.156 131.093  21.911  1.00  0.00     0.314 A 
HETATM   15  O2  LIG X 999      44.849 130.686  22.880  1.00  0.00    -0.257 OA
ENDROOT
BRANCH   1  16
HETATM   16  N1  LIG X 999      42.400 131.896  23.457  1.00  0.00    -0.394 N 
HETATM   17  H1  LIG X 999      42.575 132.779  23.987  1.00  0.00     0.156 HD
HETATM   18  H2  LIG X 999      41.838 131.148  23.919  1.00  0.00     0.156 HD
ENDBRANCH   1  16
BRANCH   7  19
HETATM   19  N2  LIG X 999      43.617 131.679  14.648  1.00  0.00    -0.398 N 
HETATM   20  H6  LIG X 999      43.982 132.370  13.960  1.00  0.00     0.156 HD
HETATM   21  H7  LIG X 999      42.653 131.317  14.472  1.00  0.00     0.156 HD
ENDBRANCH   7  19
TORSDOF 2
