REMARK VINA RESULT:      -7.5      0.791      1.804
REMARK  7 active torsions:
REMARK  status: ('A' for Active; 'I' for Inactive)
REMARK    1  A    between atoms: O1_2  and  C1_3 
REMARK    2  A    between atoms: C1_3  and  C2_4 
REMARK    3  A    between atoms: C1_3  and  C3_8 
REMARK    4  A    between atoms: C2_4  and  N1_5 
REMARK    5  A    between atoms: C3_8  and  O2_9 
REMARK    6  A    between atoms: O2_9  and  C4_10 
REMARK    7  A    between atoms: C9_15  and  N4_16 
ROOT
HETATM    1  N1  LIG X 999      45.000 128.396  22.376  1.00  0.00    -0.113 NA
HETATM    2  N2  LIG X 999      45.134 127.174  22.441  1.00  0.00    -0.168 NA
HETATM    3  N3  LIG X 999      45.267 125.953  22.507  1.00  0.00     0.068 N 
ENDROOT
BRANCH   1   4
HETATM    4  C2  LIG X 999      44.268 129.119  23.407  1.00  0.00     0.223 C 
BRANCH   4   5
HETATM    5  C1  LIG X 999      43.143 129.973  22.792  1.00  0.00     0.165 C 
BRANCH   5   6
HETATM    6  O1  LIG X 999      41.973 129.888  23.567  1.00  0.00    -0.392 OA
HETATM    7  H1  LIG X 999      41.564 130.792  23.598  1.00  0.00     0.210 HD
ENDBRANCH   5   6
BRANCH   5   8
HETATM    8  C3  LIG X 999      43.557 131.438  22.583  1.00  0.00     0.209 C 
BRANCH   8   9
HETATM    9  O2  LIG X 999      42.780 132.020  21.539  1.00  0.00    -0.349 OA
BRANCH   9  10
HETATM   10  C4  LIG X 999      43.059 131.891  20.171  1.00  0.00     0.069 A 
HETATM   11  C5  LIG X 999      42.052 132.214  19.256  1.00  0.00     0.037 A 
HETATM   12  C6  LIG X 999      42.273 132.103  17.882  1.00  0.00     0.015 A 
HETATM   13  C7  LIG X 999      43.515 131.663  17.400  1.00  0.00    -0.024 A 
HETATM   14  C8  LIG X 999      43.747 131.548  16.021  1.00  0.00     0.046 A 
HETATM   15  C12 LIG X 999      44.541 131.334  18.316  1.00  0.00    -0.023 A 
HETATM   16  C9  LIG X 999      44.996 131.106  15.545  1.00  0.00     0.094 A 
HETATM   17  C10 LIG X 999      46.006 130.783  16.459  1.00  0.00     0.035 A 
HETATM   18  C11 LIG X 999      45.784 130.894  17.834  1.00  0.00     0.014 A 
HETATM   19  C13 LIG X 999      44.309 131.448  19.695  1.00  0.00     0.049 A 
BRANCH  16  20
HETATM   20  N4  LIG X 999      45.267 130.977  14.142  1.00  0.00    -0.073 NA
HETATM   21  N5  LIG X 999      46.413 130.943  13.693  1.00  0.00    -0.162 NA
HETATM   22  N6  LIG X 999      47.558 130.909  13.242  1.00  0.00     0.068 N 
ENDBRANCH  16  20
ENDBRANCH   9  10
ENDBRANCH   8   9
ENDBRANCH   5   8
ENDBRANCH   4   5
ENDBRANCH   1   4
TORSDOF 7
