REMARK VINA RESULT:      -7.7      2.054      6.049
REMARK  2 active torsions:
REMARK  status: ('A' for Active; 'I' for Inactive)
REMARK    1  A    between atoms: C8_9  and  N2_10 
REMARK    2  A    between atoms: C14_16  and  O1_17 
ROOT
HETATM    1  C1  LIG X 999      43.144 130.171  22.707  1.00  0.00     0.287 C 
HETATM    2  N1  LIG X 999      43.922 131.203  21.999  1.00  0.00    -0.002 N 
HETATM    3  C2  LIG X 999      44.387 132.270  22.903  1.00  0.00     0.287 C 
HETATM    4  C3  LIG X 999      45.038 130.607  21.300  1.00  0.00     0.222 A 
HETATM    5  C4  LIG X 999      44.935 130.790  19.992  1.00  0.00     0.003 A 
HETATM    6  C5  LIG X 999      45.794 130.375  18.977  1.00  0.00     0.026 A 
HETATM    7  C6  LIG X 999      45.455 130.700  17.645  1.00  0.00    -0.023 A 
HETATM    8  C7  LIG X 999      46.285 130.308  16.585  1.00  0.00     0.041 A 
HETATM    9  C8  LIG X 999      45.947 130.632  15.263  1.00  0.00     0.026 A 
HETATM   10  C9  LIG X 999      44.773 131.352  15.001  1.00  0.00     0.030 A 
HETATM   11  C10 LIG X 999      43.935 131.751  16.046  1.00  0.00     0.014 A 
HETATM   12  C11 LIG X 999      44.261 131.434  17.371  1.00  0.00    -0.025 A 
HETATM   13  C12 LIG X 999      43.419 131.835  18.430  1.00  0.00     0.029 A 
HETATM   14  C13 LIG X 999      43.792 131.492  19.730  1.00  0.00     0.035 A 
HETATM   15  C14 LIG X 999      43.187 131.744  20.878  1.00  0.00     0.257 A 
ENDROOT
BRANCH   9  16
HETATM   16  N2  LIG X 999      46.797 130.229  14.185  1.00  0.00    -0.399 N 
HETATM   17  H10 LIG X 999      46.398 129.996  13.249  1.00  0.00     0.156 HD
HETATM   18  H11 LIG X 999      47.831 130.161  14.317  1.00  0.00     0.156 HD
ENDBRANCH   9  16
BRANCH  15  19
HETATM   19  O1  LIG X 999      41.987 132.445  20.991  1.00  0.00    -0.340 OA
HETATM   20  H15 LIG X 999      41.877 133.188  21.669  1.00  0.00     0.219 HD
ENDBRANCH  15  19
TORSDOF 2
