REMARK VINA RESULT:      -7.5      0.000      0.000
REMARK  4 active torsions:
REMARK  status: ('A' for Active; 'I' for Inactive)
REMARK    1  A    between atoms: C3_4  and  O1_5 
REMARK    2  A    between atoms: C3_4  and  O2_6 
REMARK    3  A    between atoms: O2_6  and  C4_7 
REMARK    4  A    between atoms: C7_10  and  N2_11 
ROOT
HETATM    1  C4  LIG X 999      44.715 131.283  17.294  1.00  0.00     0.091 A 
HETATM    2  C5  LIG X 999      43.550 131.689  16.630  1.00  0.00     0.040 A 
HETATM    3  C6  LIG X 999      42.432 132.105  17.349  1.00  0.00     0.033 A 
HETATM    4  C7  LIG X 999      42.435 132.115  18.750  1.00  0.00     0.037 A 
HETATM    5  C8  LIG X 999      43.605 131.706  19.446  1.00  0.00     0.003 A 
HETATM    6  C9  LIG X 999      43.687 131.723  20.857  1.00  0.00     0.014 A 
HETATM    7  C10 LIG X 999      44.848 131.303  21.510  1.00  0.00     0.001 A 
HETATM    8  C11 LIG X 999      45.948 130.866  20.777  1.00  0.00     0.001 A 
HETATM    9  C12 LIG X 999      45.901 130.854  19.385  1.00  0.00     0.015 A 
HETATM   10  C13 LIG X 999      44.743 131.274  18.703  1.00  0.00     0.010 A 
ENDROOT
BRANCH   1  11
HETATM   11  O2  LIG X 999      45.839 130.843  16.576  1.00  0.00    -0.273 OA
BRANCH  11  12
HETATM   12  C3  LIG X 999      46.304 131.408  15.378  1.00  0.00     0.265 C 
HETATM   13  N1  LIG X 999      46.861 130.635  14.473  1.00  0.00    -0.350 N 
HETATM   14  C1  LIG X 999      46.964 129.189  14.725  1.00  0.00     0.153 C 
HETATM   15  C2  LIG X 999      47.379 131.182  13.212  1.00  0.00     0.153 C 
BRANCH  12  16
HETATM   16  O1  LIG X 999      46.200 132.793  15.198  1.00  0.00    -0.327 OA
HETATM   17  H7  LIG X 999      45.543 133.237  14.570  1.00  0.00     0.221 HD
ENDBRANCH  12  16
ENDBRANCH  11  12
ENDBRANCH   1  11
BRANCH   4  18
HETATM   18  N2  LIG X 999      41.234 132.524  19.423  1.00  0.00    -0.398 N 
HETATM   19  H10 LIG X 999      40.383 131.930  19.494  1.00  0.00     0.156 HD
HETATM   20  H11 LIG X 999      41.147 133.498  19.793  1.00  0.00     0.156 HD
ENDBRANCH   4  18
TORSDOF 4
