MODEL 1
REMARK VINA RESULT:      -8.0      0.000      0.000
REMARK  5 active torsions:
REMARK  status: ('A' for Active; 'I' for Inactive)
REMARK    1  A    between atoms: C6_6  and  C7_7 
REMARK    2  A    between atoms: C7_7  and  N1_8 
REMARK    3  A    between atoms: N4_11  and  C8_12 
REMARK    4  A    between atoms: C8_12  and  C9_13 
REMARK    5  A    between atoms: C9_13  and  N5_14 
ROOT
HETATM    1  N1  LIG X 999      45.849 130.557  19.742  1.00  0.00    -0.052 NA
HETATM    2  N2  LIG X 999      45.390 130.289  20.852  1.00  0.00    -0.160 NA
HETATM    3  N3  LIG X 999      44.931 130.021  21.962  1.00  0.00     0.068 N 
ENDROOT
BRANCH   1   4
HETATM    4  C7  LIG X 999      45.020 131.053  18.686  1.00  0.00     0.191 C 
HETATM    5  N4  LIG X 999      43.777 131.366  18.934  1.00  0.00    -0.267 NA
BRANCH   4   6
HETATM    6  C6  LIG X 999      45.607 131.153  17.335  1.00  0.00     0.015 A 
HETATM    7  C5  LIG X 999      46.298 130.067  16.774  1.00  0.00     0.027 A 
HETATM    8  C4  LIG X 999      46.839 130.164  15.483  1.00  0.00    -0.025 A 
HETATM    9  C3  LIG X 999      47.545 129.089  14.920  1.00  0.00     0.012 A 
HETATM   10  C12 LIG X 999      46.669 131.357  14.739  1.00  0.00    -0.026 A 
HETATM   11  C2  LIG X 999      48.080 129.198  13.633  1.00  0.00     0.001 A 
HETATM   12  C1  LIG X 999      47.916 130.377  12.900  1.00  0.00     0.001 A 
HETATM   13  C13 LIG X 999      47.213 131.454  13.447  1.00  0.00     0.012 A 
HETATM   14  C11 LIG X 999      45.956 132.428  15.296  1.00  0.00     0.013 A 
HETATM   15  C10 LIG X 999      45.421 132.321  16.583  1.00  0.00     0.016 A 
ENDBRANCH   4   6
BRANCH   5  16
HETATM   16  C8  LIG X 999      42.766 131.809  17.969  1.00  0.00     0.178 C 
BRANCH  16  17
HETATM   17  C9  LIG X 999      41.584 132.503  18.663  1.00  0.00     0.251 C 
BRANCH  17  18
HETATM   18  N5  LIG X 999      42.011 133.229  19.859  1.00  0.00    -0.078 N 
HETATM   19  H9  LIG X 999      42.098 132.555  20.653  1.00  0.00     0.274 HD
HETATM   20  H10 LIG X 999      42.941 133.678  19.698  1.00  0.00     0.274 HD
HETATM   21  H11 LIG X 999      41.305 133.958  20.111  1.00  0.00     0.274 HD
ENDBRANCH  17  18
ENDBRANCH  16  17
ENDBRANCH   5  16
ENDBRANCH   1   4
TORSDOF 5
ENDMDL
MODEL 2
REMARK VINA RESULT:      -7.4      1.134      3.147
REMARK  5 active torsions:
REMARK  status: ('A' for Active; 'I' for Inactive)
REMARK    1  A    between atoms: C6_6  and  C7_7 
REMARK    2  A    between atoms: C7_7  and  N1_8 
REMARK    3  A    between atoms: N4_11  and  C8_12 
REMARK    4  A    between atoms: C8_12  and  C9_13 
REMARK    5  A    between atoms: C9_13  and  N5_14 
ROOT
HETATM    1  N1  LIG X 999      42.931 132.062  17.861  1.00  0.00    -0.052 NA
HETATM    2  N2  LIG X 999      42.113 132.425  18.706  1.00  0.00    -0.160 NA
HETATM    3  N3  LIG X 999      41.295 132.788  19.550  1.00  0.00     0.068 N 
ENDROOT
BRANCH   1   4
HETATM    4  C7  LIG X 999      44.224 131.571  18.230  1.00  0.00     0.191 C 
HETATM    5  N4  LIG X 999      44.630 131.689  19.465  1.00  0.00    -0.267 NA
BRANCH   4   6
HETATM    6  C6  LIG X 999      45.067 130.981  17.171  1.00  0.00     0.015 A 
HETATM    7  C5  LIG X 999      45.599 131.783  16.150  1.00  0.00     0.027 A 
HETATM    8  C4  LIG X 999      46.412 131.217  15.156  1.00  0.00    -0.025 A 
HETATM    9  C3  LIG X 999      46.936 132.009  14.123  1.00  0.00     0.012 A 
HETATM   10  C12 LIG X 999      46.710 129.833  15.199  1.00  0.00    -0.026 A 
HETATM   11  C2  LIG X 999      47.744 131.433  13.138  1.00  0.00     0.001 A 
HETATM   12  C1  LIG X 999      48.036 130.066  13.178  1.00  0.00     0.001 A 
HETATM   13  C13 LIG X 999      47.523 129.267  14.203  1.00  0.00     0.012 A 
HETATM   14  C11 LIG X 999      46.196 129.043  16.237  1.00  0.00     0.013 A 
HETATM   15  C10 LIG X 999      45.386 129.617  17.221  1.00  0.00     0.016 A 
ENDBRANCH   4   6
BRANCH   5  16
HETATM   16  C8  LIG X 999      45.943 131.320  20.004  1.00  0.00     0.178 C 
BRANCH  16  17
HETATM   17  C9  LIG X 999      45.880 130.015  20.812  1.00  0.00     0.251 C 
BRANCH  17  18
HETATM   18  N5  LIG X 999      44.948 130.121  21.936  1.00  0.00    -0.078 N 
HETATM   19  H9  LIG X 999      44.768 131.131  22.135  1.00  0.00     0.274 HD
HETATM   20  H10 LIG X 999      44.041 129.659  21.699  1.00  0.00     0.274 HD
HETATM   21  H11 LIG X 999      45.360 129.677  22.789  1.00  0.00     0.274 HD
ENDBRANCH  17  18
ENDBRANCH  16  17
ENDBRANCH   5  16
ENDBRANCH   1   4
TORSDOF 5
ENDMDL
MODEL 3
REMARK VINA RESULT:      -7.3      1.225      2.811
REMARK  5 active torsions:
REMARK  status: ('A' for Active; 'I' for Inactive)
REMARK    1  A    between atoms: C6_6  and  C7_7 
REMARK    2  A    between atoms: C7_7  and  N1_8 
REMARK    3  A    between atoms: N4_11  and  C8_12 
REMARK    4  A    between atoms: C8_12  and  C9_13 
REMARK    5  A    between atoms: C9_13  and  N5_14 
ROOT
HETATM    1  N1  LIG X 999      42.386 132.042  18.386  1.00  0.00    -0.052 NA
HETATM    2  N2  LIG X 999      41.914 132.620  19.365  1.00  0.00    -0.160 NA
HETATM    3  N3  LIG X 999      41.443 133.198  20.344  1.00  0.00     0.068 N 
ENDROOT
BRANCH   1   4
HETATM    4  C7  LIG X 999      43.723 131.532  18.387  1.00  0.00     0.191 C 
HETATM    5  N4  LIG X 999      44.309 131.261  19.521  1.00  0.00    -0.267 NA
BRANCH   4   6
HETATM    6  C6  LIG X 999      44.401 131.369  17.086  1.00  0.00     0.015 A 
HETATM    7  C5  LIG X 999      45.587 130.625  16.985  1.00  0.00     0.027 A 
HETATM    8  C4  LIG X 999      46.217 130.462  15.743  1.00  0.00    -0.025 A 
HETATM    9  C3  LIG X 999      47.411 129.731  15.635  1.00  0.00     0.012 A 
HETATM   10  C12 LIG X 999      45.641 131.037  14.584  1.00  0.00    -0.026 A 
HETATM   11  C2  LIG X 999      48.030 129.577  14.391  1.00  0.00     0.001 A 
HETATM   12  C1  LIG X 999      47.463 130.148  13.248  1.00  0.00     0.001 A 
HETATM   13  C13 LIG X 999      46.274 130.875  13.340  1.00  0.00     0.012 A 
HETATM   14  C11 LIG X 999      44.443 131.759  14.688  1.00  0.00     0.013 A 
HETATM   15  C10 LIG X 999      43.824 131.915  15.931  1.00  0.00     0.016 A 
ENDBRANCH   4   6
BRANCH   5  16
HETATM   16  C8  LIG X 999      45.690 130.812  19.719  1.00  0.00     0.178 C 
BRANCH  16  17
HETATM   17  C9  LIG X 999      45.799 129.793  20.863  1.00  0.00     0.251 C 
BRANCH  17  18
HETATM   18  N5  LIG X 999      44.968 130.174  22.006  1.00  0.00    -0.078 N 
HETATM   19  H9  LIG X 999      43.993 129.832  21.847  1.00  0.00     0.274 HD
HETATM   20  H10 LIG X 999      45.336 129.740  22.882  1.00  0.00     0.274 HD
HETATM   21  H11 LIG X 999      44.948 131.214  22.107  1.00  0.00     0.274 HD
ENDBRANCH  17  18
ENDBRANCH  16  17
ENDBRANCH   5  16
ENDBRANCH   1   4
TORSDOF 5
ENDMDL
MODEL 4
REMARK VINA RESULT:      -6.9      1.885      3.661
REMARK  5 active torsions:
REMARK  status: ('A' for Active; 'I' for Inactive)
REMARK    1  A    between atoms: C6_6  and  C7_7 
REMARK    2  A    between atoms: C7_7  and  N1_8 
REMARK    3  A    between atoms: N4_11  and  C8_12 
REMARK    4  A    between atoms: C8_12  and  C9_13 
REMARK    5  A    between atoms: C9_13  and  N5_14 
ROOT
HETATM    1  N1  LIG X 999      42.326 132.901  19.636  1.00  0.00    -0.052 NA
HETATM    2  N2  LIG X 999      41.497 133.242  20.480  1.00  0.00    -0.160 NA
HETATM    3  N3  LIG X 999      40.669 133.584  21.323  1.00  0.00     0.068 N 
ENDROOT
BRANCH   1   4
HETATM    4  C7  LIG X 999      43.343 131.937  19.930  1.00  0.00     0.191 C 
HETATM    5  N4  LIG X 999      43.523 131.544  21.162  1.00  0.00    -0.267 NA
BRANCH   4   6
HETATM    6  C6  LIG X 999      44.181 131.455  18.814  1.00  0.00     0.015 A 
HETATM    7  C5  LIG X 999      43.819 131.717  17.484  1.00  0.00     0.027 A 
HETATM    8  C4  LIG X 999      44.629 131.268  16.429  1.00  0.00    -0.025 A 
HETATM    9  C3  LIG X 999      44.268 131.513  15.095  1.00  0.00     0.012 A 
HETATM   10  C12 LIG X 999      45.825 130.565  16.713  1.00  0.00    -0.026 A 
HETATM   11  C2  LIG X 999      45.082 131.060  14.053  1.00  0.00     0.001 A 
HETATM   12  C1  LIG X 999      46.261 130.363  14.333  1.00  0.00     0.001 A 
HETATM   13  C13 LIG X 999      46.634 130.115  15.657  1.00  0.00     0.012 A 
HETATM   14  C11 LIG X 999      46.192 130.329  18.046  1.00  0.00     0.013 A 
HETATM   15  C10 LIG X 999      45.378 130.779  19.089  1.00  0.00     0.016 A 
ENDBRANCH   4   6
BRANCH   5  16
HETATM   16  C8  LIG X 999      44.559 130.633  21.658  1.00  0.00     0.178 C 
BRANCH  16  17
HETATM   17  C9  LIG X 999      44.037 129.744  22.796  1.00  0.00     0.251 C 
BRANCH  17  18
HETATM   18  N5  LIG X 999      42.587 129.864  22.954  1.00  0.00    -0.078 N 
HETATM   19  H9  LIG X 999      42.147 129.931  22.008  1.00  0.00     0.274 HD
HETATM   20  H10 LIG X 999      42.205 129.022  23.441  1.00  0.00     0.274 HD
HETATM   21  H11 LIG X 999      42.353 130.725  23.498  1.00  0.00     0.274 HD
ENDBRANCH  17  18
ENDBRANCH  16  17
ENDBRANCH   5  16
ENDBRANCH   1   4
TORSDOF 5
ENDMDL
MODEL 5
REMARK VINA RESULT:      -6.5      2.217      3.552
REMARK  5 active torsions:
REMARK  status: ('A' for Active; 'I' for Inactive)
REMARK    1  A    between atoms: C6_6  and  C7_7 
REMARK    2  A    between atoms: C7_7  and  N1_8 
REMARK    3  A    between atoms: N4_11  and  C8_12 
REMARK    4  A    between atoms: C8_12  and  C9_13 
REMARK    5  A    between atoms: C9_13  and  N5_14 
ROOT
HETATM    1  N1  LIG X 999      43.030 131.027  21.326  1.00  0.00    -0.052 NA
HETATM    2  N2  LIG X 999      42.818 131.286  22.511  1.00  0.00    -0.160 NA
HETATM    3  N3  LIG X 999      42.605 131.546  23.695  1.00  0.00     0.068 N 
ENDROOT
BRANCH   1   4
HETATM    4  C7  LIG X 999      44.265 131.375  20.692  1.00  0.00     0.191 C 
HETATM    5  N4  LIG X 999      45.291 131.718  21.421  1.00  0.00    -0.267 NA
BRANCH   4   6
HETATM    6  C6  LIG X 999      44.308 131.368  19.216  1.00  0.00     0.015 A 
HETATM    7  C5  LIG X 999      45.401 130.809  18.535  1.00  0.00     0.027 A 
HETATM    8  C4  LIG X 999      45.427 130.792  17.133  1.00  0.00    -0.025 A 
HETATM    9  C3  LIG X 999      46.523 130.248  16.444  1.00  0.00     0.012 A 
HETATM   10  C12 LIG X 999      44.337 131.326  16.404  1.00  0.00    -0.026 A 
HETATM   11  C2  LIG X 999      46.538 130.237  15.046  1.00  0.00     0.001 A 
HETATM   12  C1  LIG X 999      45.463 130.768  14.326  1.00  0.00     0.001 A 
HETATM   13  C13 LIG X 999      44.365 131.310  15.000  1.00  0.00     0.012 A 
HETATM   14  C11 LIG X 999      43.237 131.861  17.091  1.00  0.00     0.013 A 
HETATM   15  C10 LIG X 999      43.221 131.873  18.489  1.00  0.00     0.016 A 
ENDBRANCH   4   6
BRANCH   5  16
HETATM   16  C8  LIG X 999      46.599 132.179  20.947  1.00  0.00     0.178 C 
BRANCH  16  17
HETATM   17  C9  LIG X 999      47.064 133.438  21.695  1.00  0.00     0.251 C 
BRANCH  17  18
HETATM   18  N5  LIG X 999      48.472 133.348  22.082  1.00  0.00    -0.078 N 
HETATM   19  H9  LIG X 999      48.531 133.165  23.109  1.00  0.00     0.274 HD
HETATM   20  H10 LIG X 999      48.937 132.562  21.574  1.00  0.00     0.274 HD
HETATM   21  H11 LIG X 999      48.963 134.247  21.871  1.00  0.00     0.274 HD
ENDBRANCH  17  18
ENDBRANCH  16  17
ENDBRANCH   5  16
ENDBRANCH   1   4
TORSDOF 5
ENDMDL
MODEL 6
REMARK VINA RESULT:      -6.0      2.414      3.224
REMARK  5 active torsions:
REMARK  status: ('A' for Active; 'I' for Inactive)
REMARK    1  A    between atoms: C6_6  and  C7_7 
REMARK    2  A    between atoms: C7_7  and  N1_8 
REMARK    3  A    between atoms: N4_11  and  C8_12 
REMARK    4  A    between atoms: C8_12  and  C9_13 
REMARK    5  A    between atoms: C9_13  and  N5_14 
ROOT
HETATM    1  N1  LIG X 999      46.772 131.809  20.966  1.00  0.00    -0.052 NA
HETATM    2  N2  LIG X 999      47.129 132.885  21.446  1.00  0.00    -0.160 NA
HETATM    3  N3  LIG X 999      47.486 133.961  21.924  1.00  0.00     0.068 N 
ENDROOT
BRANCH   1   4
HETATM    4  C7  LIG X 999      45.398 131.538  20.671  1.00  0.00     0.191 C 
HETATM    5  N4  LIG X 999      44.563 131.297  21.645  1.00  0.00    -0.267 NA
BRANCH   4   6
HETATM    6  C6  LIG X 999      44.990 131.504  19.253  1.00  0.00     0.015 A 
HETATM    7  C5  LIG X 999      45.863 131.014  18.269  1.00  0.00     0.027 A 
HETATM    8  C4  LIG X 999      45.462 130.971  16.925  1.00  0.00    -0.025 A 
HETATM    9  C3  LIG X 999      46.334 130.496  15.933  1.00  0.00     0.012 A 
HETATM   10  C12 LIG X 999      44.164 131.407  16.566  1.00  0.00    -0.026 A 
HETATM   11  C2  LIG X 999      45.923 130.458  14.597  1.00  0.00     0.001 A 
HETATM   12  C1  LIG X 999      44.643 130.892  14.242  1.00  0.00     0.001 A 
HETATM   13  C13 LIG X 999      43.763 131.364  15.220  1.00  0.00     0.012 A 
HETATM   14  C11 LIG X 999      43.288 131.871  17.558  1.00  0.00     0.013 A 
HETATM   15  C10 LIG X 999      43.697 131.911  18.894  1.00  0.00     0.016 A 
ENDBRANCH   4   6
BRANCH   5  16
HETATM   16  C8  LIG X 999      43.151 130.925  21.529  1.00  0.00     0.178 C 
BRANCH  16  17
HETATM   17  C9  LIG X 999      42.648 130.200  22.787  1.00  0.00     0.251 C 
BRANCH  17  18
HETATM   18  N5  LIG X 999      42.038 131.130  23.738  1.00  0.00    -0.078 N 
HETATM   19  H9  LIG X 999      42.565 131.089  24.640  1.00  0.00     0.274 HD
HETATM   20  H10 LIG X 999      42.082 132.107  23.369  1.00  0.00     0.274 HD
HETATM   21  H11 LIG X 999      41.042 130.863  23.916  1.00  0.00     0.274 HD
ENDBRANCH  17  18
ENDBRANCH  16  17
ENDBRANCH   5  16
ENDBRANCH   1   4
TORSDOF 5
ENDMDL
MODEL 7
REMARK VINA RESULT:      -5.8      2.325      4.145
REMARK  5 active torsions:
REMARK  status: ('A' for Active; 'I' for Inactive)
REMARK    1  A    between atoms: C6_6  and  C7_7 
REMARK    2  A    between atoms: C7_7  and  N1_8 
REMARK    3  A    between atoms: N4_11  and  C8_12 
REMARK    4  A    between atoms: C8_12  and  C9_13 
REMARK    5  A    between atoms: C9_13  and  N5_14 
ROOT
HETATM    1  N1  LIG X 999      43.440 132.181  22.268  1.00  0.00    -0.052 NA
HETATM    2  N2  LIG X 999      43.027 131.959  23.406  1.00  0.00    -0.160 NA
HETATM    3  N3  LIG X 999      42.614 131.737  24.544  1.00  0.00     0.068 N 
ENDROOT
BRANCH   1   4
HETATM    4  C7  LIG X 999      44.049 131.155  21.477  1.00  0.00     0.191 C 
HETATM    5  N4  LIG X 999      44.636 130.149  22.066  1.00  0.00    -0.267 NA
BRANCH   4   6
HETATM    6  C6  LIG X 999      44.019 131.305  20.009  1.00  0.00     0.015 A 
HETATM    7  C5  LIG X 999      45.118 130.917  19.227  1.00  0.00     0.027 A 
HETATM    8  C4  LIG X 999      45.075 131.048  17.831  1.00  0.00    -0.025 A 
HETATM    9  C3  LIG X 999      46.176 130.677  17.043  1.00  0.00     0.012 A 
HETATM   10  C12 LIG X 999      43.909 131.557  17.210  1.00  0.00    -0.026 A 
HETATM   11  C2  LIG X 999      46.122 130.814  15.652  1.00  0.00     0.001 A 
HETATM   12  C1  LIG X 999      44.971 131.319  15.039  1.00  0.00     0.001 A 
HETATM   13  C13 LIG X 999      43.867 131.690  15.812  1.00  0.00     0.012 A 
HETATM   14  C11 LIG X 999      42.805 131.919  17.995  1.00  0.00     0.013 A 
HETATM   15  C10 LIG X 999      42.858 131.784  19.385  1.00  0.00     0.016 A 
ENDBRANCH   4   6
BRANCH   5  16
HETATM   16  C8  LIG X 999      45.375 129.057  21.426  1.00  0.00     0.178 C 
BRANCH  16  17
HETATM   17  C9  LIG X 999      45.267 127.750  22.227  1.00  0.00     0.251 C 
BRANCH  17  18
HETATM   18  N5  LIG X 999      44.112 127.762  23.125  1.00  0.00    -0.078 N 
HETATM   19  H9  LIG X 999      43.937 128.743  23.442  1.00  0.00     0.274 HD
HETATM   20  H10 LIG X 999      43.261 127.415  22.626  1.00  0.00     0.274 HD
HETATM   21  H11 LIG X 999      44.300 127.165  23.963  1.00  0.00     0.274 HD
ENDBRANCH  17  18
ENDBRANCH  16  17
ENDBRANCH   5  16
ENDBRANCH   1   4
TORSDOF 5
ENDMDL
MODEL 8
REMARK VINA RESULT:      -5.6      1.742      2.296
REMARK  5 active torsions:
REMARK  status: ('A' for Active; 'I' for Inactive)
REMARK    1  A    between atoms: C6_6  and  C7_7 
REMARK    2  A    between atoms: C7_7  and  N1_8 
REMARK    3  A    between atoms: N4_11  and  C8_12 
REMARK    4  A    between atoms: C8_12  and  C9_13 
REMARK    5  A    between atoms: C9_13  and  N5_14 
ROOT
HETATM    1  N1  LIG X 999      45.899 129.350  20.900  1.00  0.00    -0.052 NA
HETATM    2  N2  LIG X 999      45.455 128.600  21.770  1.00  0.00    -0.160 NA
HETATM    3  N3  LIG X 999      45.012 127.851  22.640  1.00  0.00     0.068 N 
ENDROOT
BRANCH   1   4
HETATM    4  C7  LIG X 999      45.163 130.490  20.445  1.00  0.00     0.191 C 
HETATM    5  N4  LIG X 999      44.532 131.238  21.309  1.00  0.00    -0.267 NA
BRANCH   4   6
HETATM    6  C6  LIG X 999      45.119 130.748  18.992  1.00  0.00     0.015 A 
HETATM    7  C5  LIG X 999      46.075 130.181  18.136  1.00  0.00     0.027 A 
HETATM    8  C4  LIG X 999      46.017 130.419  16.754  1.00  0.00    -0.025 A 
HETATM    9  C3  LIG X 999      46.978 129.868  15.892  1.00  0.00     0.012 A 
HETATM   10  C12 LIG X 999      44.976 131.219  16.223  1.00  0.00    -0.026 A 
HETATM   11  C2  LIG X 999      46.910 130.113  14.517  1.00  0.00     0.001 A 
HETATM   12  C1  LIG X 999      45.885 130.905  13.993  1.00  0.00     0.001 A 
HETATM   13  C13 LIG X 999      44.920 131.457  14.840  1.00  0.00     0.012 A 
HETATM   14  C11 LIG X 999      44.010 131.761  17.082  1.00  0.00     0.013 A 
HETATM   15  C10 LIG X 999      44.077 131.519  18.457  1.00  0.00     0.016 A 
ENDBRANCH   4   6
BRANCH   5  16
HETATM   16  C8  LIG X 999      43.669 132.387  21.021  1.00  0.00     0.178 C 
BRANCH  16  17
HETATM   17  C9  LIG X 999      42.220 132.136  21.462  1.00  0.00     0.251 C 
BRANCH  17  18
HETATM   18  N5  LIG X 999      42.137 131.815  22.888  1.00  0.00    -0.078 N 
HETATM   19  H9  LIG X 999      41.706 132.622  23.393  1.00  0.00     0.274 HD
HETATM   20  H10 LIG X 999      41.540 130.971  23.035  1.00  0.00     0.274 HD
HETATM   21  H11 LIG X 999      43.093 131.645  23.275  1.00  0.00     0.274 HD
ENDBRANCH  17  18
ENDBRANCH  16  17
ENDBRANCH   5  16
ENDBRANCH   1   4
TORSDOF 5
ENDMDL
MODEL 9
REMARK VINA RESULT:      -5.3      3.343      6.093
REMARK  5 active torsions:
REMARK  status: ('A' for Active; 'I' for Inactive)
REMARK    1  A    between atoms: C6_6  and  C7_7 
REMARK    2  A    between atoms: C7_7  and  N1_8 
REMARK    3  A    between atoms: N4_11  and  C8_12 
REMARK    4  A    between atoms: C8_12  and  C9_13 
REMARK    5  A    between atoms: C9_13  and  N5_14 
ROOT
HETATM    1  N1  LIG X 999      47.148 129.791  15.996  1.00  0.00    -0.052 NA
HETATM    2  N2  LIG X 999      47.639 129.577  14.887  1.00  0.00    -0.160 NA
HETATM    3  N3  LIG X 999      48.129 129.362  13.780  1.00  0.00     0.068 N 
ENDROOT
BRANCH   1   4
HETATM    4  C7  LIG X 999      45.912 130.497  16.146  1.00  0.00     0.191 C 
HETATM    5  N4  LIG X 999      45.274 130.913  15.087  1.00  0.00    -0.267 NA
BRANCH   4   6
HETATM    6  C6  LIG X 999      45.429 130.759  17.516  1.00  0.00     0.015 A 
HETATM    7  C5  LIG X 999      44.211 131.423  17.730  1.00  0.00     0.027 A 
HETATM    8  C4  LIG X 999      43.751 131.655  19.035  1.00  0.00    -0.025 A 
HETATM    9  C3  LIG X 999      42.542 132.332  19.259  1.00  0.00     0.012 A 
HETATM   10  C12 LIG X 999      44.512 131.199  20.139  1.00  0.00    -0.026 A 
HETATM   11  C2  LIG X 999      42.094 132.557  20.564  1.00  0.00     0.001 A 
HETATM   12  C1  LIG X 999      42.847 132.110  21.653  1.00  0.00     0.001 A 
HETATM   13  C13 LIG X 999      44.052 131.432  21.445  1.00  0.00     0.012 A 
HETATM   14  C11 LIG X 999      45.716 130.514  19.917  1.00  0.00     0.013 A 
HETATM   15  C10 LIG X 999      46.165 130.289  18.613  1.00  0.00     0.016 A 
ENDBRANCH   4   6
BRANCH   5  16
HETATM   16  C8  LIG X 999      44.047 131.714  15.050  1.00  0.00     0.178 C 
BRANCH  16  17
HETATM   17  C9  LIG X 999      43.152 131.330  13.862  1.00  0.00     0.251 C 
BRANCH  17  18
HETATM   18  N5  LIG X 999      42.408 132.483  13.353  1.00  0.00    -0.078 N 
HETATM   19  H9  LIG X 999      41.884 132.925  14.142  1.00  0.00     0.274 HD
HETATM   20  H10 LIG X 999      43.064 133.188  12.949  1.00  0.00     0.274 HD
HETATM   21  H11 LIG X 999      41.723 132.177  12.623  1.00  0.00     0.274 HD
ENDBRANCH  17  18
ENDBRANCH  16  17
ENDBRANCH   5  16
ENDBRANCH   1   4
TORSDOF 5
ENDMDL
