REMARK VINA RESULT:      -8.2      1.419      2.423
REMARK  3 active torsions:
REMARK  status: ('A' for Active; 'I' for Inactive)
REMARK    1  A    between atoms: O1_2  and  C1_3 
REMARK    2  A    between atoms: C1_3  and  C3_8 
REMARK    3  A    between atoms: C2_4  and  N1_5 
ROOT
HETATM    1  N1  LIG X 999      45.285 130.609  14.143  1.00  0.00    -0.082 NA
HETATM    2  N2  LIG X 999      46.420 130.815  13.714  1.00  0.00    -0.163 NA
HETATM    3  N3  LIG X 999      47.553 131.021  13.284  1.00  0.00     0.068 N 
ENDROOT
BRANCH   1   4
HETATM    4  C2  LIG X 999      45.052 130.467  15.545  1.00  0.00     0.193 C 
HETATM    5  C1  LIG X 999      45.299 131.478  16.394  1.00  0.00     0.096 C 
BRANCH   5   6
HETATM    6  O1  LIG X 999      45.763 132.708  15.916  1.00  0.00    -0.358 OA
HETATM    7  H1  LIG X 999      46.746 132.944  15.858  1.00  0.00     0.217 HD
ENDBRANCH   5   6
BRANCH   5   8
HETATM    8  C3  LIG X 999      45.070 131.338  17.855  1.00  0.00    -0.001 A 
HETATM    9  C4  LIG X 999      45.998 130.620  18.629  1.00  0.00     0.015 A 
HETATM   10  C5  LIG X 999      45.809 130.459  20.004  1.00  0.00     0.013 A 
HETATM   11  C6  LIG X 999      44.681 131.005  20.631  1.00  0.00    -0.026 A 
HETATM   12  C7  LIG X 999      44.483 130.848  22.011  1.00  0.00     0.012 A 
HETATM   13  C11 LIG X 999      43.730 131.717  19.862  1.00  0.00    -0.025 A 
HETATM   14  C8  LIG X 999      43.350 131.390  22.623  1.00  0.00     0.001 A 
HETATM   15  C9  LIG X 999      42.408 132.091  21.865  1.00  0.00     0.001 A 
HETATM   16  C10 LIG X 999      42.595 132.255  20.489  1.00  0.00     0.012 A 
HETATM   17  C12 LIG X 999      43.927 131.875  18.481  1.00  0.00     0.026 A 
ENDBRANCH   5   8
ENDBRANCH   1   4
TORSDOF 3
