REMARK VINA RESULT:      -5.0      1.341      1.487
REMARK  4 active torsions:
REMARK  status: ('A' for Active; 'I' for Inactive)
REMARK    1  A    between atoms: C3_3  and  O1_4 
REMARK    2  A    between atoms: O1_4  and  C4_5 
REMARK    3  A    between atoms: C9_12  and  N2_13 
REMARK    4  A    between atoms: C11_17  and  C12_18 
ROOT
HETATM    1  C1  LIG X 999      45.720 130.768  19.532  1.00  0.00     0.014 C 
HETATM    2  C2  LIG X 999      44.978 130.832  20.481  1.00  0.00    -0.091 C 
HETATM    3  C3  LIG X 999      44.076 130.906  21.636  1.00  0.00     0.268 C 
ENDROOT
BRANCH   3   4
HETATM    4  O1  LIG X 999      44.580 130.118  22.713  1.00  0.00    -0.339 OA
BRANCH   4   5
HETATM    5  C4  LIG X 999      44.395 128.732  22.877  1.00  0.00     0.085 A 
HETATM    6  C5  LIG X 999      45.423 127.806  22.514  1.00  0.00     0.052 A 
HETATM    7  C6  LIG X 999      45.223 126.425  22.682  1.00  0.00     0.008 A 
HETATM    8  C7  LIG X 999      44.016 126.025  23.199  1.00  0.00     0.018 A 
HETATM    9  C15 LIG X 999      46.192 125.344  22.357  1.00  0.00     0.059 A 
HETATM   10  C8  LIG X 999      43.653 124.740  23.431  1.00  0.00     0.046 A 
HETATM   11  C10 LIG X 999      43.007 126.860  23.559  1.00  0.00     0.042 A 
HETATM   12  N1  LIG X 999      42.408 124.703  23.946  1.00  0.00    -0.337 N 
HETATM   13  C13 LIG X 999      44.571 123.627  23.131  1.00  0.00     0.033 A 
HETATM   14  H5  LIG X 999      41.873 123.851  24.224  1.00  0.00     0.167 HD
HETATM   15  C9  LIG X 999      42.005 126.002  24.028  1.00  0.00     0.176 A 
HETATM   16  C14 LIG X 999      45.787 123.920  22.616  1.00  0.00     0.034 A 
HETATM   17  C11 LIG X 999      43.153 128.255  23.413  1.00  0.00     0.050 A 
HETATM   18  N5  LIG X 999      47.356 125.625  21.865  1.00  0.00    -0.300 NA
HETATM   19  H9  LIG X 999      48.050 124.880  21.632  1.00  0.00     0.187 HD
BRANCH  15  20
HETATM   20  N2  LIG X 999      40.731 126.406  24.533  1.00  0.00    -0.053 NA
HETATM   21  N3  LIG X 999      39.724 125.723  24.347  1.00  0.00    -0.160 NA
HETATM   22  N4  LIG X 999      38.717 125.041  24.163  1.00  0.00     0.068 N 
ENDBRANCH  15  20
BRANCH  17  23
HETATM   23  C12 LIG X 999      42.061 129.182  23.800  1.00  0.00     0.273 C 
HETATM   24  O2  LIG X 999      42.248 130.113  24.625  1.00  0.00    -0.301 OA
ENDBRANCH  17  23
ENDBRANCH   4   5
ENDBRANCH   3   4
TORSDOF 4
