REMARK VINA RESULT:      -8.6      0.000      0.000
REMARK  4 active torsions:
REMARK  status: ('A' for Active; 'I' for Inactive)
REMARK    1  A    between atoms: C7_9  and  C8_10 
REMARK    2  A    between atoms: C9_13  and  N4_14 
REMARK    3  A    between atoms: C13_21  and  O2_22 
REMARK    4  A    between atoms: N7_24  and  C14_25 
ROOT
HETATM    1  N4  LIG X 999      47.100 131.515  13.999  1.00  0.00    -0.023 NA
HETATM    2  N5  LIG X 999      47.736 130.505  13.698  1.00  0.00    -0.158 NA
HETATM    3  N6  LIG X 999      48.372 129.496  13.397  1.00  0.00     0.068 N 
ENDROOT
BRANCH   1   4
HETATM    4  C9  LIG X 999      45.860 131.413  14.697  1.00  0.00     0.326 A 
HETATM    5  N3  LIG X 999      44.715 131.007  14.122  1.00  0.00    -0.099 NA
HETATM    6  N2  LIG X 999      43.799 131.043  15.078  1.00  0.00    -0.119 NA
HETATM    7  C8  LIG X 999      44.427 131.462  16.198  1.00  0.00     0.205 A 
HETATM    8  O1  LIG X 999      45.696 131.700  15.965  1.00  0.00    -0.252 OA
BRANCH   7   9
HETATM    9  C7  LIG X 999      43.751 131.677  17.492  1.00  0.00     0.032 A 
HETATM   10  C6  LIG X 999      44.343 131.337  18.747  1.00  0.00     0.020 A 
HETATM   11  C1  LIG X 999      45.595 130.554  19.015  1.00  0.00     0.060 A 
HETATM   12  C5  LIG X 999      43.644 131.713  19.880  1.00  0.00     0.019 A 
HETATM   13  N1  LIG X 999      46.254 129.987  18.056  1.00  0.00    -0.299 NA
HETATM   14  C2  LIG X 999      46.025 130.342  20.441  1.00  0.00     0.034 A 
HETATM   15  H1  LIG X 999      47.106 129.411  18.234  1.00  0.00     0.187 HD
HETATM   16  C3  LIG X 999      45.272 130.779  21.471  1.00  0.00     0.033 A 
HETATM   17  C4  LIG X 999      44.017 131.488  21.167  1.00  0.00     0.048 A 
HETATM   18  N7  LIG X 999      43.065 131.961  22.007  1.00  0.00    -0.327 N 
HETATM   19  C13 LIG X 999      42.082 132.466  21.212  1.00  0.00     0.154 A 
HETATM   20  C12 LIG X 999      42.432 132.326  19.876  1.00  0.00     0.028 A 
HETATM   21  C11 LIG X 999      41.796 132.632  18.679  1.00  0.00     0.018 A 
HETATM   22  C10 LIG X 999      42.468 132.307  17.480  1.00  0.00     0.018 A 
BRANCH  18  23
HETATM   23  C14 LIG X 999      43.038 131.851  23.465  1.00  0.00     0.127 C 
HETATM   24  C15 LIG X 999      42.448 130.509  23.883  1.00  0.00     0.027 C 
ENDBRANCH  18  23
BRANCH  19  25
HETATM   25  O2  LIG X 999      40.898 133.021  21.693  1.00  0.00    -0.345 OA
HETATM   26  H6  LIG X 999      39.997 132.642  21.431  1.00  0.00     0.219 HD
ENDBRANCH  19  25
ENDBRANCH   7   9
ENDBRANCH   1   4
TORSDOF 4
