REMARK VINA RESULT:      -6.2      2.059      2.951
REMARK  3 active torsions:
REMARK  status: ('A' for Active; 'I' for Inactive)
REMARK    1  A    between atoms: C3_3  and  S1_4 
REMARK    2  A    between atoms: S1_4  and  C4_7 
REMARK    3  A    between atoms: C12_15  and  N1_16 
ROOT
HETATM    1  C1  LIG X 999      43.134 131.781  13.725  1.00  0.00     0.013 C 
HETATM    2  C2  LIG X 999      43.893 130.954  14.164  1.00  0.00    -0.102 C 
HETATM    3  C3  LIG X 999      44.815 129.949  14.699  1.00  0.00     0.233 C 
ENDROOT
BRANCH   3   4
HETATM    4  S1  LIG X 999      45.868 130.662  15.956  1.00  0.00     0.159 S 
HETATM    5  O1  LIG X 999      46.268 132.055  15.556  1.00  0.00    -0.227 OA
HETATM    6  O2  LIG X 999      47.104 129.815  16.069  1.00  0.00    -0.227 OA
BRANCH   4   7
HETATM    7  C4  LIG X 999      45.042 130.696  17.552  1.00  0.00     0.116 C 
HETATM    8  C5  LIG X 999      43.909 131.732  17.562  1.00  0.00     0.059 C 
HETATM    9  C6  LIG X 999      43.319 131.932  18.937  1.00  0.00    -0.049 A 
HETATM   10  C7  LIG X 999      42.053 132.532  19.044  1.00  0.00     0.007 A 
HETATM   11  C11 LIG X 999      44.037 131.601  20.114  1.00  0.00    -0.019 A 
HETATM   12  C8  LIG X 999      41.479 132.759  20.295  1.00  0.00     0.001 A 
HETATM   13  C9  LIG X 999      42.162 132.392  21.454  1.00  0.00     0.001 A 
HETATM   14  C10 LIG X 999      43.427 131.809  21.366  1.00  0.00     0.010 A 
HETATM   15  C12 LIG X 999      45.388 130.909  20.049  1.00  0.00     0.252 C 
HETATM   16  C13 LIG X 999      46.048 131.023  18.660  1.00  0.00     0.060 C 
BRANCH  15  17
HETATM   17  N1  LIG X 999      46.286 131.436  21.082  1.00  0.00     0.087 N 
HETATM   18  H12 LIG X 999      45.867 131.249  22.022  1.00  0.00     0.313 HD
HETATM   19  H13 LIG X 999      47.202 130.931  21.036  1.00  0.00     0.313 HD
ENDBRANCH  15  17
ENDBRANCH   4   7
ENDBRANCH   3   4
TORSDOF 3
