REMARK VINA RESULT:      -6.5      2.630      4.541
REMARK  1 active torsions:
REMARK  status: ('A' for Active; 'I' for Inactive)
REMARK    1  A    between atoms: C1_2  and  C2_3 
ROOT
HETATM    1  C2  LIG X 999      45.403 130.539  16.713  1.00  0.00     0.013 A 
HETATM    2  C3  LIG X 999      44.179 131.235  16.672  1.00  0.00     0.015 A 
HETATM    3  C4  LIG X 999      43.718 131.816  15.493  1.00  0.00     0.002 A 
HETATM    4  C5  LIG X 999      44.465 131.718  14.324  1.00  0.00     0.012 A 
HETATM    5  C6  LIG X 999      45.686 131.035  14.320  1.00  0.00    -0.025 A 
HETATM    6  C7  LIG X 999      46.425 130.947  13.130  1.00  0.00     0.012 A 
HETATM    7  C8  LIG X 999      47.644 130.273  13.106  1.00  0.00     0.001 A 
HETATM    8  C9  LIG X 999      48.136 129.679  14.267  1.00  0.00     0.001 A 
HETATM    9  C10 LIG X 999      47.416 129.755  15.461  1.00  0.00     0.013 A 
HETATM   10  C11 LIG X 999      46.176 130.434  15.517  1.00  0.00    -0.013 A 
ENDROOT
BRANCH   1  11
HETATM   11  C1  LIG X 999      45.830 129.945  18.009  1.00  0.00     0.270 C 
HETATM   12  O1  LIG X 999      45.736 130.601  19.081  1.00  0.00    -0.301 OA
ENDBRANCH   1  11
TORSDOF 1
