REMARK VINA RESULT:      -6.9      4.747      6.677
REMARK  3 active torsions:
REMARK  status: ('A' for Active; 'I' for Inactive)
REMARK    1  A    between atoms: C6_6  and  C7_7 
REMARK    2  A    between atoms: C8_8  and  C9_9 
REMARK    3  A    between atoms: C10_12  and  N1_13 
ROOT
HETATM    1  N1  LIG X 999      45.965 132.887  20.656  1.00  0.00    -0.105 NA
HETATM    2  N2  LIG X 999      46.977 133.022  21.346  1.00  0.00    -0.167 NA
HETATM    3  N3  LIG X 999      47.987 133.157  22.034  1.00  0.00     0.068 N 
ENDROOT
BRANCH   1   4
HETATM    4  C10 LIG X 999      45.304 131.591  20.528  1.00  0.00     0.179 C 
HETATM    5  C4  LIG X 999      44.720 131.478  19.135  1.00  0.00    -0.023 A 
HETATM    6  C3  LIG X 999      43.343 131.693  18.886  1.00  0.00    -0.050 A 
HETATM    7  C5  LIG X 999      45.589 131.244  18.054  1.00  0.00     0.030 A 
HETATM    8  C2  LIG X 999      42.862 131.628  17.569  1.00  0.00     0.009 A 
HETATM    9  C13 LIG X 999      42.351 131.875  20.011  1.00  0.00     0.039 C 
HETATM   10  C1  LIG X 999      43.734 131.387  16.505  1.00  0.00     0.021 A 
HETATM   11  C6  LIG X 999      45.098 131.195  16.745  1.00  0.00     0.018 A 
HETATM   12  C12 LIG X 999      43.015 132.299  21.324  1.00  0.00     0.007 C 
HETATM   13  C11 LIG X 999      44.230 131.419  21.617  1.00  0.00     0.035 C 
BRANCH  11  14
HETATM   14  C7  LIG X 999      45.995 130.952  15.647  1.00  0.00    -0.056 C 
HETATM   15  C8  LIG X 999      46.745 130.748  14.726  1.00  0.00     0.010 C 
BRANCH  15  16
HETATM   16  C9  LIG X 999      47.639 130.505  13.629  1.00  0.00     0.258 C 
HETATM   17  O1  LIG X 999      47.692 131.317  12.669  1.00  0.00    -0.637 OA
HETATM   18  O2  LIG X 999      48.445 129.376  13.628  1.00  0.00    -0.637 OA
ENDBRANCH  15  16
ENDBRANCH  11  14
ENDBRANCH   1   4
TORSDOF 3
