REMARK VINA RESULT:      -5.7      5.158      7.905
REMARK  4 active torsions:
REMARK  status: ('A' for Active; 'I' for Inactive)
REMARK    1  A    between atoms: C7_9  and  C8_10 
REMARK    2  A    between atoms: C9_13  and  N4_14 
REMARK    3  A    between atoms: C13_21  and  O2_22 
REMARK    4  A    between atoms: N7_24  and  C14_25 
ROOT
HETATM    1  N4  LIG X 999      44.918 132.020  20.757  1.00  0.00    -0.023 NA
HETATM    2  N5  LIG X 999      44.416 131.880  19.642  1.00  0.00    -0.158 NA
HETATM    3  N6  LIG X 999      43.915 131.740  18.528  1.00  0.00     0.068 N 
ENDROOT
BRANCH   1   4
HETATM    4  C9  LIG X 999      44.622 131.102  21.809  1.00  0.00     0.326 A 
HETATM    5  N3  LIG X 999      44.388 131.476  23.078  1.00  0.00    -0.099 NA
HETATM    6  N2  LIG X 999      44.154 130.357  23.746  1.00  0.00    -0.119 NA
HETATM    7  C8  LIG X 999      44.248 129.348  22.854  1.00  0.00     0.205 A 
HETATM    8  O1  LIG X 999      44.546 129.802  21.659  1.00  0.00    -0.252 OA
BRANCH   7   9
HETATM    9  C7  LIG X 999      44.094 127.922  23.201  1.00  0.00     0.032 A 
HETATM   10  C6  LIG X 999      42.839 127.338  23.556  1.00  0.00     0.020 A 
HETATM   11  C1  LIG X 999      41.532 128.018  23.843  1.00  0.00     0.060 A 
HETATM   12  C5  LIG X 999      42.827 125.966  23.733  1.00  0.00     0.019 A 
HETATM   13  N1  LIG X 999      41.441 129.308  23.892  1.00  0.00    -0.299 NA
HETATM   14  C2  LIG X 999      40.336 127.173  24.184  1.00  0.00     0.034 A 
HETATM   15  H1  LIG X 999      40.545 129.792  24.126  1.00  0.00     0.187 HD
HETATM   16  C3  LIG X 999      40.437 125.833  24.302  1.00  0.00     0.033 A 
HETATM   17  C4  LIG X 999      41.751 125.209  24.075  1.00  0.00     0.048 A 
HETATM   18  N7  LIG X 999      42.126 123.913  24.196  1.00  0.00    -0.327 N 
HETATM   19  C13 LIG X 999      43.464 123.885  23.941  1.00  0.00     0.154 A 
HETATM   20  C12 LIG X 999      43.917 125.162  23.642  1.00  0.00     0.028 A 
HETATM   21  C11 LIG X 999      45.167 125.693  23.345  1.00  0.00     0.018 A 
HETATM   22  C10 LIG X 999      45.249 127.085  23.119  1.00  0.00     0.018 A 
BRANCH  18  23
HETATM   23  C14 LIG X 999      41.296 122.787  24.625  1.00  0.00     0.127 C 
HETATM   24  C15 LIG X 999      40.344 122.377  23.508  1.00  0.00     0.027 C 
ENDBRANCH  18  23
BRANCH  19  25
HETATM   25  O2  LIG X 999      44.244 122.732  23.998  1.00  0.00    -0.345 OA
HETATM   26  H6  LIG X 999      44.163 122.082  24.770  1.00  0.00     0.219 HD
ENDBRANCH  19  25
ENDBRANCH   7   9
ENDBRANCH   1   4
TORSDOF 4
