MODEL 1
REMARK VINA RESULT:      -8.1      0.000      0.000
REMARK  3 active torsions:
REMARK  status: ('A' for Active; 'I' for Inactive)
REMARK       I    between atoms: N1_2  and  C3_4 
REMARK    1  A    between atoms: C3_4  and  O2_6 
REMARK    2  A    between atoms: O2_6  and  C4_7 
REMARK    3  A    between atoms: C13_16  and  N2_17 
ROOT
HETATM    1  C4  LIG X 999      44.419 131.408  18.049  1.00  0.00     0.108 A 
HETATM    2  C5  LIG X 999      45.584 130.890  18.617  1.00  0.00     0.040 A 
HETATM    3  C6  LIG X 999      45.695 130.737  19.995  1.00  0.00     0.015 A 
HETATM    4  C7  LIG X 999      44.647 131.127  20.837  1.00  0.00    -0.024 A 
HETATM    5  C8  LIG X 999      44.775 130.974  22.226  1.00  0.00     0.012 A 
HETATM    6  C9  LIG X 999      43.752 131.389  23.077  1.00  0.00     0.001 A 
HETATM    7  C10 LIG X 999      42.598 131.969  22.552  1.00  0.00     0.001 A 
HETATM    8  C11 LIG X 999      42.453 132.127  21.172  1.00  0.00     0.014 A 
HETATM    9  C12 LIG X 999      43.465 131.694  20.286  1.00  0.00     0.003 A 
HETATM   10  C13 LIG X 999      43.353 131.836  18.876  1.00  0.00     0.071 A 
ENDROOT
BRANCH   1  11
HETATM   11  O2  LIG X 999      44.350 131.491  16.654  1.00  0.00    -0.259 OA
BRANCH  11  12
HETATM   12  C3  LIG X 999      45.477 131.500  15.821  1.00  0.00     0.367 C 
HETATM   13  N1  LIG X 999      45.898 130.287  15.175  1.00  0.00    -0.336 N 
HETATM   14  C1  LIG X 999      45.148 129.051  15.412  1.00  0.00     0.154 C 
HETATM   15  C2  LIG X 999      47.071 130.298  14.296  1.00  0.00     0.154 C 
HETATM   16  O1  LIG X 999      46.111 132.575  15.623  1.00  0.00    -0.238 OA
ENDBRANCH  11  12
ENDBRANCH   1  11
BRANCH  10  17
HETATM   17  N2  LIG X 999      42.197 132.441  18.273  1.00  0.00    -0.396 N 
HETATM   18  H13 LIG X 999      41.230 132.260  18.615  1.00  0.00     0.156 HD
HETATM   19  H14 LIG X 999      42.288 133.025  17.412  1.00  0.00     0.156 HD
ENDBRANCH  10  17
TORSDOF 3
ENDMDL
MODEL 2
REMARK VINA RESULT:      -7.5      1.725      6.432
REMARK  3 active torsions:
REMARK  status: ('A' for Active; 'I' for Inactive)
REMARK       I    between atoms: N1_2  and  C3_4 
REMARK    1  A    between atoms: C3_4  and  O2_6 
REMARK    2  A    between atoms: O2_6  and  C4_7 
REMARK    3  A    between atoms: C13_16  and  N2_17 
ROOT
HETATM    1  C4  LIG X 999      45.272 131.276  16.904  1.00  0.00     0.108 A 
HETATM    2  C5  LIG X 999      45.408 129.899  17.088  1.00  0.00     0.040 A 
HETATM    3  C6  LIG X 999      46.188 129.141  16.221  1.00  0.00     0.015 A 
HETATM    4  C7  LIG X 999      46.828 129.745  15.133  1.00  0.00    -0.024 A 
HETATM    5  C8  LIG X 999      47.606 128.968  14.261  1.00  0.00     0.012 A 
HETATM    6  C9  LIG X 999      48.221 129.552  13.155  1.00  0.00     0.001 A 
HETATM    7  C10 LIG X 999      48.058 130.913  12.902  1.00  0.00     0.001 A 
HETATM    8  C11 LIG X 999      47.289 131.703  13.760  1.00  0.00     0.014 A 
HETATM    9  C12 LIG X 999      46.673 131.140  14.901  1.00  0.00     0.003 A 
HETATM   10  C13 LIG X 999      45.885 131.911  15.798  1.00  0.00     0.071 A 
ENDROOT
BRANCH   1  11
HETATM   11  O2  LIG X 999      44.514 131.991  17.839  1.00  0.00    -0.259 OA
BRANCH  11  12
HETATM   12  C3  LIG X 999      44.447 131.660  19.199  1.00  0.00     0.367 C 
HETATM   13  N1  LIG X 999      43.201 131.785  19.904  1.00  0.00    -0.336 N 
HETATM   14  C1  LIG X 999      42.019 132.274  19.190  1.00  0.00     0.154 C 
HETATM   15  C2  LIG X 999      43.128 131.430  21.324  1.00  0.00     0.154 C 
HETATM   16  O1  LIG X 999      45.474 131.235  19.799  1.00  0.00    -0.238 OA
ENDBRANCH  11  12
ENDBRANCH   1  11
BRANCH  10  17
HETATM   17  N2  LIG X 999      45.663 133.315  15.584  1.00  0.00    -0.396 N 
HETATM   18  H13 LIG X 999      44.926 133.672  14.940  1.00  0.00     0.156 HD
HETATM   19  H14 LIG X 999      46.296 134.027  16.011  1.00  0.00     0.156 HD
ENDBRANCH  10  17
TORSDOF 3
ENDMDL
MODEL 3
REMARK VINA RESULT:      -7.3      1.488      1.910
REMARK  3 active torsions:
REMARK  status: ('A' for Active; 'I' for Inactive)
REMARK       I    between atoms: N1_2  and  C3_4 
REMARK    1  A    between atoms: C3_4  and  O2_6 
REMARK    2  A    between atoms: O2_6  and  C4_7 
REMARK    3  A    between atoms: C13_16  and  N2_17 
ROOT
HETATM    1  C4  LIG X 999      45.453 130.673  17.553  1.00  0.00     0.108 A 
HETATM    2  C5  LIG X 999      46.080 130.521  18.790  1.00  0.00     0.040 A 
HETATM    3  C6  LIG X 999      45.443 130.915  19.962  1.00  0.00     0.015 A 
HETATM    4  C7  LIG X 999      44.171 131.498  19.914  1.00  0.00    -0.024 A 
HETATM    5  C8  LIG X 999      43.543 131.898  21.103  1.00  0.00     0.012 A 
HETATM    6  C9  LIG X 999      42.291 132.510  21.066  1.00  0.00     0.001 A 
HETATM    7  C10 LIG X 999      41.659 132.737  19.844  1.00  0.00     0.001 A 
HETATM    8  C11 LIG X 999      42.269 132.343  18.651  1.00  0.00     0.014 A 
HETATM    9  C12 LIG X 999      43.528 131.700  18.663  1.00  0.00     0.003 A 
HETATM   10  C13 LIG X 999      44.179 131.283  17.469  1.00  0.00     0.071 A 
ENDROOT
BRANCH   1  11
HETATM   11  O2  LIG X 999      46.126 130.211  16.415  1.00  0.00    -0.259 OA
BRANCH  11  12
HETATM   12  C3  LIG X 999      46.523 131.042  15.359  1.00  0.00     0.367 C 
HETATM   13  N1  LIG X 999      47.246 130.489  14.247  1.00  0.00    -0.336 N 
HETATM   14  C1  LIG X 999      47.572 129.061  14.243  1.00  0.00     0.154 C 
HETATM   15  C2  LIG X 999      47.653 131.355  13.137  1.00  0.00     0.154 C 
HETATM   16  O1  LIG X 999      46.231 132.271  15.375  1.00  0.00    -0.238 OA
ENDBRANCH  11  12
ENDBRANCH   1  11
BRANCH  10  17
HETATM   17  N2  LIG X 999      43.590 131.504  16.177  1.00  0.00    -0.396 N 
HETATM   18  H13 LIG X 999      43.355 132.457  15.826  1.00  0.00     0.156 HD
HETATM   19  H14 LIG X 999      43.301 130.700  15.578  1.00  0.00     0.156 HD
ENDBRANCH  10  17
TORSDOF 3
ENDMDL
MODEL 4
REMARK VINA RESULT:      -7.3      1.472      2.545
REMARK  3 active torsions:
REMARK  status: ('A' for Active; 'I' for Inactive)
REMARK       I    between atoms: N1_2  and  C3_4 
REMARK    1  A    between atoms: C3_4  and  O2_6 
REMARK    2  A    between atoms: O2_6  and  C4_7 
REMARK    3  A    between atoms: C13_16  and  N2_17 
ROOT
HETATM    1  C4  LIG X 999      44.168 131.373  17.103  1.00  0.00     0.108 A 
HETATM    2  C5  LIG X 999      42.866 131.822  17.329  1.00  0.00     0.040 A 
HETATM    3  C6  LIG X 999      42.397 132.020  18.624  1.00  0.00     0.015 A 
HETATM    4  C7  LIG X 999      43.218 131.743  19.723  1.00  0.00    -0.024 A 
HETATM    5  C8  LIG X 999      42.731 131.939  21.024  1.00  0.00     0.012 A 
HETATM    6  C9  LIG X 999      43.526 131.637  22.128  1.00  0.00     0.001 A 
HETATM    7  C10 LIG X 999      44.811 131.126  21.944  1.00  0.00     0.001 A 
HETATM    8  C11 LIG X 999      45.314 130.927  20.656  1.00  0.00     0.014 A 
HETATM    9  C12 LIG X 999      44.536 131.247  19.521  1.00  0.00     0.003 A 
HETATM   10  C13 LIG X 999      45.013 131.059  18.195  1.00  0.00     0.071 A 
ENDROOT
BRANCH   1  11
HETATM   11  O2  LIG X 999      44.596 131.241  15.777  1.00  0.00    -0.259 OA
BRANCH  11  12
HETATM   12  C3  LIG X 999      45.360 130.162  15.313  1.00  0.00     0.367 C 
HETATM   13  N1  LIG X 999      46.580 130.407  14.594  1.00  0.00    -0.336 N 
HETATM   14  C1  LIG X 999      46.999 131.788  14.342  1.00  0.00     0.154 C 
HETATM   15  C2  LIG X 999      47.384 129.278  14.116  1.00  0.00     0.154 C 
HETATM   16  O1  LIG X 999      44.987 128.977  15.541  1.00  0.00    -0.238 OA
ENDBRANCH  11  12
ENDBRANCH   1  11
BRANCH  10  17
HETATM   17  N2  LIG X 999      46.320 130.520  17.938  1.00  0.00    -0.396 N 
HETATM   18  H13 LIG X 999      46.469 129.677  17.345  1.00  0.00     0.156 HD
HETATM   19  H14 LIG X 999      47.163 130.916  18.410  1.00  0.00     0.156 HD
ENDBRANCH  10  17
TORSDOF 3
ENDMDL
MODEL 5
REMARK VINA RESULT:      -7.2      2.937      6.341
REMARK  3 active torsions:
REMARK  status: ('A' for Active; 'I' for Inactive)
REMARK       I    between atoms: N1_2  and  C3_4 
REMARK    1  A    between atoms: C3_4  and  O2_6 
REMARK    2  A    between atoms: O2_6  and  C4_7 
REMARK    3  A    between atoms: C13_16  and  N2_17 
ROOT
HETATM    1  C4  LIG X 999      44.217 131.493  20.493  1.00  0.00     0.108 A 
HETATM    2  C5  LIG X 999      43.015 131.992  19.990  1.00  0.00     0.040 A 
HETATM    3  C6  LIG X 999      42.777 132.023  18.620  1.00  0.00     0.015 A 
HETATM    4  C7  LIG X 999      43.755 131.578  17.722  1.00  0.00    -0.024 A 
HETATM    5  C8  LIG X 999      43.505 131.622  16.342  1.00  0.00     0.012 A 
HETATM    6  C9  LIG X 999      44.483 131.213  15.436  1.00  0.00     0.001 A 
HETATM    7  C10 LIG X 999      45.720 130.767  15.898  1.00  0.00     0.001 A 
HETATM    8  C11 LIG X 999      45.985 130.714  17.268  1.00  0.00     0.014 A 
HETATM    9  C12 LIG X 999      45.003 131.102  18.208  1.00  0.00     0.003 A 
HETATM   10  C13 LIG X 999      45.235 131.061  19.610  1.00  0.00     0.071 A 
ENDROOT
BRANCH   1  11
HETATM   11  O2  LIG X 999      44.376 131.442  21.884  1.00  0.00    -0.259 OA
BRANCH  11  12
HETATM   12  C3  LIG X 999      44.073 130.315  22.658  1.00  0.00     0.367 C 
HETATM   13  N1  LIG X 999      43.047 130.392  23.661  1.00  0.00    -0.336 N 
HETATM   14  C1  LIG X 999      42.342 131.659  23.870  1.00  0.00     0.154 C 
HETATM   15  C2  LIG X 999      42.723 129.210  24.465  1.00  0.00     0.154 C 
HETATM   16  O1  LIG X 999      44.687 129.228  22.463  1.00  0.00    -0.238 OA
ENDBRANCH  11  12
ENDBRANCH   1  11
BRANCH  10  17
HETATM   17  N2  LIG X 999      46.495 130.628  20.149  1.00  0.00    -0.396 N 
HETATM   18  H13 LIG X 999      46.706 129.625  20.339  1.00  0.00     0.156 HD
HETATM   19  H14 LIG X 999      47.216 131.323  20.447  1.00  0.00     0.156 HD
ENDBRANCH  10  17
TORSDOF 3
ENDMDL
MODEL 6
REMARK VINA RESULT:      -7.1      2.911      6.176
REMARK  3 active torsions:
REMARK  status: ('A' for Active; 'I' for Inactive)
REMARK       I    between atoms: N1_2  and  C3_4 
REMARK    1  A    between atoms: C3_4  and  O2_6 
REMARK    2  A    between atoms: O2_6  and  C4_7 
REMARK    3  A    between atoms: C13_16  and  N2_17 
ROOT
HETATM    1  C4  LIG X 999      44.224 131.557  20.193  1.00  0.00     0.108 A 
HETATM    2  C5  LIG X 999      43.076 132.083  19.600  1.00  0.00     0.040 A 
HETATM    3  C6  LIG X 999      42.904 132.038  18.220  1.00  0.00     0.015 A 
HETATM    4  C7  LIG X 999      43.897 131.488  17.402  1.00  0.00    -0.024 A 
HETATM    5  C8  LIG X 999      43.716 131.456  16.011  1.00  0.00     0.012 A 
HETATM    6  C9  LIG X 999      44.711 130.941  15.182  1.00  0.00     0.001 A 
HETATM    7  C10 LIG X 999      45.900 130.463  15.731  1.00  0.00     0.001 A 
HETATM    8  C11 LIG X 999      46.097 130.486  17.114  1.00  0.00     0.014 A 
HETATM    9  C12 LIG X 999      45.095 130.981  17.977  1.00  0.00     0.003 A 
HETATM   10  C13 LIG X 999      45.258 131.019  19.390  1.00  0.00     0.071 A 
ENDROOT
BRANCH   1  11
HETATM   11  O2  LIG X 999      44.315 131.588  21.589  1.00  0.00    -0.259 OA
BRANCH  11  12
HETATM   12  C3  LIG X 999      43.292 131.154  22.442  1.00  0.00     0.367 C 
HETATM   13  N1  LIG X 999      43.356 129.842  23.026  1.00  0.00    -0.336 N 
HETATM   14  C1  LIG X 999      44.487 128.969  22.704  1.00  0.00     0.154 C 
HETATM   15  C2  LIG X 999      42.290 129.391  23.926  1.00  0.00     0.154 C 
HETATM   16  O1  LIG X 999      42.325 131.921  22.713  1.00  0.00    -0.238 OA
ENDBRANCH  11  12
ENDBRANCH   1  11
BRANCH  10  17
HETATM   17  N2  LIG X 999      46.466 130.558  20.017  1.00  0.00    -0.396 N 
HETATM   18  H13 LIG X 999      46.942 131.095  20.772  1.00  0.00     0.156 HD
HETATM   19  H14 LIG X 999      46.953 129.701  19.673  1.00  0.00     0.156 HD
ENDBRANCH  10  17
TORSDOF 3
ENDMDL
MODEL 7
REMARK VINA RESULT:      -7.1      1.758      6.567
REMARK  3 active torsions:
REMARK  status: ('A' for Active; 'I' for Inactive)
REMARK       I    between atoms: N1_2  and  C3_4 
REMARK    1  A    between atoms: C3_4  and  O2_6 
REMARK    2  A    between atoms: O2_6  and  C4_7 
REMARK    3  A    between atoms: C13_16  and  N2_17 
ROOT
HETATM    1  C4  LIG X 999      45.217 131.216  16.958  1.00  0.00     0.108 A 
HETATM    2  C5  LIG X 999      45.330 132.435  16.289  1.00  0.00     0.040 A 
HETATM    3  C6  LIG X 999      46.074 132.536  15.117  1.00  0.00     0.015 A 
HETATM    4  C7  LIG X 999      46.743 131.419  14.607  1.00  0.00    -0.024 A 
HETATM    5  C8  LIG X 999      47.496 131.535  13.428  1.00  0.00     0.012 A 
HETATM    6  C9  LIG X 999      48.195 130.438  12.928  1.00  0.00     0.001 A 
HETATM    7  C10 LIG X 999      48.158 129.219  13.602  1.00  0.00     0.001 A 
HETATM    8  C11 LIG X 999      47.412 129.084  14.775  1.00  0.00     0.014 A 
HETATM    9  C12 LIG X 999      46.677 130.174  15.291  1.00  0.00     0.003 A 
HETATM   10  C13 LIG X 999      45.905 130.075  16.482  1.00  0.00     0.071 A 
ENDROOT
BRANCH   1  11
HETATM   11  O2  LIG X 999      44.414 131.168  18.104  1.00  0.00    -0.259 OA
BRANCH  11  12
HETATM   12  C3  LIG X 999      44.926 131.150  19.409  1.00  0.00     0.367 C 
HETATM   13  N1  LIG X 999      44.088 131.535  20.511  1.00  0.00    -0.336 N 
HETATM   14  C1  LIG X 999      42.710 131.958  20.250  1.00  0.00     0.154 C 
HETATM   15  C2  LIG X 999      44.620 131.506  21.876  1.00  0.00     0.154 C 
HETATM   16  O1  LIG X 999      46.116 130.778  19.618  1.00  0.00    -0.238 OA
ENDBRANCH  11  12
ENDBRANCH   1  11
BRANCH  10  17
HETATM   17  N2  LIG X 999      45.840 128.851  17.233  1.00  0.00    -0.396 N 
HETATM   18  H13 LIG X 999      45.564 128.828  18.238  1.00  0.00     0.156 HD
HETATM   19  H14 LIG X 999      46.150 127.948  16.811  1.00  0.00     0.156 HD
ENDBRANCH  10  17
TORSDOF 3
ENDMDL
MODEL 8
REMARK VINA RESULT:      -6.8      1.461      1.860
REMARK  3 active torsions:
REMARK  status: ('A' for Active; 'I' for Inactive)
REMARK       I    between atoms: N1_2  and  C3_4 
REMARK    1  A    between atoms: C3_4  and  O2_6 
REMARK    2  A    between atoms: O2_6  and  C4_7 
REMARK    3  A    between atoms: C13_16  and  N2_17 
ROOT
HETATM    1  C4  LIG X 999      44.862 131.537  19.187  1.00  0.00     0.108 A 
HETATM    2  C5  LIG X 999      45.777 130.564  19.592  1.00  0.00     0.040 A 
HETATM    3  C6  LIG X 999      45.650 129.943  20.831  1.00  0.00     0.015 A 
HETATM    4  C7  LIG X 999      44.617 130.306  21.702  1.00  0.00    -0.024 A 
HETATM    5  C8  LIG X 999      44.506 129.677  22.952  1.00  0.00     0.012 A 
HETATM    6  C9  LIG X 999      43.502 130.053  23.842  1.00  0.00     0.001 A 
HETATM    7  C10 LIG X 999      42.606 131.066  23.499  1.00  0.00     0.001 A 
HETATM    8  C11 LIG X 999      42.701 131.701  22.259  1.00  0.00     0.014 A 
HETATM    9  C12 LIG X 999      43.696 131.323  21.329  1.00  0.00     0.003 A 
HETATM   10  C13 LIG X 999      43.823 131.945  20.057  1.00  0.00     0.071 A 
ENDROOT
BRANCH   1  11
HETATM   11  O2  LIG X 999      45.014 132.090  17.910  1.00  0.00    -0.259 OA
BRANCH  11  12
HETATM   12  C3  LIG X 999      44.215 131.739  16.813  1.00  0.00     0.367 C 
HETATM   13  N1  LIG X 999      44.812 131.583  15.515  1.00  0.00    -0.336 N 
HETATM   14  C1  LIG X 999      46.250 131.810  15.355  1.00  0.00     0.154 C 
HETATM   15  C2  LIG X 999      43.978 131.206  14.370  1.00  0.00     0.154 C 
HETATM   16  O1  LIG X 999      42.977 131.542  16.969  1.00  0.00    -0.238 OA
ENDBRANCH  11  12
ENDBRANCH   1  11
BRANCH  10  17
HETATM   17  N2  LIG X 999      42.944 133.007  19.651  1.00  0.00    -0.396 N 
HETATM   18  H13 LIG X 999      42.644 133.763  20.302  1.00  0.00     0.156 HD
HETATM   19  H14 LIG X 999      42.509 133.006  18.701  1.00  0.00     0.156 HD
ENDBRANCH  10  17
TORSDOF 3
ENDMDL
MODEL 9
REMARK VINA RESULT:      -6.7      1.199      2.057
REMARK  3 active torsions:
REMARK  status: ('A' for Active; 'I' for Inactive)
REMARK       I    between atoms: N1_2  and  C3_4 
REMARK    1  A    between atoms: C3_4  and  O2_6 
REMARK    2  A    between atoms: O2_6  and  C4_7 
REMARK    3  A    between atoms: C13_16  and  N2_17 
ROOT
HETATM    1  C4  LIG X 999      43.610 131.596  17.782  1.00  0.00     0.108 A 
HETATM    2  C5  LIG X 999      42.360 132.116  18.120  1.00  0.00     0.040 A 
HETATM    3  C6  LIG X 999      42.006 132.306  19.452  1.00  0.00     0.015 A 
HETATM    4  C7  LIG X 999      42.890 131.951  20.476  1.00  0.00    -0.024 A 
HETATM    5  C8  LIG X 999      42.518 132.140  21.816  1.00  0.00     0.012 A 
HETATM    6  C9  LIG X 999      43.376 131.760  22.846  1.00  0.00     0.001 A 
HETATM    7  C10 LIG X 999      44.608 131.178  22.550  1.00  0.00     0.001 A 
HETATM    8  C11 LIG X 999      44.996 130.984  21.223  1.00  0.00     0.014 A 
HETATM    9  C12 LIG X 999      44.154 131.382  20.160  1.00  0.00     0.003 A 
HETATM   10  C13 LIG X 999      44.515 131.202  18.796  1.00  0.00     0.071 A 
ENDROOT
BRANCH   1  11
HETATM   11  O2  LIG X 999      43.925 131.475  16.424  1.00  0.00    -0.259 OA
BRANCH  11  12
HETATM   12  C3  LIG X 999      45.235 131.513  15.926  1.00  0.00     0.367 C 
HETATM   13  N1  LIG X 999      45.807 130.337  15.330  1.00  0.00    -0.336 N 
HETATM   14  C1  LIG X 999      45.014 129.106  15.267  1.00  0.00     0.154 C 
HETATM   15  C2  LIG X 999      47.173 130.378  14.801  1.00  0.00     0.154 C 
HETATM   16  O1  LIG X 999      45.904 132.583  15.984  1.00  0.00    -0.238 OA
ENDBRANCH  11  12
ENDBRANCH   1  11
BRANCH  10  17
HETATM   17  N2  LIG X 999      45.763 130.592  18.425  1.00  0.00    -0.396 N 
HETATM   18  H13 LIG X 999      45.817 129.795  17.756  1.00  0.00     0.156 HD
HETATM   19  H14 LIG X 999      46.655 130.881  18.883  1.00  0.00     0.156 HD
ENDBRANCH  10  17
TORSDOF 3
ENDMDL
