REMARK VINA RESULT:      -7.4      3.153      6.451
REMARK  3 active torsions:
REMARK  status: ('A' for Active; 'I' for Inactive)
REMARK    1  A    between atoms: C2_2  and  C3_3 
REMARK       I    between atoms: C3_3  and  N1_5 
REMARK    2  A    between atoms: N1_5  and  C4_6 
REMARK    3  A    between atoms: C4_6  and  C6_8 
ROOT
HETATM    1  C6  LIG X 999      44.026 131.226  16.419  1.00  0.00    -0.035 A 
HETATM    2  C7  LIG X 999      42.855 131.790  16.956  1.00  0.00     0.010 A 
HETATM    3  C8  LIG X 999      42.747 132.029  18.328  1.00  0.00     0.013 A 
HETATM    4  C9  LIG X 999      43.805 131.703  19.187  1.00  0.00    -0.026 A 
HETATM    5  C10 LIG X 999      43.706 131.941  20.567  1.00  0.00     0.012 A 
HETATM    6  C11 LIG X 999      44.767 131.609  21.414  1.00  0.00     0.001 A 
HETATM    7  C12 LIG X 999      45.931 131.038  20.892  1.00  0.00     0.001 A 
HETATM    8  C13 LIG X 999      46.042 130.797  19.520  1.00  0.00     0.012 A 
HETATM    9  C14 LIG X 999      44.984 131.126  18.658  1.00  0.00    -0.025 A 
HETATM   10  C15 LIG X 999      45.084 130.887  17.279  1.00  0.00     0.021 A 
ENDROOT
BRANCH   1  11
HETATM   11  C4  LIG X 999      44.137 130.951  14.934  1.00  0.00     0.113 C 
HETATM   12  C5  LIG X 999      43.235 131.909  14.149  1.00  0.00     0.037 C 
BRANCH  11  13
HETATM   13  N1  LIG X 999      45.530 131.075  14.492  1.00  0.00    -0.353 N 
HETATM   14  C3  LIG X 999      46.425 129.953  14.473  1.00  0.00     0.217 C 
HETATM   15  O1  LIG X 999      46.016 128.807  14.802  1.00  0.00    -0.274 OA
HETATM   16  H6  LIG X 999      45.892 132.005  14.179  1.00  0.00     0.163 HD
BRANCH  14  17
HETATM   17  C2  LIG X 999      47.843 130.130  14.021  1.00  0.00     0.098 C 
HETATM   18  C1  LIG X 999      47.912 131.088  12.837  1.00  0.00     0.014 C 
ENDBRANCH  14  17
ENDBRANCH  11  13
ENDBRANCH   1  11
TORSDOF 3
