MODEL 1
REMARK VINA RESULT:      -7.0      0.000      0.000
REMARK  3 active torsions:
REMARK  status: ('A' for Active; 'I' for Inactive)
REMARK    1  A    between atoms: C6_6  and  C7_7 
REMARK    2  A    between atoms: C8_8  and  C9_9 
REMARK    3  A    between atoms: C10_12  and  N1_13 
ROOT
HETATM    1  N1  LIG X 999      46.499 129.982  16.374  1.00  0.00    -0.105 NA
HETATM    2  N2  LIG X 999      47.048 129.498  15.383  1.00  0.00    -0.167 NA
HETATM    3  N3  LIG X 999      47.596 129.015  14.394  1.00  0.00     0.068 N 
ENDROOT
BRANCH   1   4
HETATM    4  C10 LIG X 999      46.139 131.396  16.425  1.00  0.00     0.179 C 
HETATM    5  C4  LIG X 999      44.906 131.554  17.290  1.00  0.00    -0.023 A 
HETATM    6  C3  LIG X 999      43.617 131.716  16.727  1.00  0.00    -0.050 A 
HETATM    7  C5  LIG X 999      45.040 131.444  18.686  1.00  0.00     0.030 A 
HETATM    8  C2  LIG X 999      42.500 131.805  17.573  1.00  0.00     0.009 A 
HETATM    9  C13 LIG X 999      43.418 131.914  15.242  1.00  0.00     0.039 C 
HETATM   10  C1  LIG X 999      42.648 131.701  18.957  1.00  0.00     0.021 A 
HETATM   11  C6  LIG X 999      43.917 131.520  19.516  1.00  0.00     0.018 A 
HETATM   12  C12 LIG X 999      44.611 131.430  14.414  1.00  0.00     0.007 C 
HETATM   13  C11 LIG X 999      45.920 131.953  15.007  1.00  0.00     0.035 C 
BRANCH  11  14
HETATM   14  C7  LIG X 999      44.066 131.410  20.943  1.00  0.00    -0.056 C 
HETATM   15  C8  LIG X 999      44.189 131.318  22.139  1.00  0.00     0.010 C 
BRANCH  15  16
HETATM   16  C9  LIG X 999      44.336 131.208  23.562  1.00  0.00     0.258 C 
HETATM   17  O1  LIG X 999      44.378 130.073  24.104  1.00  0.00    -0.637 OA
HETATM   18  O2  LIG X 999      44.435 132.352  24.340  1.00  0.00    -0.637 OA
ENDBRANCH  15  16
ENDBRANCH  11  14
ENDBRANCH   1   4
TORSDOF 3
ENDMDL
MODEL 2
REMARK VINA RESULT:      -6.9      4.747      6.677
REMARK  3 active torsions:
REMARK  status: ('A' for Active; 'I' for Inactive)
REMARK    1  A    between atoms: C6_6  and  C7_7 
REMARK    2  A    between atoms: C8_8  and  C9_9 
REMARK    3  A    between atoms: C10_12  and  N1_13 
ROOT
HETATM    1  N1  LIG X 999      45.965 132.887  20.656  1.00  0.00    -0.105 NA
HETATM    2  N2  LIG X 999      46.977 133.022  21.346  1.00  0.00    -0.167 NA
HETATM    3  N3  LIG X 999      47.987 133.157  22.034  1.00  0.00     0.068 N 
ENDROOT
BRANCH   1   4
HETATM    4  C10 LIG X 999      45.304 131.591  20.528  1.00  0.00     0.179 C 
HETATM    5  C4  LIG X 999      44.720 131.478  19.135  1.00  0.00    -0.023 A 
HETATM    6  C3  LIG X 999      43.343 131.693  18.886  1.00  0.00    -0.050 A 
HETATM    7  C5  LIG X 999      45.589 131.244  18.054  1.00  0.00     0.030 A 
HETATM    8  C2  LIG X 999      42.862 131.628  17.569  1.00  0.00     0.009 A 
HETATM    9  C13 LIG X 999      42.351 131.875  20.011  1.00  0.00     0.039 C 
HETATM   10  C1  LIG X 999      43.734 131.387  16.505  1.00  0.00     0.021 A 
HETATM   11  C6  LIG X 999      45.098 131.195  16.745  1.00  0.00     0.018 A 
HETATM   12  C12 LIG X 999      43.015 132.299  21.324  1.00  0.00     0.007 C 
HETATM   13  C11 LIG X 999      44.230 131.419  21.617  1.00  0.00     0.035 C 
BRANCH  11  14
HETATM   14  C7  LIG X 999      45.995 130.952  15.647  1.00  0.00    -0.056 C 
HETATM   15  C8  LIG X 999      46.745 130.748  14.726  1.00  0.00     0.010 C 
BRANCH  15  16
HETATM   16  C9  LIG X 999      47.639 130.505  13.629  1.00  0.00     0.258 C 
HETATM   17  O1  LIG X 999      47.692 131.317  12.669  1.00  0.00    -0.637 OA
HETATM   18  O2  LIG X 999      48.445 129.376  13.628  1.00  0.00    -0.637 OA
ENDBRANCH  15  16
ENDBRANCH  11  14
ENDBRANCH   1   4
TORSDOF 3
ENDMDL
MODEL 3
REMARK VINA RESULT:      -4.9      5.796      7.383
REMARK  3 active torsions:
REMARK  status: ('A' for Active; 'I' for Inactive)
REMARK    1  A    between atoms: C6_6  and  C7_7 
REMARK    2  A    between atoms: C8_8  and  C9_9 
REMARK    3  A    between atoms: C10_12  and  N1_13 
ROOT
HETATM    1  N1  LIG X 999      43.826 130.843  21.232  1.00  0.00    -0.105 NA
HETATM    2  N2  LIG X 999      44.445 131.467  20.369  1.00  0.00    -0.167 NA
HETATM    3  N3  LIG X 999      45.063 132.089  19.508  1.00  0.00     0.068 N 
ENDROOT
BRANCH   1   4
HETATM    4  C10 LIG X 999      44.320 130.756  22.604  1.00  0.00     0.179 C 
HETATM    5  C4  LIG X 999      44.184 129.325  23.081  1.00  0.00    -0.023 A 
HETATM    6  C3  LIG X 999      43.120 128.919  23.923  1.00  0.00    -0.050 A 
HETATM    7  C5  LIG X 999      45.087 128.362  22.598  1.00  0.00     0.030 A 
HETATM    8  C2  LIG X 999      43.009 127.570  24.294  1.00  0.00     0.009 A 
HETATM    9  C13 LIG X 999      42.164 129.919  24.531  1.00  0.00     0.039 C 
HETATM   10  C1  LIG X 999      43.917 126.625  23.813  1.00  0.00     0.021 A 
HETATM   11  C6  LIG X 999      44.957 127.017  22.965  1.00  0.00     0.018 A 
HETATM   12  C12 LIG X 999      42.142 131.252  23.780  1.00  0.00     0.007 C 
HETATM   13  C11 LIG X 999      43.567 131.740  23.517  1.00  0.00     0.035 C 
BRANCH  11  14
HETATM   14  C7  LIG X 999      45.888 126.041  22.468  1.00  0.00    -0.056 C 
HETATM   15  C8  LIG X 999      46.670 125.222  22.052  1.00  0.00     0.010 C 
BRANCH  15  16
HETATM   16  C9  LIG X 999      47.600 124.247  21.558  1.00  0.00     0.258 C 
HETATM   17  O1  LIG X 999      47.180 123.154  21.097  1.00  0.00    -0.637 OA
HETATM   18  O2  LIG X 999      48.962 124.510  21.586  1.00  0.00    -0.637 OA
ENDBRANCH  15  16
ENDBRANCH  11  14
ENDBRANCH   1   4
TORSDOF 3
ENDMDL
MODEL 4
REMARK VINA RESULT:      -4.8      3.791      5.188
REMARK  3 active torsions:
REMARK  status: ('A' for Active; 'I' for Inactive)
REMARK    1  A    between atoms: C6_6  and  C7_7 
REMARK    2  A    between atoms: C8_8  and  C9_9 
REMARK    3  A    between atoms: C10_12  and  N1_13 
ROOT
HETATM    1  N1  LIG X 999      45.247 130.289  18.920  1.00  0.00    -0.105 NA
HETATM    2  N2  LIG X 999      45.500 130.775  17.817  1.00  0.00    -0.167 NA
HETATM    3  N3  LIG X 999      45.753 131.261  16.716  1.00  0.00     0.068 N 
ENDROOT
BRANCH   1   4
HETATM    4  C10 LIG X 999      45.426 131.061  20.147  1.00  0.00     0.179 C 
HETATM    5  C4  LIG X 999      44.757 130.324  21.288  1.00  0.00    -0.023 A 
HETATM    6  C3  LIG X 999      43.483 130.705  21.775  1.00  0.00    -0.050 A 
HETATM    7  C5  LIG X 999      45.380 129.176  21.810  1.00  0.00     0.030 A 
HETATM    8  C2  LIG X 999      42.883 129.956  22.799  1.00  0.00     0.009 A 
HETATM    9  C13 LIG X 999      42.799 131.968  21.305  1.00  0.00     0.039 C 
HETATM   10  C1  LIG X 999      43.516 128.823  23.315  1.00  0.00     0.021 A 
HETATM   11  C6  LIG X 999      44.764 128.431  22.822  1.00  0.00     0.018 A 
HETATM   12  C12 LIG X 999      43.341 132.473  19.965  1.00  0.00     0.007 C 
HETATM   13  C11 LIG X 999      44.869 132.486  19.979  1.00  0.00     0.035 C 
BRANCH  11  14
HETATM   14  C7  LIG X 999      45.412 127.261  23.352  1.00  0.00    -0.056 C 
HETATM   15  C8  LIG X 999      45.954 126.280  23.795  1.00  0.00     0.010 C 
BRANCH  15  16
HETATM   16  C9  LIG X 999      46.600 125.112  24.323  1.00  0.00     0.258 C 
HETATM   17  O1  LIG X 999      45.938 124.058  24.512  1.00  0.00    -0.637 OA
HETATM   18  O2  LIG X 999      47.954 125.143  24.623  1.00  0.00    -0.637 OA
ENDBRANCH  15  16
ENDBRANCH  11  14
ENDBRANCH   1   4
TORSDOF 3
ENDMDL
MODEL 5
REMARK VINA RESULT:      -4.8      6.743      8.760
REMARK  3 active torsions:
REMARK  status: ('A' for Active; 'I' for Inactive)
REMARK    1  A    between atoms: C6_6  and  C7_7 
REMARK    2  A    between atoms: C8_8  and  C9_9 
REMARK    3  A    between atoms: C10_12  and  N1_13 
ROOT
HETATM    1  N1  LIG X 999      41.406 124.227  22.797  1.00  0.00    -0.105 NA
HETATM    2  N2  LIG X 999      40.405 123.518  22.906  1.00  0.00    -0.167 NA
HETATM    3  N3  LIG X 999      39.405 122.810  23.016  1.00  0.00     0.068 N 
ENDROOT
BRANCH   1   4
HETATM    4  C10 LIG X 999      42.437 124.246  23.831  1.00  0.00     0.179 C 
HETATM    5  C4  LIG X 999      43.523 125.218  23.417  1.00  0.00    -0.023 A 
HETATM    6  C3  LIG X 999      44.743 124.773  22.852  1.00  0.00    -0.050 A 
HETATM    7  C5  LIG X 999      43.270 126.597  23.515  1.00  0.00     0.030 A 
HETATM    8  C2  LIG X 999      45.695 125.717  22.437  1.00  0.00     0.009 A 
HETATM    9  C13 LIG X 999      45.101 123.307  22.790  1.00  0.00     0.039 C 
HETATM   10  C1  LIG X 999      45.434 127.085  22.546  1.00  0.00     0.021 A 
HETATM   11  C6  LIG X 999      44.223 127.527  23.085  1.00  0.00     0.018 A 
HETATM   12  C12 LIG X 999      43.880 122.392  22.906  1.00  0.00     0.007 C 
HETATM   13  C11 LIG X 999      42.993 122.831  24.072  1.00  0.00     0.035 C 
BRANCH  11  14
HETATM   14  C7  LIG X 999      43.955 128.937  23.192  1.00  0.00    -0.056 C 
HETATM   15  C8  LIG X 999      43.730 130.118  23.281  1.00  0.00     0.010 C 
BRANCH  15  16
HETATM   16  C9  LIG X 999      43.461 131.524  23.387  1.00  0.00     0.258 C 
HETATM   17  O1  LIG X 999      42.699 132.083  22.557  1.00  0.00    -0.637 OA
HETATM   18  O2  LIG X 999      44.042 132.266  24.406  1.00  0.00    -0.637 OA
ENDBRANCH  15  16
ENDBRANCH  11  14
ENDBRANCH   1   4
TORSDOF 3
ENDMDL
MODEL 6
REMARK VINA RESULT:      -4.6      4.767      7.162
REMARK  3 active torsions:
REMARK  status: ('A' for Active; 'I' for Inactive)
REMARK    1  A    between atoms: C6_6  and  C7_7 
REMARK    2  A    between atoms: C8_8  and  C9_9 
REMARK    3  A    between atoms: C10_12  and  N1_13 
ROOT
HETATM    1  N1  LIG X 999      42.239 132.239  22.137  1.00  0.00    -0.105 NA
HETATM    2  N2  LIG X 999      41.943 132.657  21.017  1.00  0.00    -0.167 NA
HETATM    3  N3  LIG X 999      41.648 133.073  19.898  1.00  0.00     0.068 N 
ENDROOT
BRANCH   1   4
HETATM    4  C10 LIG X 999      43.626 132.219  22.595  1.00  0.00     0.179 C 
HETATM    5  C4  LIG X 999      44.366 131.122  21.859  1.00  0.00    -0.023 A 
HETATM    6  C3  LIG X 999      44.628 129.867  22.460  1.00  0.00    -0.050 A 
HETATM    7  C5  LIG X 999      44.718 131.329  20.513  1.00  0.00     0.030 A 
HETATM    8  C2  LIG X 999      45.272 128.866  21.716  1.00  0.00     0.009 A 
HETATM    9  C13 LIG X 999      44.341 129.612  23.922  1.00  0.00     0.039 C 
HETATM   10  C1  LIG X 999      45.622 129.087  20.383  1.00  0.00     0.021 A 
HETATM   11  C6  LIG X 999      45.347 130.317  19.779  1.00  0.00     0.018 A 
HETATM   12  C12 LIG X 999      43.327 130.598  24.508  1.00  0.00     0.007 C 
HETATM   13  C11 LIG X 999      43.692 132.031  24.122  1.00  0.00     0.035 C 
BRANCH  11  14
HETATM   14  C7  LIG X 999      45.705 130.540  18.404  1.00  0.00    -0.056 C 
HETATM   15  C8  LIG X 999      46.005 130.727  17.251  1.00  0.00     0.010 C 
BRANCH  15  16
HETATM   16  C9  LIG X 999      46.361 130.949  15.878  1.00  0.00     0.258 C 
HETATM   17  O1  LIG X 999      46.142 132.067  15.345  1.00  0.00    -0.637 OA
HETATM   18  O2  LIG X 999      46.949 129.931  15.140  1.00  0.00    -0.637 OA
ENDBRANCH  15  16
ENDBRANCH  11  14
ENDBRANCH   1   4
TORSDOF 3
ENDMDL
MODEL 7
REMARK VINA RESULT:      -4.6      7.236      8.540
REMARK  3 active torsions:
REMARK  status: ('A' for Active; 'I' for Inactive)
REMARK    1  A    between atoms: C6_6  and  C7_7 
REMARK    2  A    between atoms: C8_8  and  C9_9 
REMARK    3  A    between atoms: C10_12  and  N1_13 
ROOT
HETATM    1  N1  LIG X 999      44.265 129.658  22.363  1.00  0.00    -0.105 NA
HETATM    2  N2  LIG X 999      43.681 130.738  22.276  1.00  0.00    -0.167 NA
HETATM    3  N3  LIG X 999      43.098 131.817  22.188  1.00  0.00     0.068 N 
ENDROOT
BRANCH   1   4
HETATM    4  C10 LIG X 999      44.346 128.942  23.633  1.00  0.00     0.179 C 
HETATM    5  C4  LIG X 999      44.370 127.454  23.353  1.00  0.00    -0.023 A 
HETATM    6  C3  LIG X 999      43.212 126.650  23.497  1.00  0.00    -0.050 A 
HETATM    7  C5  LIG X 999      45.550 126.878  22.848  1.00  0.00     0.030 A 
HETATM    8  C2  LIG X 999      43.274 125.286  23.174  1.00  0.00     0.009 A 
HETATM    9  C13 LIG X 999      41.939 127.195  24.102  1.00  0.00     0.039 C 
HETATM   10  C1  LIG X 999      44.454 124.726  22.680  1.00  0.00     0.021 A 
HETATM   11  C6  LIG X 999      45.593 125.519  22.517  1.00  0.00     0.018 A 
HETATM   12  C12 LIG X 999      41.867 128.723  24.058  1.00  0.00     0.007 C 
HETATM   13  C11 LIG X 999      43.177 129.334  24.555  1.00  0.00     0.035 C 
BRANCH  11  14
HETATM   14  C7  LIG X 999      46.807 124.940  22.005  1.00  0.00    -0.056 C 
HETATM   15  C8  LIG X 999      47.824 124.456  21.577  1.00  0.00     0.010 C 
BRANCH  15  16
HETATM   16  C9  LIG X 999      49.035 123.879  21.068  1.00  0.00     0.258 C 
HETATM   17  O1  LIG X 999      50.085 123.904  21.762  1.00  0.00    -0.637 OA
HETATM   18  O2  LIG X 999      49.049 123.291  19.811  1.00  0.00    -0.637 OA
ENDBRANCH  15  16
ENDBRANCH  11  14
ENDBRANCH   1   4
TORSDOF 3
ENDMDL
MODEL 8
REMARK VINA RESULT:      -4.5      4.865      7.456
REMARK  3 active torsions:
REMARK  status: ('A' for Active; 'I' for Inactive)
REMARK    1  A    between atoms: C6_6  and  C7_7 
REMARK    2  A    between atoms: C8_8  and  C9_9 
REMARK    3  A    between atoms: C10_12  and  N1_13 
ROOT
HETATM    1  N1  LIG X 999      42.448 129.417  22.678  1.00  0.00    -0.105 NA
HETATM    2  N2  LIG X 999      41.770 128.795  23.497  1.00  0.00    -0.167 NA
HETATM    3  N3  LIG X 999      41.093 128.174  24.313  1.00  0.00     0.068 N 
ENDROOT
BRANCH   1   4
HETATM    4  C10 LIG X 999      42.377 130.873  22.586  1.00  0.00     0.179 C 
HETATM    5  C4  LIG X 999      43.532 131.364  21.740  1.00  0.00    -0.023 A 
HETATM    6  C3  LIG X 999      44.700 131.914  22.321  1.00  0.00    -0.050 A 
HETATM    7  C5  LIG X 999      43.475 131.183  20.346  1.00  0.00     0.030 A 
HETATM    8  C2  LIG X 999      45.764 132.307  21.494  1.00  0.00     0.009 A 
HETATM    9  C13 LIG X 999      44.790 132.201  23.802  1.00  0.00     0.039 C 
HETATM   10  C1  LIG X 999      45.692 132.127  20.111  1.00  0.00     0.021 A 
HETATM   11  C6  LIG X 999      44.549 131.566  19.535  1.00  0.00     0.018 A 
HETATM   12  C12 LIG X 999      43.770 131.408  24.623  1.00  0.00     0.007 C 
HETATM   13  C11 LIG X 999      42.382 131.507  23.989  1.00  0.00     0.035 C 
BRANCH  11  14
HETATM   14  C7  LIG X 999      44.479 131.379  18.110  1.00  0.00    -0.056 C 
HETATM   15  C8  LIG X 999      44.421 131.223  16.916  1.00  0.00     0.010 C 
BRANCH  15  16
HETATM   16  C9  LIG X 999      44.352 131.038  15.495  1.00  0.00     0.258 C 
HETATM   17  O1  LIG X 999      43.581 131.752  14.803  1.00  0.00    -0.637 OA
HETATM   18  O2  LIG X 999      45.137 130.071  14.882  1.00  0.00    -0.637 OA
ENDBRANCH  15  16
ENDBRANCH  11  14
ENDBRANCH   1   4
TORSDOF 3
ENDMDL
MODEL 9
REMARK VINA RESULT:      -4.5      4.864      7.166
REMARK  3 active torsions:
REMARK  status: ('A' for Active; 'I' for Inactive)
REMARK    1  A    between atoms: C6_6  and  C7_7 
REMARK    2  A    between atoms: C8_8  and  C9_9 
REMARK    3  A    between atoms: C10_12  and  N1_13 
ROOT
HETATM    1  N1  LIG X 999      45.320 128.179  22.989  1.00  0.00    -0.105 NA
HETATM    2  N2  LIG X 999      45.243 127.025  23.411  1.00  0.00    -0.167 NA
HETATM    3  N3  LIG X 999      45.167 125.873  23.833  1.00  0.00     0.068 N 
ENDROOT
BRANCH   1   4
HETATM    4  C10 LIG X 999      44.122 128.944  22.654  1.00  0.00     0.179 C 
HETATM    5  C4  LIG X 999      44.520 130.116  21.782  1.00  0.00    -0.023 A 
HETATM    6  C3  LIG X 999      44.653 131.424  22.308  1.00  0.00    -0.050 A 
HETATM    7  C5  LIG X 999      44.854 129.876  20.437  1.00  0.00     0.030 A 
HETATM    8  C2  LIG X 999      45.076 132.466  21.468  1.00  0.00     0.009 A 
HETATM    9  C13 LIG X 999      44.240 131.756  23.722  1.00  0.00     0.039 C 
HETATM   10  C1  LIG X 999      45.398 132.216  20.132  1.00  0.00     0.021 A 
HETATM   11  C6  LIG X 999      45.288 130.922  19.614  1.00  0.00     0.018 A 
HETATM   12  C12 LIG X 999      44.165 130.522  24.624  1.00  0.00     0.007 C 
HETATM   13  C11 LIG X 999      43.393 129.400  23.930  1.00  0.00     0.035 C 
BRANCH  11  14
HETATM   14  C7  LIG X 999      45.624 130.666  18.239  1.00  0.00    -0.056 C 
HETATM   15  C8  LIG X 999      45.905 130.450  17.087  1.00  0.00     0.010 C 
BRANCH  15  16
HETATM   16  C9  LIG X 999      46.239 130.194  15.715  1.00  0.00     0.258 C 
HETATM   17  O1  LIG X 999      45.954 129.084  15.195  1.00  0.00    -0.637 OA
HETATM   18  O2  LIG X 999      46.876 131.170  14.962  1.00  0.00    -0.637 OA
ENDBRANCH  15  16
ENDBRANCH  11  14
ENDBRANCH   1   4
TORSDOF 3
ENDMDL
