REMARK VINA RESULT:      -8.0      0.000      0.000
REMARK  5 active torsions:
REMARK  status: ('A' for Active; 'I' for Inactive)
REMARK    1  A    between atoms: C6_6  and  C7_7 
REMARK       I    between atoms: C7_7  and  N1_9 
REMARK    2  A    between atoms: N1_9  and  C8_11 
REMARK    3  A    between atoms: C8_11  and  C9_12 
REMARK    4  A    between atoms: C9_12  and  N2_13 
REMARK    5  A    between atoms: C13_19  and  N5_20 
ROOT
HETATM    1  N2  LIG X 999      46.510 129.772  14.643  1.00  0.00    -0.114 NA
HETATM    2  N3  LIG X 999      47.552 129.615  14.007  1.00  0.00    -0.168 NA
HETATM    3  N4  LIG X 999      48.594 129.457  13.372  1.00  0.00     0.068 N 
ENDROOT
BRANCH   1   4
HETATM    4  C9  LIG X 999      45.567 130.817  14.271  1.00  0.00     0.208 C 
BRANCH   4   5
HETATM    5  C8  LIG X 999      45.884 132.105  15.030  1.00  0.00     0.147 C 
BRANCH   5   6
HETATM    6  N1  LIG X 999      45.838 131.886  16.476  1.00  0.00    -0.355 N 
HETATM    7  C7  LIG X 999      44.606 131.667  17.184  1.00  0.00     0.251 C 
HETATM    8  O1  LIG X 999      43.508 131.753  16.566  1.00  0.00    -0.268 OA
HETATM    9  H4  LIG X 999      46.743 131.907  16.996  1.00  0.00     0.162 HD
BRANCH   7  10
HETATM   10  C6  LIG X 999      44.597 131.359  18.634  1.00  0.00     0.032 A 
HETATM   11  C1  LIG X 999      45.608 130.557  19.184  1.00  0.00     0.017 A 
HETATM   12  C2  LIG X 999      45.619 130.263  20.548  1.00  0.00     0.011 A 
HETATM   13  C3  LIG X 999      44.627 130.776  21.399  1.00  0.00    -0.024 A 
HETATM   14  C4  LIG X 999      43.597 131.580  20.855  1.00  0.00    -0.049 A 
HETATM   15  C13 LIG X 999      44.637 130.375  22.858  1.00  0.00     0.179 C 
HETATM   16  C5  LIG X 999      43.604 131.879  19.482  1.00  0.00     0.024 A 
HETATM   17  C10 LIG X 999      42.554 132.231  21.732  1.00  0.00     0.039 C 
HETATM   18  C11 LIG X 999      42.415 131.551  23.097  1.00  0.00     0.007 C 
HETATM   19  C12 LIG X 999      43.793 131.329  23.722  1.00  0.00     0.035 C 
BRANCH  15  20
HETATM   20  N5  LIG X 999      44.146 129.003  22.971  1.00  0.00    -0.105 NA
HETATM   21  N6  LIG X 999      44.880 128.093  23.355  1.00  0.00    -0.167 NA
HETATM   22  N7  LIG X 999      45.613 127.182  23.739  1.00  0.00     0.068 N 
ENDBRANCH  15  20
ENDBRANCH   7  10
ENDBRANCH   5   6
ENDBRANCH   4   5
ENDBRANCH   1   4
TORSDOF 5
