REMARK VINA RESULT:      -8.2      2.976      7.170
REMARK  5 active torsions:
REMARK  status: ('A' for Active; 'I' for Inactive)
REMARK    1  A    between atoms: O1_2  and  C1_3 
REMARK    2  A    between atoms: C1_3  and  C5_11 
REMARK       I    between atoms: N1_4  and  C2_5 
REMARK    3  A    between atoms: C2_5  and  O3_7 
REMARK    4  A    between atoms: O3_7  and  C3_8 
REMARK    5  A    between atoms: C6_12  and  O4_13 
ROOT
HETATM    1  C5  LIG X 999      45.375 130.938  17.185  1.00  0.00     0.051 A 
HETATM    2  C6  LIG X 999      44.559 131.642  16.273  1.00  0.00     0.081 A 
HETATM    3  C7  LIG X 999      44.889 131.670  14.910  1.00  0.00     0.049 A 
HETATM    4  C8  LIG X 999      46.029 131.007  14.441  1.00  0.00    -0.023 A 
HETATM    5  C9  LIG X 999      46.363 131.035  13.077  1.00  0.00     0.012 A 
HETATM    6  C10 LIG X 999      47.502 130.366  12.619  1.00  0.00     0.001 A 
HETATM    7  C11 LIG X 999      48.314 129.668  13.516  1.00  0.00     0.001 A 
HETATM    8  C12 LIG X 999      47.992 129.633  14.877  1.00  0.00     0.012 A 
HETATM    9  C13 LIG X 999      46.851 130.301  15.349  1.00  0.00    -0.025 A 
HETATM   10  C14 LIG X 999      46.518 130.271  16.711  1.00  0.00     0.031 A 
ENDROOT
BRANCH   1  11
HETATM   11  C1  LIG X 999      45.042 130.879  18.630  1.00  0.00     0.181 C 
HETATM   12  N1  LIG X 999      44.021 131.549  19.079  1.00  0.00    -0.162 NA
HETATM   13  C2  LIG X 999      43.573 131.592  20.440  1.00  0.00     0.390 C 
HETATM   14  O2  LIG X 999      42.560 132.283  20.725  1.00  0.00    -0.236 OA
BRANCH  11  15
HETATM   15  O1  LIG X 999      45.815 130.103  19.496  1.00  0.00    -0.344 OA
HETATM   16  H1  LIG X 999      45.400 129.510  20.205  1.00  0.00     0.219 HD
ENDBRANCH  11  15
BRANCH  13  17
HETATM   17  O3  LIG X 999      44.252 130.888  21.444  1.00  0.00    -0.282 OA
BRANCH  17  18
HETATM   18  C3  LIG X 999      43.615 130.355  22.603  1.00  0.00     0.225 C 
HETATM   19 CL1  LIG X 999      43.665 131.580  23.895  1.00  0.00    -0.095 Cl
HETATM   20  C4  LIG X 999      44.332 129.092  23.073  1.00  0.00     0.057 C 
ENDBRANCH  17  18
ENDBRANCH  13  17
ENDBRANCH   1  11
BRANCH   2  21
HETATM   21  O4  LIG X 999      43.429 132.329  16.720  1.00  0.00    -0.360 OA
HETATM   22  H6  LIG X 999      43.490 133.269  17.091  1.00  0.00     0.217 HD
ENDBRANCH   2  21
TORSDOF 5
