REMARK VINA RESULT:      -3.9      2.021      4.661
REMARK  3 active torsions:
REMARK  status: ('A' for Active; 'I' for Inactive)
REMARK    1  A    between atoms: C5_5  and  N1_6 
REMARK    2  A    between atoms: C6_9  and  N4_10 
REMARK    3  A    between atoms: C8_15  and  N7_16 
ROOT
HETATM    1  N1  LIG X 999      39.961 126.994  24.625  1.00  0.00    -0.069 NA
HETATM    2  N2  LIG X 999      38.887 127.117  24.035  1.00  0.00    -0.162 NA
HETATM    3  N3  LIG X 999      37.814 127.245  23.446  1.00  0.00     0.068 N 
ENDROOT
BRANCH   1   4
HETATM    4  C5  LIG X 999      41.134 126.475  23.975  1.00  0.00     0.137 C 
HETATM    5  C4  LIG X 999      41.106 125.157  23.464  1.00  0.00     0.011 A 
HETATM    6  C3  LIG X 999      39.908 124.412  23.464  1.00  0.00     0.015 A 
HETATM    7  C9  LIG X 999      42.293 124.567  22.949  1.00  0.00     0.010 A 
HETATM    8  C2  LIG X 999      39.871 123.126  22.928  1.00  0.00     0.001 A 
HETATM    9  C1  LIG X 999      41.020 122.565  22.376  1.00  0.00     0.001 A 
HETATM   10  C10 LIG X 999      42.219 123.278  22.376  1.00  0.00     0.015 A 
HETATM   11  C8  LIG X 999      43.509 125.294  22.994  1.00  0.00     0.128 C 
HETATM   12  C7  LIG X 999      43.502 126.632  23.414  1.00  0.00     0.100 C 
HETATM   13  C6  LIG X 999      42.322 127.240  23.867  1.00  0.00     0.149 C 
HETATM   14 CL1  LIG X 999      44.998 127.569  23.365  1.00  0.00    -0.079 Cl
BRANCH  11  15
HETATM   15  N7  LIG X 999      44.766 124.715  22.608  1.00  0.00    -0.070 NA
HETATM   16  N8  LIG X 999      45.460 124.074  23.399  1.00  0.00    -0.162 NA
HETATM   17  N9  LIG X 999      46.155 123.436  24.188  1.00  0.00     0.068 N 
ENDBRANCH  11  15
BRANCH  13  18
HETATM   18  N4  LIG X 999      42.357 128.643  24.168  1.00  0.00    -0.068 NA
HETATM   19  N5  LIG X 999      42.557 129.495  23.300  1.00  0.00    -0.162 NA
HETATM   20  N6  LIG X 999      42.761 130.347  22.436  1.00  0.00     0.068 N 
ENDBRANCH  13  18
ENDBRANCH   1   4
TORSDOF 3
