MODEL 1
REMARK VINA RESULT:      -8.4      0.000      0.000
REMARK  1 active torsions:
REMARK  status: ('A' for Active; 'I' for Inactive)
REMARK    1  A    between atoms: C2_5  and  C3_6 
ROOT
HETATM    1  C3  LIG X 999      44.366 131.432  17.367  1.00  0.00     0.030 A 
HETATM    2  C4  LIG X 999      43.103 131.855  16.904  1.00  0.00     0.017 A 
HETATM    3  C5  LIG X 999      42.077 132.180  17.786  1.00  0.00     0.002 A 
HETATM    4  C6  LIG X 999      42.276 132.094  19.155  1.00  0.00     0.012 A 
HETATM    5  C7  LIG X 999      43.511 131.678  19.665  1.00  0.00    -0.025 A 
HETATM    6  C8  LIG X 999      43.684 131.600  21.057  1.00  0.00     0.012 A 
HETATM    7  C9  LIG X 999      44.901 131.191  21.594  1.00  0.00     0.001 A 
HETATM    8  C10 LIG X 999      45.956 130.856  20.751  1.00  0.00     0.001 A 
HETATM    9  C11 LIG X 999      45.805 130.927  19.364  1.00  0.00     0.013 A 
HETATM   10  C12 LIG X 999      44.581 131.340  18.781  1.00  0.00    -0.011 A 
ENDROOT
BRANCH   1  11
HETATM   11  C2  LIG X 999      45.388 131.111  16.322  1.00  0.00     0.203 A 
HETATM   12  O1  LIG X 999      45.845 129.912  16.027  1.00  0.00    -0.255 OA
HETATM   13  C1  LIG X 999      46.711 130.105  15.063  1.00  0.00     0.262 A 
HETATM   14  N1  LIG X 999      47.388 129.165  14.490  1.00  0.00    -0.260 NA
HETATM   15  N3  LIG X 999      46.808 131.401  14.745  1.00  0.00    -0.238 N 
HETATM   16  H1  LIG X 999      47.271 128.169  14.780  1.00  0.00     0.190 HD
HETATM   17  N2  LIG X 999      45.972 132.050  15.537  1.00  0.00    -0.145 NA
HETATM   18  H9  LIG X 999      47.417 131.841  14.019  1.00  0.00     0.193 HD
ENDBRANCH   1  11
TORSDOF 1
ENDMDL
MODEL 2
REMARK VINA RESULT:      -8.3      0.931      1.099
REMARK  1 active torsions:
REMARK  status: ('A' for Active; 'I' for Inactive)
REMARK    1  A    between atoms: C2_5  and  C3_6 
ROOT
HETATM    1  C3  LIG X 999      44.367 131.417  17.512  1.00  0.00     0.030 A 
HETATM    2  C4  LIG X 999      43.120 131.829  16.997  1.00  0.00     0.017 A 
HETATM    3  C5  LIG X 999      42.064 132.174  17.835  1.00  0.00     0.002 A 
HETATM    4  C6  LIG X 999      42.217 132.119  19.213  1.00  0.00     0.012 A 
HETATM    5  C7  LIG X 999      43.434 131.716  19.774  1.00  0.00    -0.025 A 
HETATM    6  C8  LIG X 999      43.559 131.669  21.171  1.00  0.00     0.012 A 
HETATM    7  C9  LIG X 999      44.757 131.273  21.759  1.00  0.00     0.001 A 
HETATM    8  C10 LIG X 999      45.840 130.919  20.961  1.00  0.00     0.001 A 
HETATM    9  C11 LIG X 999      45.736 130.958  19.567  1.00  0.00     0.013 A 
HETATM   10  C12 LIG X 999      44.534 131.357  18.935  1.00  0.00    -0.011 A 
ENDROOT
BRANCH   1  11
HETATM   11  C2  LIG X 999      45.423 131.073  16.510  1.00  0.00     0.203 A 
HETATM   12  O1  LIG X 999      45.757 131.791  15.458  1.00  0.00    -0.255 OA
HETATM   13  C1  LIG X 999      46.715 131.115  14.873  1.00  0.00     0.262 A 
HETATM   14  N1  LIG X 999      47.319 131.488  13.793  1.00  0.00    -0.260 NA
HETATM   15  N3  LIG X 999      46.991 129.986  15.536  1.00  0.00    -0.238 N 
HETATM   16  H1  LIG X 999      47.061 132.381  13.318  1.00  0.00     0.190 HD
HETATM   17  N2  LIG X 999      46.177 129.948  16.577  1.00  0.00    -0.145 NA
HETATM   18  H9  LIG X 999      47.703 129.259  15.299  1.00  0.00     0.193 HD
ENDBRANCH   1  11
TORSDOF 1
ENDMDL
MODEL 3
REMARK VINA RESULT:      -8.2      1.100      2.877
REMARK  1 active torsions:
REMARK  status: ('A' for Active; 'I' for Inactive)
REMARK    1  A    between atoms: C2_5  and  C3_6 
ROOT
HETATM    1  C3  LIG X 999      45.330 130.919  18.318  1.00  0.00     0.030 A 
HETATM    2  C4  LIG X 999      46.259 130.571  19.320  1.00  0.00     0.017 A 
HETATM    3  C5  LIG X 999      45.983 130.771  20.669  1.00  0.00     0.002 A 
HETATM    4  C6  LIG X 999      44.773 131.324  21.062  1.00  0.00     0.012 A 
HETATM    5  C7  LIG X 999      43.818 131.688  20.106  1.00  0.00    -0.025 A 
HETATM    6  C8  LIG X 999      42.603 132.246  20.533  1.00  0.00     0.012 A 
HETATM    7  C9  LIG X 999      41.633 132.617  19.606  1.00  0.00     0.001 A 
HETATM    8  C10 LIG X 999      41.865 132.435  18.247  1.00  0.00     0.001 A 
HETATM    9  C11 LIG X 999      43.068 131.881  17.800  1.00  0.00     0.013 A 
HETATM   10  C12 LIG X 999      44.077 131.492  18.715  1.00  0.00    -0.011 A 
ENDROOT
BRANCH   1  11
HETATM   11  C2  LIG X 999      45.743 130.656  16.904  1.00  0.00     0.203 A 
HETATM   12  O1  LIG X 999      46.160 131.554  16.038  1.00  0.00    -0.255 OA
HETATM   13  C1  LIG X 999      46.409 130.883  14.941  1.00  0.00     0.262 A 
HETATM   14  N1  LIG X 999      46.842 131.409  13.843  1.00  0.00    -0.260 NA
HETATM   15  N3  LIG X 999      46.156 129.578  15.099  1.00  0.00    -0.238 N 
HETATM   16  H1  LIG X 999      47.023 132.435  13.777  1.00  0.00     0.190 HD
HETATM   17  N2  LIG X 999      45.732 129.422  16.342  1.00  0.00    -0.145 NA
HETATM   18  H9  LIG X 999      46.262 128.813  14.396  1.00  0.00     0.193 HD
ENDBRANCH   1  11
TORSDOF 1
ENDMDL
MODEL 4
REMARK VINA RESULT:      -6.6      2.710      5.148
REMARK  1 active torsions:
REMARK  status: ('A' for Active; 'I' for Inactive)
REMARK    1  A    between atoms: C2_5  and  C3_6 
ROOT
HETATM    1  C3  LIG X 999      44.846 131.130  16.951  1.00  0.00     0.030 A 
HETATM    2  C4  LIG X 999      43.604 131.728  16.652  1.00  0.00     0.017 A 
HETATM    3  C5  LIG X 999      43.202 131.955  15.339  1.00  0.00     0.002 A 
HETATM    4  C6  LIG X 999      44.025 131.593  14.283  1.00  0.00     0.012 A 
HETATM    5  C7  LIG X 999      45.267 130.996  14.526  1.00  0.00    -0.025 A 
HETATM    6  C8  LIG X 999      46.079 130.641  13.437  1.00  0.00     0.012 A 
HETATM    7  C9  LIG X 999      47.319 130.046  13.647  1.00  0.00     0.001 A 
HETATM    8  C10 LIG X 999      47.762 129.799  14.942  1.00  0.00     0.001 A 
HETATM    9  C11 LIG X 999      46.970 130.146  16.040  1.00  0.00     0.013 A 
HETATM   10  C12 LIG X 999      45.702 130.752  15.865  1.00  0.00    -0.011 A 
ENDROOT
BRANCH   1  11
HETATM   11  C2  LIG X 999      45.164 130.939  18.400  1.00  0.00     0.203 A 
HETATM   12  O1  LIG X 999      44.650 131.620  19.403  1.00  0.00    -0.255 OA
HETATM   13  C1  LIG X 999      45.208 131.120  20.477  1.00  0.00     0.262 A 
HETATM   14  N1  LIG X 999      44.966 131.522  21.681  1.00  0.00    -0.260 NA
HETATM   15  N3  LIG X 999      46.064 130.138  20.171  1.00  0.00    -0.238 N 
HETATM   16  H1  LIG X 999      44.287 132.294  21.861  1.00  0.00     0.190 HD
HETATM   17  N2  LIG X 999      46.044 130.014  18.855  1.00  0.00    -0.145 NA
HETATM   18  H9  LIG X 999      46.646 129.566  20.823  1.00  0.00     0.193 HD
ENDBRANCH   1  11
TORSDOF 1
ENDMDL
MODEL 5
REMARK VINA RESULT:      -6.5      1.490      2.072
REMARK  1 active torsions:
REMARK  status: ('A' for Active; 'I' for Inactive)
REMARK    1  A    between atoms: C2_5  and  C3_6 
ROOT
HETATM    1  C3  LIG X 999      43.543 131.751  19.182  1.00  0.00     0.030 A 
HETATM    2  C4  LIG X 999      42.461 132.621  18.936  1.00  0.00     0.017 A 
HETATM    3  C5  LIG X 999      41.625 133.051  19.961  1.00  0.00     0.002 A 
HETATM    4  C6  LIG X 999      41.839 132.627  21.264  1.00  0.00     0.012 A 
HETATM    5  C7  LIG X 999      42.899 131.762  21.561  1.00  0.00    -0.025 A 
HETATM    6  C8  LIG X 999      43.092 131.350  22.889  1.00  0.00     0.012 A 
HETATM    7  C9  LIG X 999      44.137 130.491  23.215  1.00  0.00     0.001 A 
HETATM    8  C10 LIG X 999      44.999 130.035  22.223  1.00  0.00     0.001 A 
HETATM    9  C11 LIG X 999      44.825 130.434  20.895  1.00  0.00     0.013 A 
HETATM   10  C12 LIG X 999      43.772 131.307  20.526  1.00  0.00    -0.011 A 
ENDROOT
BRANCH   1  11
HETATM   11  C2  LIG X 999      44.369 131.360  17.997  1.00  0.00     0.203 A 
HETATM   12  O1  LIG X 999      45.450 130.609  18.019  1.00  0.00    -0.255 OA
HETATM   13  C1  LIG X 999      45.838 130.531  16.771  1.00  0.00     0.262 A 
HETATM   14  N1  LIG X 999      46.876 129.876  16.367  1.00  0.00    -0.260 NA
HETATM   15  N3  LIG X 999      45.023 131.218  15.962  1.00  0.00    -0.238 N 
HETATM   16  H1  LIG X 999      47.477 129.356  17.045  1.00  0.00     0.190 HD
HETATM   17  N2  LIG X 999      44.086 131.749  16.730  1.00  0.00    -0.145 NA
HETATM   18  H9  LIG X 999      45.091 131.331  14.926  1.00  0.00     0.193 HD
ENDBRANCH   1  11
TORSDOF 1
ENDMDL
MODEL 6
REMARK VINA RESULT:      -6.2      4.412      5.724
REMARK  1 active torsions:
REMARK  status: ('A' for Active; 'I' for Inactive)
REMARK    1  A    between atoms: C2_5  and  C3_6 
ROOT
HETATM    1  C3  LIG X 999      43.459 131.490  21.093  1.00  0.00     0.030 A 
HETATM    2  C4  LIG X 999      42.258 132.230  21.111  1.00  0.00     0.017 A 
HETATM    3  C5  LIG X 999      41.714 132.765  19.947  1.00  0.00     0.002 A 
HETATM    4  C6  LIG X 999      42.350 132.580  18.728  1.00  0.00     0.012 A 
HETATM    5  C7  LIG X 999      43.544 131.853  18.657  1.00  0.00    -0.025 A 
HETATM    6  C8  LIG X 999      44.165 131.682  17.409  1.00  0.00     0.012 A 
HETATM    7  C9  LIG X 999      45.353 130.965  17.306  1.00  0.00     0.001 A 
HETATM    8  C10 LIG X 999      45.933 130.412  18.443  1.00  0.00     0.001 A 
HETATM    9  C11 LIG X 999      45.331 130.570  19.694  1.00  0.00     0.013 A 
HETATM   10  C12 LIG X 999      44.122 131.294  19.837  1.00  0.00    -0.011 A 
ENDROOT
BRANCH   1  11
HETATM   11  C2  LIG X 999      43.941 130.967  22.409  1.00  0.00     0.203 A 
HETATM   12  O1  LIG X 999      44.159 129.704  22.708  1.00  0.00    -0.255 OA
HETATM   13  C1  LIG X 999      44.568 129.713  23.953  1.00  0.00     0.262 A 
HETATM   14  N1  LIG X 999      44.889 128.657  24.624  1.00  0.00    -0.260 NA
HETATM   15  N3  LIG X 999      44.613 130.957  24.443  1.00  0.00    -0.238 N 
HETATM   16  H1  LIG X 999      44.835 127.709  24.189  1.00  0.00     0.190 HD
HETATM   17  N2  LIG X 999      44.217 131.762  23.472  1.00  0.00    -0.145 NA
HETATM   18  H9  LIG X 999      44.899 131.261  25.401  1.00  0.00     0.193 HD
ENDBRANCH   1  11
TORSDOF 1
ENDMDL
MODEL 7
REMARK VINA RESULT:      -5.7      3.107      4.721
REMARK  1 active torsions:
REMARK  status: ('A' for Active; 'I' for Inactive)
REMARK    1  A    between atoms: C2_5  and  C3_6 
ROOT
HETATM    1  C3  LIG X 999      43.588 131.033  21.838  1.00  0.00     0.030 A 
HETATM    2  C4  LIG X 999      42.887 131.965  22.632  1.00  0.00     0.017 A 
HETATM    3  C5  LIG X 999      42.725 131.777  24.002  1.00  0.00     0.002 A 
HETATM    4  C6  LIG X 999      43.255 130.656  24.623  1.00  0.00     0.012 A 
HETATM    5  C7  LIG X 999      43.958 129.702  23.879  1.00  0.00    -0.025 A 
HETATM    6  C8  LIG X 999      44.484 128.577  24.535  1.00  0.00     0.012 A 
HETATM    7  C9  LIG X 999      45.188 127.611  23.822  1.00  0.00     0.001 A 
HETATM    8  C10 LIG X 999      45.376 127.756  22.452  1.00  0.00     0.001 A 
HETATM    9  C11 LIG X 999      44.861 128.869  21.780  1.00  0.00     0.013 A 
HETATM   10  C12 LIG X 999      44.139 129.872  22.472  1.00  0.00    -0.011 A 
ENDROOT
BRANCH   1  11
HETATM   11  C2  LIG X 999      43.695 131.347  20.379  1.00  0.00     0.203 A 
HETATM   12  O1  LIG X 999      44.790 131.282  19.651  1.00  0.00    -0.255 OA
HETATM   13  C1  LIG X 999      44.420 131.637  18.445  1.00  0.00     0.262 A 
HETATM   14  N1  LIG X 999      45.213 131.704  17.427  1.00  0.00    -0.260 NA
HETATM   15  N3  LIG X 999      43.114 131.925  18.400  1.00  0.00    -0.238 N 
HETATM   16  H1  LIG X 999      46.225 131.467  17.521  1.00  0.00     0.190 HD
HETATM   17  N2  LIG X 999      42.643 131.744  19.622  1.00  0.00    -0.145 NA
HETATM   18  H9  LIG X 999      42.552 132.235  17.576  1.00  0.00     0.193 HD
ENDBRANCH   1  11
TORSDOF 1
ENDMDL
MODEL 8
REMARK VINA RESULT:      -5.7      3.173      5.717
REMARK  1 active torsions:
REMARK  status: ('A' for Active; 'I' for Inactive)
REMARK    1  A    between atoms: C2_5  and  C3_6 
ROOT
HETATM    1  C3  LIG X 999      44.345 131.267  17.950  1.00  0.00     0.030 A 
HETATM    2  C4  LIG X 999      45.298 130.687  18.813  1.00  0.00     0.017 A 
HETATM    3  C5  LIG X 999      46.428 130.041  18.321  1.00  0.00     0.002 A 
HETATM    4  C6  LIG X 999      46.643 129.951  16.953  1.00  0.00     0.012 A 
HETATM    5  C7  LIG X 999      45.727 130.510  16.055  1.00  0.00    -0.025 A 
HETATM    6  C8  LIG X 999      45.971 130.404  14.677  1.00  0.00     0.012 A 
HETATM    7  C9  LIG X 999      45.079 130.950  13.759  1.00  0.00     0.001 A 
HETATM    8  C10 LIG X 999      43.936 131.605  14.205  1.00  0.00     0.001 A 
HETATM    9  C11 LIG X 999      43.674 131.722  15.573  1.00  0.00     0.013 A 
HETATM   10  C12 LIG X 999      44.560 131.179  16.536  1.00  0.00    -0.011 A 
ENDROOT
BRANCH   1  11
HETATM   11  C2  LIG X 999      43.174 131.933  18.600  1.00  0.00     0.203 A 
HETATM   12  O1  LIG X 999      43.042 132.190  19.885  1.00  0.00    -0.255 OA
HETATM   13  C1  LIG X 999      41.876 132.774  19.999  1.00  0.00     0.262 A 
HETATM   14  N1  LIG X 999      41.371 133.187  21.114  1.00  0.00    -0.260 NA
HETATM   15  N3  LIG X 999      41.269 132.890  18.812  1.00  0.00    -0.238 N 
HETATM   16  H1  LIG X 999      41.890 133.070  22.013  1.00  0.00     0.190 HD
HETATM   17  N2  LIG X 999      42.084 132.360  17.916  1.00  0.00    -0.145 NA
HETATM   18  H9  LIG X 999      40.336 133.312  18.605  1.00  0.00     0.193 HD
ENDBRANCH   1  11
TORSDOF 1
ENDMDL
