REMARK VINA RESULT:      -4.6      2.691      4.517
REMARK  6 active torsions:
REMARK  status: ('A' for Active; 'I' for Inactive)
REMARK    1  A    between atoms: S1_2  and  C1_3 
REMARK    2  A    between atoms: C1_3  and  N2_15 
REMARK    3  A    between atoms: N1_4  and  C2_5 
REMARK    4  A    between atoms: N2_15  and  C12_18 
REMARK    5  A    between atoms: C13_19  and  C14_20 
REMARK    6  A    between atoms: C14_20  and  O2_22 
ROOT
HETATM    1  C1  LIG X 999      43.491 131.730  18.811  1.00  0.00     0.266 C 
HETATM    2  N1  LIG X 999      43.669 131.868  17.527  1.00  0.00    -0.219 NA
ENDROOT
BRANCH   1   3
HETATM    3  S1  LIG X 999      42.201 132.693  19.596  1.00  0.00    -0.098 SA
HETATM    4  H1  LIG X 999      42.791 133.905  19.192  1.00  0.00     0.110 HD
ENDBRANCH   1   3
BRANCH   1   5
HETATM    5  N2  LIG X 999      44.268 130.802  19.601  1.00  0.00     0.010 N 
HETATM    6  H9  LIG X 999      45.024 130.389  19.008  1.00  0.00     0.293 HD
HETATM    7  H10 LIG X 999      43.645 130.024  19.899  1.00  0.00     0.293 HD
BRANCH   5   8
HETATM    8  C12 LIG X 999      44.897 131.477  20.713  1.00  0.00     0.164 A 
HETATM    9  C13 LIG X 999      44.436 131.450  22.042  1.00  0.00     0.114 A 
HETATM   10  S2  LIG X 999      45.437 132.448  22.953  1.00  0.00    -0.094 SA
HETATM   11  C16 LIG X 999      46.477 132.893  21.714  1.00  0.00     0.053 A 
HETATM   12  C17 LIG X 999      46.052 132.268  20.551  1.00  0.00     0.046 A 
BRANCH   9  13
HETATM   13  C14 LIG X 999      43.317 130.694  22.632  1.00  0.00     0.302 C 
HETATM   14  O1  LIG X 999      42.247 131.271  22.965  1.00  0.00    -0.259 OA
BRANCH  13  15
HETATM   15  O2  LIG X 999      43.439 129.309  22.777  1.00  0.00    -0.322 OA
HETATM   16  C15 LIG X 999      44.698 128.651  22.846  1.00  0.00     0.213 C 
ENDBRANCH  13  15
ENDBRANCH   9  13
ENDBRANCH   5   8
ENDBRANCH   1   5
BRANCH   2  17
HETATM   17  C2  LIG X 999      44.678 131.200  16.760  1.00  0.00     0.060 A 
HETATM   18  C3  LIG X 999      45.082 129.911  17.123  1.00  0.00     0.032 A 
HETATM   19  C4  LIG X 999      46.070 129.248  16.391  1.00  0.00     0.014 A 
HETATM   20  C5  LIG X 999      46.647 129.862  15.271  1.00  0.00    -0.026 A 
HETATM   21  C6  LIG X 999      47.641 129.207  14.526  1.00  0.00     0.012 A 
HETATM   22  C10 LIG X 999      46.220 131.156  14.882  1.00  0.00    -0.024 A 
HETATM   23  C7  LIG X 999      48.198 129.825  13.402  1.00  0.00     0.001 A 
HETATM   24  C8  LIG X 999      47.771 131.098  13.016  1.00  0.00     0.001 A 
HETATM   25  C9  LIG X 999      46.787 131.765  13.752  1.00  0.00     0.012 A 
HETATM   26  C11 LIG X 999      45.235 131.816  15.631  1.00  0.00     0.044 A 
ENDBRANCH   2  17
TORSDOF 6
