REMARK VINA RESULT:      -7.7      1.236      2.320
REMARK  1 active torsions:
REMARK  status: ('A' for Active; 'I' for Inactive)
REMARK    1  A    between atoms: C8_9  and  N2_10 
ROOT
HETATM    1  C1  LIG X 999      44.882 129.992  14.736  1.00  0.00     0.283 C 
HETATM    2  N1  LIG X 999      45.279 131.066  15.670  1.00  0.00    -0.005 N 
HETATM    3  C2  LIG X 999      46.164 132.038  14.996  1.00  0.00     0.283 C 
HETATM    4  C3  LIG X 999      44.077 131.743  16.262  1.00  0.00     0.286 A 
HETATM    5  C4  LIG X 999      44.158 131.504  17.738  1.00  0.00    -0.015 A 
HETATM    6  C5  LIG X 999      43.274 131.931  18.729  1.00  0.00     0.022 A 
HETATM    7  C6  LIG X 999      43.547 131.589  20.070  1.00  0.00    -0.023 A 
HETATM    8  C7  LIG X 999      42.686 131.997  21.099  1.00  0.00     0.041 A 
HETATM    9  C8  LIG X 999      42.961 131.655  22.431  1.00  0.00     0.026 A 
HETATM   10  C9  LIG X 999      44.105 130.901  22.734  1.00  0.00     0.030 A 
HETATM   11  C10 LIG X 999      44.972 130.487  21.720  1.00  0.00     0.014 A 
HETATM   12  C11 LIG X 999      44.708 130.823  20.386  1.00  0.00    -0.025 A 
HETATM   13  C12 LIG X 999      45.577 130.409  19.357  1.00  0.00     0.030 A 
HETATM   14  C13 LIG X 999      45.265 130.771  18.048  1.00  0.00     0.049 A 
HETATM   15  C14 LIG X 999      45.953 130.498  16.815  1.00  0.00     0.351 A 
HETATM   16  O1  LIG X 999      47.025 129.837  16.738  1.00  0.00    -0.259 OA
ENDROOT
BRANCH   9  17
HETATM   17  N2  LIG X 999      42.081 132.073  23.476  1.00  0.00    -0.399 N 
HETATM   18  H11 LIG X 999      41.357 132.806  23.305  1.00  0.00     0.156 HD
HETATM   19  H12 LIG X 999      42.145 131.653  24.431  1.00  0.00     0.156 HD
ENDBRANCH   9  17
TORSDOF 1
