MODEL 1
REMARK VINA RESULT:      -7.7      0.000      0.000
REMARK  1 active torsions:
REMARK  status: ('A' for Active; 'I' for Inactive)
REMARK    1  A    between atoms: C8_8  and  N1_9 
ROOT
HETATM    1  N1  LIG X 999      46.606 129.949  16.439  1.00  0.00    -0.072 NA
HETATM    2  N2  LIG X 999      46.898 129.938  15.242  1.00  0.00    -0.162 NA
HETATM    3  N3  LIG X 999      47.192 129.918  14.047  1.00  0.00     0.068 N 
ENDROOT
BRANCH   1   4
HETATM    4  C8  LIG X 999      45.428 130.593  16.944  1.00  0.00     0.104 A 
HETATM    5  C7  LIG X 999      44.448 131.010  16.001  1.00  0.00     0.038 A 
HETATM    6  C6  LIG X 999      43.280 131.694  16.405  1.00  0.00     0.035 A 
HETATM    7  C5  LIG X 999      43.106 131.949  17.762  1.00  0.00     0.073 A 
HETATM    8  C4  LIG X 999      44.038 131.522  18.662  1.00  0.00     0.021 A 
HETATM    9  N4  LIG X 999      41.997 132.588  18.404  1.00  0.00    -0.209 NA
HETATM   10  C3  LIG X 999      43.653 131.811  19.931  1.00  0.00     0.047 A 
HETATM   11  C9  LIG X 999      45.197 130.831  18.332  1.00  0.00     0.009 A 
HETATM   12  C2  LIG X 999      44.421 131.408  21.020  1.00  0.00     0.018 A 
HETATM   13  C11 LIG X 999      42.369 132.489  19.790  1.00  0.00     0.278 A 
HETATM   14  C1  LIG X 999      45.606 130.687  20.751  1.00  0.00     0.002 A 
HETATM   15  C10 LIG X 999      45.992 130.388  19.418  1.00  0.00     0.015 A 
HETATM   16  O1  LIG X 999      41.663 132.924  20.737  1.00  0.00    -0.265 OA
ENDBRANCH   1   4
TORSDOF 1
ENDMDL
MODEL 2
REMARK VINA RESULT:      -6.9      2.115      3.122
REMARK  1 active torsions:
REMARK  status: ('A' for Active; 'I' for Inactive)
REMARK    1  A    between atoms: C8_8  and  N1_9 
ROOT
HETATM    1  N1  LIG X 999      43.768 131.587  15.958  1.00  0.00    -0.072 NA
HETATM    2  N2  LIG X 999      44.475 131.341  14.980  1.00  0.00    -0.162 NA
HETATM    3  N3  LIG X 999      45.178 131.103  13.999  1.00  0.00     0.068 N 
ENDROOT
BRANCH   1   4
HETATM    4  C8  LIG X 999      44.215 131.395  17.308  1.00  0.00     0.104 A 
HETATM    5  C7  LIG X 999      45.495 130.803  17.501  1.00  0.00     0.038 A 
HETATM    6  C6  LIG X 999      45.994 130.533  18.793  1.00  0.00     0.035 A 
HETATM    7  C5  LIG X 999      45.200 130.866  19.887  1.00  0.00     0.073 A 
HETATM    8  C4  LIG X 999      43.986 131.457  19.693  1.00  0.00     0.021 A 
HETATM    9  N4  LIG X 999      45.508 130.721  21.277  1.00  0.00    -0.209 NA
HETATM   10  C3  LIG X 999      43.400 131.759  20.880  1.00  0.00     0.047 A 
HETATM   11  C9  LIG X 999      43.446 131.765  18.451  1.00  0.00     0.009 A 
HETATM   12  C2  LIG X 999      42.182 132.430  20.925  1.00  0.00     0.018 A 
HETATM   13  C11 LIG X 999      44.343 131.298  21.893  1.00  0.00     0.278 A 
HETATM   14  C1  LIG X 999      41.586 132.785  19.693  1.00  0.00     0.002 A 
HETATM   15  C10 LIG X 999      42.214 132.466  18.460  1.00  0.00     0.015 A 
HETATM   16  O1  LIG X 999      44.183 131.392  23.138  1.00  0.00    -0.265 OA
ENDBRANCH   1   4
TORSDOF 1
ENDMDL
MODEL 3
REMARK VINA RESULT:      -6.6      1.803      2.433
REMARK  1 active torsions:
REMARK  status: ('A' for Active; 'I' for Inactive)
REMARK    1  A    between atoms: C8_8  and  N1_9 
ROOT
HETATM    1  N1  LIG X 999      43.929 131.410  16.279  1.00  0.00    -0.072 NA
HETATM    2  N2  LIG X 999      45.034 131.778  15.876  1.00  0.00    -0.162 NA
HETATM    3  N3  LIG X 999      46.132 132.149  15.464  1.00  0.00     0.068 N 
ENDROOT
BRANCH   1   4
HETATM    4  C8  LIG X 999      43.481 131.633  17.624  1.00  0.00     0.104 A 
HETATM    5  C7  LIG X 999      42.187 132.197  17.803  1.00  0.00     0.038 A 
HETATM    6  C6  LIG X 999      41.685 132.494  19.089  1.00  0.00     0.035 A 
HETATM    7  C5  LIG X 999      42.491 132.216  20.189  1.00  0.00     0.073 A 
HETATM    8  C4  LIG X 999      43.720 131.651  20.008  1.00  0.00     0.021 A 
HETATM    9  N4  LIG X 999      42.184 132.397  21.576  1.00  0.00    -0.209 NA
HETATM   10  C3  LIG X 999      44.317 131.402  21.202  1.00  0.00     0.047 A 
HETATM   11  C9  LIG X 999      44.264 131.319  18.774  1.00  0.00     0.009 A 
HETATM   12  C2  LIG X 999      45.553 130.765  21.263  1.00  0.00     0.018 A 
HETATM   13  C11 LIG X 999      43.365 131.870  22.204  1.00  0.00     0.278 A 
HETATM   14  C1  LIG X 999      46.154 130.387  20.040  1.00  0.00     0.002 A 
HETATM   15  C10 LIG X 999      45.513 130.651  18.801  1.00  0.00     0.015 A 
HETATM   16  O1  LIG X 999      43.532 131.819  23.451  1.00  0.00    -0.265 OA
ENDBRANCH   1   4
TORSDOF 1
ENDMDL
MODEL 4
REMARK VINA RESULT:      -6.6      3.084      5.225
REMARK  1 active torsions:
REMARK  status: ('A' for Active; 'I' for Inactive)
REMARK    1  A    between atoms: C8_8  and  N1_9 
ROOT
HETATM    1  N1  LIG X 999      44.324 131.418  22.734  1.00  0.00    -0.072 NA
HETATM    2  N2  LIG X 999      44.351 130.476  23.528  1.00  0.00    -0.162 NA
HETATM    3  N3  LIG X 999      44.370 129.539  24.325  1.00  0.00     0.068 N 
ENDROOT
BRANCH   1   4
HETATM    4  C8  LIG X 999      44.565 131.256  21.329  1.00  0.00     0.104 A 
HETATM    5  C7  LIG X 999      45.774 130.617  20.937  1.00  0.00     0.038 A 
HETATM    6  C6  LIG X 999      46.116 130.458  19.576  1.00  0.00     0.035 A 
HETATM    7  C5  LIG X 999      45.231 130.941  18.617  1.00  0.00     0.073 A 
HETATM    8  C4  LIG X 999      44.061 131.529  19.002  1.00  0.00     0.021 A 
HETATM    9  N4  LIG X 999      45.345 130.863  17.192  1.00  0.00    -0.209 NA
HETATM   10  C3  LIG X 999      43.314 131.872  17.922  1.00  0.00     0.047 A 
HETATM   11  C9  LIG X 999      43.659 131.700  20.321  1.00  0.00     0.009 A 
HETATM   12  C2  LIG X 999      42.047 132.427  18.078  1.00  0.00     0.018 A 
HETATM   13  C11 LIG X 999      44.109 131.464  16.769  1.00  0.00     0.278 A 
HETATM   14  C1  LIG X 999      41.573 132.614  19.396  1.00  0.00     0.002 A 
HETATM   15  C10 LIG X 999      42.365 132.245  20.515  1.00  0.00     0.015 A 
HETATM   16  O1  LIG X 999      43.774 131.601  15.563  1.00  0.00    -0.265 OA
ENDBRANCH   1   4
TORSDOF 1
ENDMDL
MODEL 5
REMARK VINA RESULT:      -6.3      2.841      5.035
REMARK  1 active torsions:
REMARK  status: ('A' for Active; 'I' for Inactive)
REMARK    1  A    between atoms: C8_8  and  N1_9 
ROOT
HETATM    1  N1  LIG X 999      42.447 132.252  22.382  1.00  0.00    -0.072 NA
HETATM    2  N2  LIG X 999      42.582 131.301  23.153  1.00  0.00    -0.162 NA
HETATM    3  N3  LIG X 999      42.708 130.353  23.927  1.00  0.00     0.068 N 
ENDROOT
BRANCH   1   4
HETATM    4  C8  LIG X 999      42.693 132.150  20.972  1.00  0.00     0.104 A 
HETATM    5  C7  LIG X 999      41.680 132.617  20.089  1.00  0.00     0.038 A 
HETATM    6  C6  LIG X 999      41.818 132.511  18.688  1.00  0.00     0.035 A 
HETATM    7  C5  LIG X 999      42.982 131.938  18.185  1.00  0.00     0.073 A 
HETATM    8  C4  LIG X 999      43.960 131.518  19.038  1.00  0.00     0.021 A 
HETATM    9  N4  LIG X 999      43.357 131.760  16.814  1.00  0.00    -0.209 NA
HETATM   10  C3  LIG X 999      45.034 131.052  18.351  1.00  0.00     0.047 A 
HETATM   11  C9  LIG X 999      43.894 131.610  20.423  1.00  0.00     0.009 A 
HETATM   12  C2  LIG X 999      46.181 130.631  19.019  1.00  0.00     0.018 A 
HETATM   13  C11 LIG X 999      44.671 131.192  16.945  1.00  0.00     0.278 A 
HETATM   14  C1  LIG X 999      46.182 130.712  20.429  1.00  0.00     0.002 A 
HETATM   15  C10 LIG X 999      45.053 131.208  21.133  1.00  0.00     0.015 A 
HETATM   16  O1  LIG X 999      45.397 130.875  15.967  1.00  0.00    -0.265 OA
ENDBRANCH   1   4
TORSDOF 1
ENDMDL
MODEL 6
REMARK VINA RESULT:      -6.2      2.771      5.804
REMARK  1 active torsions:
REMARK  status: ('A' for Active; 'I' for Inactive)
REMARK    1  A    between atoms: C8_8  and  N1_9 
ROOT
HETATM    1  N1  LIG X 999      42.587 132.297  18.431  1.00  0.00    -0.072 NA
HETATM    2  N2  LIG X 999      42.388 132.431  19.640  1.00  0.00    -0.162 NA
HETATM    3  N3  LIG X 999      42.179 132.563  20.845  1.00  0.00     0.068 N 
ENDROOT
BRANCH   1   4
HETATM    4  C8  LIG X 999      43.737 131.618  17.905  1.00  0.00     0.104 A 
HETATM    5  C7  LIG X 999      44.657 131.060  18.836  1.00  0.00     0.038 A 
HETATM    6  C6  LIG X 999      45.839 130.418  18.408  1.00  0.00     0.035 A 
HETATM    7  C5  LIG X 999      46.084 130.336  17.040  1.00  0.00     0.073 A 
HETATM    8  C4  LIG X 999      45.182 130.850  16.154  1.00  0.00     0.021 A 
HETATM    9  N4  LIG X 999      47.185 129.707  16.377  1.00  0.00    -0.209 NA
HETATM   10  C3  LIG X 999      45.573 130.614  14.876  1.00  0.00     0.047 A 
HETATM   11  C9  LIG X 999      43.995 131.478  16.509  1.00  0.00     0.009 A 
HETATM   12  C2  LIG X 999      44.770 130.992  13.803  1.00  0.00     0.018 A 
HETATM   13  C11 LIG X 999      46.838 129.897  14.994  1.00  0.00     0.278 A 
HETATM   14  C1  LIG X 999      43.541 131.624  14.098  1.00  0.00     0.002 A 
HETATM   15  C10 LIG X 999      43.145 131.859  15.441  1.00  0.00     0.015 A 
HETATM   16  O1  LIG X 999      47.538 129.484  14.033  1.00  0.00    -0.265 OA
ENDBRANCH   1   4
TORSDOF 1
ENDMDL
MODEL 7
REMARK VINA RESULT:      -5.9      3.008      5.077
REMARK  1 active torsions:
REMARK  status: ('A' for Active; 'I' for Inactive)
REMARK    1  A    between atoms: C8_8  and  N1_9 
ROOT
HETATM    1  N1  LIG X 999      43.919 131.559  23.086  1.00  0.00    -0.072 NA
HETATM    2  N2  LIG X 999      43.480 130.634  23.772  1.00  0.00    -0.162 NA
HETATM    3  N3  LIG X 999      43.040 129.718  24.464  1.00  0.00     0.068 N 
ENDROOT
BRANCH   1   4
HETATM    4  C8  LIG X 999      43.526 131.768  21.722  1.00  0.00     0.104 A 
HETATM    5  C7  LIG X 999      42.296 132.442  21.485  1.00  0.00     0.038 A 
HETATM    6  C6  LIG X 999      41.809 132.648  20.176  1.00  0.00     0.035 A 
HETATM    7  C5  LIG X 999      42.569 132.175  19.110  1.00  0.00     0.073 A 
HETATM    8  C4  LIG X 999      43.761 131.553  19.346  1.00  0.00     0.021 A 
HETATM    9  N4  LIG X 999      42.299 132.298  17.710  1.00  0.00    -0.209 NA
HETATM   10  C3  LIG X 999      44.374 131.227  18.179  1.00  0.00     0.047 A 
HETATM   11  C9  LIG X 999      44.303 131.335  20.606  1.00  0.00     0.009 A 
HETATM   12  C2  LIG X 999      45.637 130.642  18.177  1.00  0.00     0.018 A 
HETATM   13  C11 LIG X 999      43.465 131.685  17.135  1.00  0.00     0.278 A 
HETATM   14  C1  LIG X 999      46.251 130.407  19.428  1.00  0.00     0.002 A 
HETATM   15  C10 LIG X 999      45.597 130.759  20.639  1.00  0.00     0.015 A 
HETATM   16  O1  LIG X 999      43.660 131.577  15.896  1.00  0.00    -0.265 OA
ENDBRANCH   1   4
TORSDOF 1
ENDMDL
MODEL 8
REMARK VINA RESULT:      -5.7      1.689      3.018
REMARK  1 active torsions:
REMARK  status: ('A' for Active; 'I' for Inactive)
REMARK    1  A    between atoms: C8_8  and  N1_9 
ROOT
HETATM    1  N1  LIG X 999      45.977 130.637  16.785  1.00  0.00    -0.072 NA
HETATM    2  N2  LIG X 999      45.350 129.932  15.993  1.00  0.00    -0.162 NA
HETATM    3  N3  LIG X 999      44.732 129.224  15.199  1.00  0.00     0.068 N 
ENDROOT
BRANCH   1   4
HETATM    4  C8  LIG X 999      45.552 130.850  18.139  1.00  0.00     0.104 A 
HETATM    5  C7  LIG X 999      46.478 130.552  19.177  1.00  0.00     0.038 A 
HETATM    6  C6  LIG X 999      46.128 130.686  20.538  1.00  0.00     0.035 A 
HETATM    7  C5  LIG X 999      44.844 131.126  20.845  1.00  0.00     0.073 A 
HETATM    8  C4  LIG X 999      43.971 131.435  19.843  1.00  0.00     0.021 A 
HETATM    9  N4  LIG X 999      44.281 131.370  22.138  1.00  0.00    -0.209 NA
HETATM   10  C3  LIG X 999      42.802 131.904  20.349  1.00  0.00     0.047 A 
HETATM   11  C9  LIG X 999      44.259 131.342  18.487  1.00  0.00     0.009 A 
HETATM   12  C2  LIG X 999      41.785 132.345  19.506  1.00  0.00     0.018 A 
HETATM   13  C11 LIG X 999      42.975 131.866  21.797  1.00  0.00     0.278 A 
HETATM   14  C1  LIG X 999      42.022 132.289  18.113  1.00  0.00     0.002 A 
HETATM   15  C10 LIG X 999      43.253 131.801  17.601  1.00  0.00     0.015 A 
HETATM   16  O1  LIG X 999      42.117 132.223  22.646  1.00  0.00    -0.265 OA
ENDBRANCH   1   4
TORSDOF 1
ENDMDL
