REMARK VINA RESULT:      -7.5      0.994      1.942
REMARK  3 active torsions:
REMARK  status: ('A' for Active; 'I' for Inactive)
REMARK    1  A    between atoms: C3_3  and  O1_4 
REMARK    2  A    between atoms: O1_4  and  C4_5 
REMARK    3  A    between atoms: C5_7  and  C6_8 
ROOT
HETATM    1  C1  LIG X 999      44.640 129.726  22.051  1.00  0.00     0.014 C 
HETATM    2  C2  LIG X 999      44.955 130.680  21.385  1.00  0.00    -0.091 C 
HETATM    3  C3  LIG X 999      45.337 131.838  20.576  1.00  0.00     0.270 C 
ENDROOT
BRANCH   3   4
HETATM    4  O1  LIG X 999      44.817 131.681  19.262  1.00  0.00    -0.317 OA
BRANCH   4   5
HETATM    5  C4  LIG X 999      43.447 131.736  18.987  1.00  0.00     0.217 C 
HETATM    6  O2  LIG X 999      42.539 131.935  20.023  1.00  0.00    -0.164 OA
HETATM    7  C5  LIG X 999      42.992 131.631  17.734  1.00  0.00     0.078 C 
BRANCH   7   8
HETATM    8  C6  LIG X 999      43.853 131.417  16.549  1.00  0.00    -0.031 A 
HETATM    9  C7  LIG X 999      43.524 131.943  15.287  1.00  0.00     0.012 A 
HETATM   10  C8  LIG X 999      44.368 131.743  14.192  1.00  0.00     0.013 A 
HETATM   11  C9  LIG X 999      45.564 131.028  14.343  1.00  0.00    -0.026 A 
HETATM   12  C10 LIG X 999      46.418 130.821  13.249  1.00  0.00     0.012 A 
HETATM   13  C14 LIG X 999      45.916 130.516  15.615  1.00  0.00    -0.025 A 
HETATM   14  C11 LIG X 999      47.612 130.112  13.415  1.00  0.00     0.001 A 
HETATM   15  C12 LIG X 999      47.961 129.607  14.670  1.00  0.00     0.001 A 
HETATM   16  C13 LIG X 999      47.118 129.807  15.768  1.00  0.00     0.012 A 
HETATM   17  C15 LIG X 999      45.062 130.723  16.709  1.00  0.00     0.024 A 
ENDBRANCH   7   8
ENDBRANCH   4   5
ENDBRANCH   3   4
TORSDOF 3
