REMARK VINA RESULT:      -6.5      1.234      2.910
REMARK  1 active torsions:
REMARK  status: ('A' for Active; 'I' for Inactive)
REMARK    1  A    between atoms: C10_11  and  N2_12 
ROOT
HETATM    1  N2  LIG X 999      44.366 131.830  22.488  1.00  0.00    -0.052 NA
HETATM    2  N3  LIG X 999      43.364 131.708  23.194  1.00  0.00    -0.160 NA
HETATM    3  N4  LIG X 999      42.365 131.586  23.901  1.00  0.00     0.068 N 
ENDROOT
BRANCH   1   4
HETATM    4  C10 LIG X 999      44.308 131.625  21.075  1.00  0.00     0.186 C 
HETATM    5  N1  LIG X 999      45.316 130.992  20.427  1.00  0.00    -0.226 NA
HETATM    6  C9  LIG X 999      45.307 130.795  19.083  1.00  0.00     0.071 C 
HETATM    7  C8  LIG X 999      46.355 130.075  18.511  1.00  0.00     0.033 C 
HETATM    8  C14 LIG X 999      44.239 131.293  18.284  1.00  0.00     0.010 C 
HETATM    9  C7  LIG X 999      46.387 129.840  17.144  1.00  0.00     0.014 C 
HETATM   10  C5  LIG X 999      45.427 130.416  16.307  1.00  0.00    -0.025 C 
HETATM   11  C4  LIG X 999      44.376 131.209  16.857  1.00  0.00    -0.013 C 
HETATM   12  C6  LIG X 999      45.543 130.252  14.918  1.00  0.00     0.012 C 
HETATM   13  C3  LIG X 999      43.587 131.956  15.950  1.00  0.00     0.013 C 
HETATM   14  C2  LIG X 999      43.723 131.793  14.569  1.00  0.00     0.001 C 
HETATM   15  C1  LIG X 999      44.680 130.922  14.055  1.00  0.00     0.001 C 
HETATM   16  C12 LIG X 999      43.096 131.803  18.982  1.00  0.00    -0.045 C 
HETATM   17  C11 LIG X 999      43.180 132.023  20.367  1.00  0.00     0.063 C 
HETATM   18  C13 LIG X 999      41.732 131.989  18.362  1.00  0.00     0.049 C 
ENDBRANCH   1   4
TORSDOF 1
