REMARK VINA RESULT:      -6.5      2.182      3.263
REMARK  3 active torsions:
REMARK  status: ('A' for Active; 'I' for Inactive)
REMARK    1  A    between atoms: C3_3  and  S1_4 
REMARK    2  A    between atoms: S1_4  and  C4_7 
REMARK    3  A    between atoms: C12_15  and  N1_16 
ROOT
HETATM    1  C1  LIG X 999      43.115 131.695  13.773  1.00  0.00     0.013 C 
HETATM    2  C2  LIG X 999      44.204 131.647  14.292  1.00  0.00    -0.102 C 
HETATM    3  C3  LIG X 999      45.525 131.589  14.922  1.00  0.00     0.233 C 
ENDROOT
BRANCH   3   4
HETATM    4  S1  LIG X 999      45.689 130.115  15.920  1.00  0.00     0.159 S 
HETATM    5  O1  LIG X 999      45.041 128.950  15.224  1.00  0.00    -0.227 OA
HETATM    6  O2  LIG X 999      47.154 129.825  16.089  1.00  0.00    -0.227 OA
BRANCH   4   7
HETATM    7  C4  LIG X 999      44.953 130.345  17.543  1.00  0.00     0.116 C 
HETATM    8  C5  LIG X 999      43.884 131.444  17.483  1.00  0.00     0.059 C 
HETATM    9  C6  LIG X 999      43.337 131.789  18.847  1.00  0.00    -0.049 A 
HETATM   10  C7  LIG X 999      42.100 132.448  18.930  1.00  0.00     0.007 A 
HETATM   11  C11 LIG X 999      44.078 131.542  20.030  1.00  0.00    -0.019 A 
HETATM   12  C8  LIG X 999      41.572 132.813  20.169  1.00  0.00     0.001 A 
HETATM   13  C9  LIG X 999      42.276 132.530  21.339  1.00  0.00     0.001 A 
HETATM   14  C10 LIG X 999      43.516 131.891  21.272  1.00  0.00     0.010 A 
HETATM   15  C12 LIG X 999      45.399 130.790  19.996  1.00  0.00     0.252 C 
HETATM   16  C13 LIG X 999      46.015 130.718  18.584  1.00  0.00     0.060 C 
BRANCH  15  17
HETATM   17  N1  LIG X 999      46.353 131.387  20.936  1.00  0.00     0.087 N 
HETATM   18  H12 LIG X 999      45.828 131.983  21.618  1.00  0.00     0.313 HD
HETATM   19  H13 LIG X 999      46.825 130.627  21.480  1.00  0.00     0.313 HD
ENDBRANCH  15  17
ENDBRANCH   4   7
ENDBRANCH   3   4
TORSDOF 3
