REMARK VINA RESULT:      -7.8      1.799      5.827
REMARK  1 active torsions:
REMARK  status: ('A' for Active; 'I' for Inactive)
REMARK    1  A    between atoms: C8_9  and  N2_10 
ROOT
HETATM    1  C1  LIG X 999      44.617 132.312  22.519  1.00  0.00     0.283 C 
HETATM    2  N1  LIG X 999      44.184 131.216  21.628  1.00  0.00    -0.005 N 
HETATM    3  C2  LIG X 999      43.372 130.231  22.373  1.00  0.00     0.283 C 
HETATM    4  C3  LIG X 999      45.357 130.559  20.961  1.00  0.00     0.286 A 
HETATM    5  C4  LIG X 999      45.168 130.775  19.492  1.00  0.00    -0.015 A 
HETATM    6  C5  LIG X 999      45.991 130.356  18.446  1.00  0.00     0.022 A 
HETATM    7  C6  LIG X 999      45.616 130.672  17.124  1.00  0.00    -0.023 A 
HETATM    8  C7  LIG X 999      46.414 130.270  16.042  1.00  0.00     0.041 A 
HETATM    9  C8  LIG X 999      46.037 130.587  14.728  1.00  0.00     0.026 A 
HETATM   10  C9  LIG X 999      44.857 131.309  14.497  1.00  0.00     0.030 A 
HETATM   11  C10 LIG X 999      44.053 131.716  15.564  1.00  0.00     0.014 A 
HETATM   12  C11 LIG X 999      44.418 131.406  16.880  1.00  0.00    -0.025 A 
HETATM   13  C12 LIG X 999      43.612 131.813  17.963  1.00  0.00     0.030 A 
HETATM   14  C13 LIG X 999      44.024 131.476  19.251  1.00  0.00     0.049 A 
HETATM   15  C14 LIG X 999      43.417 131.751  20.526  1.00  0.00     0.351 A 
HETATM   16  O1  LIG X 999      42.337 132.387  20.669  1.00  0.00    -0.259 OA
ENDROOT
BRANCH   9  17
HETATM   17  N2  LIG X 999      46.853 130.175  13.629  1.00  0.00    -0.399 N 
HETATM   18  H11 LIG X 999      46.610 129.327  13.070  1.00  0.00     0.156 HD
HETATM   19  H12 LIG X 999      47.708 130.716  13.365  1.00  0.00     0.156 HD
ENDBRANCH   9  17
TORSDOF 1
