REMARK VINA RESULT:      -6.2      5.142      7.872
REMARK  3 active torsions:
REMARK  status: ('A' for Active; 'I' for Inactive)
REMARK    1  A    between atoms: C7_9  and  C8_10 
REMARK    2  A    between atoms: C9_14  and  N4_15 
REMARK    3  A    between atoms: N7_24  and  C14_25 
ROOT
HETATM    1  N4  LIG X 999      45.256 131.836  20.727  1.00  0.00    -0.025 NA
HETATM    2  N5  LIG X 999      44.712 131.779  19.624  1.00  0.00    -0.158 NA
HETATM    3  N6  LIG X 999      44.168 131.721  18.523  1.00  0.00     0.068 N 
ENDROOT
BRANCH   1   4
HETATM    4  C9  LIG X 999      44.869 130.952  21.777  1.00  0.00     0.302 A 
HETATM    5  N3  LIG X 999      44.648 131.339  23.041  1.00  0.00    -0.236 N 
HETATM    6  N2  LIG X 999      44.312 130.259  23.725  1.00  0.00    -0.145 NA
HETATM    7  H4  LIG X 999      44.723 132.303  23.436  1.00  0.00     0.193 HD
HETATM    8  C8  LIG X 999      44.335 129.242  22.835  1.00  0.00     0.203 A 
HETATM    9  O1  LIG X 999      44.686 129.661  21.637  1.00  0.00    -0.253 OA
BRANCH   8  10
HETATM   10  C7  LIG X 999      44.058 127.835  23.186  1.00  0.00     0.032 A 
HETATM   11  C6  LIG X 999      42.755 127.362  23.539  1.00  0.00     0.020 A 
HETATM   12  C1  LIG X 999      41.510 128.152  23.819  1.00  0.00     0.060 A 
HETATM   13  C5  LIG X 999      42.626 125.997  23.718  1.00  0.00     0.019 A 
HETATM   14  N1  LIG X 999      41.529 129.445  23.861  1.00  0.00    -0.299 NA
HETATM   15  C2  LIG X 999      40.246 127.413  24.159  1.00  0.00     0.034 A 
HETATM   16  H1  LIG X 999      40.677 130.006  24.090  1.00  0.00     0.187 HD
HETATM   17  C3  LIG X 999      40.232 126.069  24.284  1.00  0.00     0.033 A 
HETATM   18  C4  LIG X 999      41.488 125.335  24.063  1.00  0.00     0.048 A 
HETATM   19  N7  LIG X 999      41.753 124.011  24.190  1.00  0.00    -0.324 N 
HETATM   20  C13 LIG X 999      43.085 123.873  23.940  1.00  0.00     0.193 A 
HETATM   21  C12 LIG X 999      43.643 125.104  23.636  1.00  0.00     0.032 A 
HETATM   22  O2  LIG X 999      43.774 122.668  24.004  1.00  0.00    -0.171 OA
HETATM   23  C11 LIG X 999      44.936 125.523  23.343  1.00  0.00     0.018 A 
HETATM   24  C10 LIG X 999      45.137 126.901  23.113  1.00  0.00     0.018 A 
BRANCH  19  25
HETATM   25  C14 LIG X 999      40.832 122.962  24.625  1.00  0.00     0.127 C 
HETATM   26  C15 LIG X 999      39.895 122.575  23.487  1.00  0.00     0.027 C 
ENDBRANCH  19  25
ENDBRANCH   8  10
ENDBRANCH   1   4
TORSDOF 3
