MODEL 1
REMARK VINA RESULT:      -7.9      0.000      0.000
REMARK  1 active torsions:
REMARK  status: ('A' for Active; 'I' for Inactive)
REMARK    1  A    between atoms: C3_3  and  N1_4 
ROOT
HETATM    1  N1  LIG X 999      47.196 129.729  15.450  1.00  0.00    -0.072 NA
HETATM    2  N2  LIG X 999      47.808 129.579  14.391  1.00  0.00    -0.162 NA
HETATM    3  N3  LIG X 999      48.423 129.431  13.337  1.00  0.00     0.068 N 
ENDROOT
BRANCH   1   4
HETATM    4  C3  LIG X 999      45.964 130.461  15.524  1.00  0.00     0.104 A 
HETATM    5  C2  LIG X 999      45.368 130.842  14.315  1.00  0.00     0.035 A 
HETATM    6  C1  LIG X 999      44.133 131.489  14.295  1.00  0.00     0.003 A 
HETATM    7  C10 LIG X 999      43.472 131.780  15.487  1.00  0.00     0.012 A 
HETATM    8  C9  LIG X 999      44.059 131.452  16.717  1.00  0.00    -0.023 A 
HETATM    9  C4  LIG X 999      45.332 130.802  16.751  1.00  0.00     0.006 A 
HETATM   10  C8  LIG X 999      43.402 131.789  17.917  1.00  0.00     0.021 A 
HETATM   11  C5  LIG X 999      45.941 130.566  18.008  1.00  0.00     0.024 A 
HETATM   12  C6  LIG X 999      45.252 130.911  19.171  1.00  0.00    -0.023 A 
HETATM   13  C7  LIG X 999      44.025 131.492  19.127  1.00  0.00    -0.024 A 
HETATM   14  C14 LIG X 999      45.712 130.774  20.569  1.00  0.00     0.276 C 
HETATM   15  C11 LIG X 999      43.544 131.796  20.492  1.00  0.00     0.276 C 
HETATM   16  N4  LIG X 999      44.546 131.179  21.418  1.00  0.00    -0.067 N 
HETATM   17  C12 LIG X 999      43.962 129.988  22.078  1.00  0.00     0.272 C 
HETATM   18  C13 LIG X 999      44.966 132.148  22.456  1.00  0.00     0.272 C 
ENDBRANCH   1   4
TORSDOF 1
ENDMDL
MODEL 2
REMARK VINA RESULT:      -7.3      1.417      5.942
REMARK  1 active torsions:
REMARK  status: ('A' for Active; 'I' for Inactive)
REMARK    1  A    between atoms: C3_3  and  N1_4 
ROOT
HETATM    1  N1  LIG X 999      44.872 131.383  21.434  1.00  0.00    -0.072 NA
HETATM    2  N2  LIG X 999      44.736 130.481  22.262  1.00  0.00    -0.162 NA
HETATM    3  N3  LIG X 999      44.604 129.579  23.088  1.00  0.00     0.068 N 
ENDROOT
BRANCH   1   4
HETATM    4  C3  LIG X 999      43.868 131.677  20.453  1.00  0.00     0.104 A 
HETATM    5  C2  LIG X 999      42.627 132.133  20.917  1.00  0.00     0.035 A 
HETATM    6  C1  LIG X 999      41.622 132.513  20.028  1.00  0.00     0.003 A 
HETATM    7  C10 LIG X 999      41.833 132.433  18.653  1.00  0.00     0.012 A 
HETATM    8  C9  LIG X 999      43.046 131.941  18.152  1.00  0.00    -0.023 A 
HETATM    9  C4  LIG X 999      44.079 131.534  19.054  1.00  0.00     0.006 A 
HETATM   10  C8  LIG X 999      43.233 131.826  16.761  1.00  0.00     0.021 A 
HETATM   11  C5  LIG X 999      45.256 130.956  18.521  1.00  0.00     0.024 A 
HETATM   12  C6  LIG X 999      45.401 130.865  17.136  1.00  0.00    -0.023 A 
HETATM   13  C7  LIG X 999      44.430 131.293  16.288  1.00  0.00    -0.024 A 
HETATM   14  C14 LIG X 999      46.529 130.280  16.380  1.00  0.00     0.276 C 
HETATM   15  C11 LIG X 999      44.816 131.038  14.883  1.00  0.00     0.276 C 
HETATM   16  N4  LIG X 999      46.231 130.550  14.937  1.00  0.00    -0.067 N 
HETATM   17  C12 LIG X 999      47.148 131.592  14.417  1.00  0.00     0.272 C 
HETATM   18  C13 LIG X 999      46.392 129.320  14.131  1.00  0.00     0.272 C 
ENDBRANCH   1   4
TORSDOF 1
ENDMDL
MODEL 3
REMARK VINA RESULT:      -6.2      2.002      6.622
REMARK  1 active torsions:
REMARK  status: ('A' for Active; 'I' for Inactive)
REMARK    1  A    between atoms: C3_3  and  N1_4 
ROOT
HETATM    1  N1  LIG X 999      41.817 132.918  20.133  1.00  0.00    -0.072 NA
HETATM    2  N2  LIG X 999      41.024 133.332  20.981  1.00  0.00    -0.162 NA
HETATM    3  N3  LIG X 999      40.233 133.748  21.825  1.00  0.00     0.068 N 
ENDROOT
BRANCH   1   4
HETATM    4  C3  LIG X 999      42.978 132.153  20.481  1.00  0.00     0.104 A 
HETATM    5  C2  LIG X 999      43.206 131.911  21.842  1.00  0.00     0.035 A 
HETATM    6  C1  LIG X 999      44.270 131.112  22.262  1.00  0.00     0.003 A 
HETATM    7  C10 LIG X 999      45.136 130.548  21.328  1.00  0.00     0.012 A 
HETATM    8  C9  LIG X 999      44.965 130.804  19.961  1.00  0.00    -0.023 A 
HETATM    9  C4  LIG X 999      43.887 131.634  19.519  1.00  0.00     0.006 A 
HETATM   10  C8  LIG X 999      45.872 130.263  19.029  1.00  0.00     0.021 A 
HETATM   11  C5  LIG X 999      43.794 131.949  18.141  1.00  0.00     0.024 A 
HETATM   12  C6  LIG X 999      44.711 131.387  17.253  1.00  0.00    -0.023 A 
HETATM   13  C7  LIG X 999      45.708 130.568  17.680  1.00  0.00    -0.024 A 
HETATM   14  C14 LIG X 999      44.805 131.602  15.793  1.00  0.00     0.276 C 
HETATM   15  C11 LIG X 999      46.561 130.153  16.546  1.00  0.00     0.276 C 
HETATM   16  N4  LIG X 999      45.881 130.674  15.318  1.00  0.00    -0.067 N 
HETATM   17  C12 LIG X 999      45.283 129.554  14.554  1.00  0.00     0.272 C 
HETATM   18  C13 LIG X 999      46.844 131.390  14.450  1.00  0.00     0.272 C 
ENDBRANCH   1   4
TORSDOF 1
ENDMDL
MODEL 4
REMARK VINA RESULT:      -5.4      5.140      7.157
REMARK  1 active torsions:
REMARK  status: ('A' for Active; 'I' for Inactive)
REMARK    1  A    between atoms: C3_3  and  N1_4 
ROOT
HETATM    1  N1  LIG X 999      45.094 131.055  21.148  1.00  0.00    -0.072 NA
HETATM    2  N2  LIG X 999      44.668 131.365  20.033  1.00  0.00    -0.162 NA
HETATM    3  N3  LIG X 999      44.245 131.677  18.922  1.00  0.00     0.068 N 
ENDROOT
BRANCH   1   4
HETATM    4  C3  LIG X 999      44.223 130.671  22.219  1.00  0.00     0.104 A 
HETATM    5  C2  LIG X 999      43.399 131.662  22.768  1.00  0.00     0.035 A 
HETATM    6  C1  LIG X 999      42.469 131.356  23.761  1.00  0.00     0.003 A 
HETATM    7  C10 LIG X 999      42.352 130.052  24.236  1.00  0.00     0.012 A 
HETATM    8  C9  LIG X 999      43.189 129.042  23.742  1.00  0.00    -0.023 A 
HETATM    9  C4  LIG X 999      44.157 129.347  22.734  1.00  0.00     0.006 A 
HETATM   10  C8  LIG X 999      43.090 127.736  24.259  1.00  0.00     0.021 A 
HETATM   11  C5  LIG X 999      45.050 128.328  22.320  1.00  0.00     0.024 A 
HETATM   12  C6  LIG X 999      44.913 127.047  22.855  1.00  0.00    -0.023 A 
HETATM   13  C7  LIG X 999      43.963 126.759  23.783  1.00  0.00    -0.024 A 
HETATM   14  C14 LIG X 999      45.746 125.857  22.580  1.00  0.00     0.276 C 
HETATM   15  C11 LIG X 999      44.067 125.349  24.215  1.00  0.00     0.276 C 
HETATM   16  N4  LIG X 999      45.095 124.729  23.320  1.00  0.00    -0.067 N 
HETATM   17  C12 LIG X 999      44.442 123.806  22.361  1.00  0.00     0.272 C 
HETATM   18  C13 LIG X 999      46.093 123.976  24.111  1.00  0.00     0.272 C 
ENDBRANCH   1   4
TORSDOF 1
ENDMDL
