MODEL 1
REMARK VINA RESULT:      -5.5      0.000      0.000
REMARK  4 active torsions:
REMARK  status: ('A' for Active; 'I' for Inactive)
REMARK    1  A    between atoms: C5_5  and  C6_6 
REMARK    2  A    between atoms: C7_7  and  C8_8 
REMARK    3  A    between atoms: C11_13  and  C12_14 
REMARK    4  A    between atoms: C13_17  and  N3_18 
ROOT
HETATM    1  N3  LIG X 999      39.857 123.941  22.563  1.00  0.00    -0.023 NA
HETATM    2  N4  LIG X 999      39.361 123.162  23.378  1.00  0.00    -0.158 NA
HETATM    3  N5  LIG X 999      38.866 122.384  24.191  1.00  0.00     0.068 N 
ENDROOT
BRANCH   1   4
HETATM    4  C13 LIG X 999      41.271 124.004  22.383  1.00  0.00     0.326 A 
HETATM    5  N2  LIG X 999      41.883 123.743  21.215  1.00  0.00    -0.099 NA
HETATM    6  N1  LIG X 999      43.177 123.904  21.443  1.00  0.00    -0.124 NA
HETATM    7  C12 LIG X 999      43.301 124.250  22.743  1.00  0.00     0.184 A 
HETATM    8  O3  LIG X 999      42.125 124.320  23.324  1.00  0.00    -0.255 OA
BRANCH   7   9
HETATM    9  C11 LIG X 999      44.620 124.565  23.422  1.00  0.00     0.054 C 
HETATM   10  C3  LIG X 999      45.631 125.198  22.401  1.00  0.00     0.030 C 
HETATM   11  C2  LIG X 999      47.049 125.156  22.933  1.00  0.00    -0.021 C 
HETATM   12  C4  LIG X 999      45.226 126.631  21.992  1.00  0.00     0.027 C 
HETATM   13  C1  LIG X 999      47.458 124.129  23.683  1.00  0.00    -0.004 C 
HETATM   14  C15 LIG X 999      46.505 123.092  24.118  1.00  0.00    -0.003 C 
HETATM   15  C14 LIG X 999      45.188 123.262  23.959  1.00  0.00    -0.008 C 
HETATM   16  C5  LIG X 999      45.014 127.540  23.216  1.00  0.00     0.066 C 
HETATM   17  C9  LIG X 999      43.972 126.933  24.167  1.00  0.00     0.019 C 
HETATM   18  C10 LIG X 999      44.398 125.531  24.620  1.00  0.00     0.024 C 
BRANCH  16  19
HETATM   19  C6  LIG X 999      44.576 128.874  22.778  1.00  0.00    -0.090 C 
HETATM   20  C7  LIG X 999      44.218 129.968  22.421  1.00  0.00     0.005 C 
BRANCH  20  21
HETATM   21  C8  LIG X 999      43.792 131.271  21.995  1.00  0.00     0.258 C 
HETATM   22  O1  LIG X 999      42.918 131.892  22.652  1.00  0.00    -0.637 OA
HETATM   23  O2  LIG X 999      44.345 131.844  20.859  1.00  0.00    -0.637 OA
ENDBRANCH  20  21
ENDBRANCH  16  19
ENDBRANCH   7   9
ENDBRANCH   1   4
TORSDOF 4
ENDMDL
MODEL 2
REMARK VINA RESULT:      -4.7      4.640      6.643
REMARK  4 active torsions:
REMARK  status: ('A' for Active; 'I' for Inactive)
REMARK    1  A    between atoms: C5_5  and  C6_6 
REMARK    2  A    between atoms: C7_7  and  C8_8 
REMARK    3  A    between atoms: C11_13  and  C12_14 
REMARK    4  A    between atoms: C13_17  and  N3_18 
ROOT
HETATM    1  N3  LIG X 999      45.688 130.846  20.521  1.00  0.00    -0.023 NA
HETATM    2  N4  LIG X 999      45.046 131.287  19.567  1.00  0.00    -0.158 NA
HETATM    3  N5  LIG X 999      44.405 131.727  18.614  1.00  0.00     0.068 N 
ENDROOT
BRANCH   1   4
HETATM    4  C13 LIG X 999      45.036 130.132  21.570  1.00  0.00     0.326 A 
HETATM    5  N2  LIG X 999      44.292 130.723  22.520  1.00  0.00    -0.099 NA
HETATM    6  N1  LIG X 999      43.862 129.745  23.301  1.00  0.00    -0.124 NA
HETATM    7  C12 LIG X 999      44.367 128.598  22.799  1.00  0.00     0.184 A 
HETATM    8  O3  LIG X 999      45.087 128.832  21.725  1.00  0.00    -0.255 OA
BRANCH   7   9
HETATM    9  C11 LIG X 999      44.094 127.220  23.372  1.00  0.00     0.054 C 
HETATM   10  C3  LIG X 999      44.356 126.110  22.294  1.00  0.00     0.030 C 
HETATM   11  C2  LIG X 999      43.726 124.793  22.696  1.00  0.00    -0.021 C 
HETATM   12  C4  LIG X 999      45.859 125.943  21.982  1.00  0.00     0.027 C 
HETATM   13  C1  LIG X 999      42.569 124.773  23.365  1.00  0.00    -0.004 C 
HETATM   14  C15 LIG X 999      41.957 126.027  23.837  1.00  0.00    -0.003 C 
HETATM   15  C14 LIG X 999      42.637 127.178  23.802  1.00  0.00    -0.008 C 
HETATM   16  C5  LIG X 999      46.687 125.701  23.256  1.00  0.00     0.066 C 
HETATM   17  C9  LIG X 999      46.467 126.834  24.269  1.00  0.00     0.019 C 
HETATM   18  C10 LIG X 999      44.980 126.966  24.624  1.00  0.00     0.024 C 
BRANCH  16  19
HETATM   19  C6  LIG X 999      48.114 125.604  22.915  1.00  0.00    -0.090 C 
HETATM   20  C7  LIG X 999      49.284 125.526  22.636  1.00  0.00     0.005 C 
BRANCH  20  21
HETATM   21  C8  LIG X 999      50.677 125.433  22.304  1.00  0.00     0.258 C 
HETATM   22  O1  LIG X 999      51.509 126.193  22.863  1.00  0.00    -0.637 OA
HETATM   23  O2  LIG X 999      51.106 124.504  21.367  1.00  0.00    -0.637 OA
ENDBRANCH  20  21
ENDBRANCH  16  19
ENDBRANCH   7   9
ENDBRANCH   1   4
TORSDOF 4
ENDMDL
MODEL 3
REMARK VINA RESULT:      -4.0      1.695      1.951
REMARK  4 active torsions:
REMARK  status: ('A' for Active; 'I' for Inactive)
REMARK    1  A    between atoms: C5_5  and  C6_6 
REMARK    2  A    between atoms: C7_7  and  C8_8 
REMARK    3  A    between atoms: C11_13  and  C12_14 
REMARK    4  A    between atoms: C13_17  and  N3_18 
ROOT
HETATM    1  N3  LIG X 999      39.631 126.813  23.604  1.00  0.00    -0.023 NA
HETATM    2  N4  LIG X 999      38.553 126.291  23.891  1.00  0.00    -0.158 NA
HETATM    3  N5  LIG X 999      37.477 125.769  24.177  1.00  0.00     0.068 N 
ENDROOT
BRANCH   1   4
HETATM    4  C13 LIG X 999      40.828 126.039  23.567  1.00  0.00     0.326 A 
HETATM    5  N2  LIG X 999      40.852 124.721  23.309  1.00  0.00    -0.099 NA
HETATM    6  N1  LIG X 999      42.127 124.367  23.362  1.00  0.00    -0.124 NA
HETATM    7  C12 LIG X 999      42.827 125.483  23.656  1.00  0.00     0.184 A 
HETATM    8  O3  LIG X 999      42.029 126.520  23.776  1.00  0.00    -0.255 OA
BRANCH   7   9
HETATM    9  C11 LIG X 999      44.338 125.538  23.778  1.00  0.00     0.054 C 
HETATM   10  C3  LIG X 999      45.007 125.599  22.360  1.00  0.00     0.030 C 
HETATM   11  C2  LIG X 999      46.481 125.258  22.431  1.00  0.00    -0.021 C 
HETATM   12  C4  LIG X 999      44.776 126.958  21.664  1.00  0.00     0.027 C 
HETATM   13  C1  LIG X 999      46.923 124.352  23.307  1.00  0.00    -0.004 C 
HETATM   14  C15 LIG X 999      46.010 123.768  24.306  1.00  0.00    -0.003 C 
HETATM   15  C14 LIG X 999      44.790 124.279  24.501  1.00  0.00    -0.008 C 
HETATM   16  C5  LIG X 999      45.216 128.138  22.548  1.00  0.00     0.066 C 
HETATM   17  C9  LIG X 999      44.499 128.095  23.905  1.00  0.00     0.019 C 
HETATM   18  C10 LIG X 999      44.771 126.768  24.624  1.00  0.00     0.024 C 
BRANCH  16  19
HETATM   19  C6  LIG X 999      44.926 129.409  21.867  1.00  0.00    -0.090 C 
HETATM   20  C7  LIG X 999      44.688 130.450  21.309  1.00  0.00     0.005 C 
BRANCH  20  21
HETATM   21  C8  LIG X 999      44.406 131.690  20.643  1.00  0.00     0.258 C 
HETATM   22  O1  LIG X 999      45.329 132.314  20.059  1.00  0.00    -0.637 OA
HETATM   23  O2  LIG X 999      43.115 132.199  20.644  1.00  0.00    -0.637 OA
ENDBRANCH  20  21
ENDBRANCH  16  19
ENDBRANCH   7   9
ENDBRANCH   1   4
TORSDOF 4
ENDMDL
MODEL 4
REMARK VINA RESULT:      -4.0      1.493      2.173
REMARK  4 active torsions:
REMARK  status: ('A' for Active; 'I' for Inactive)
REMARK    1  A    between atoms: C5_5  and  C6_6 
REMARK    2  A    between atoms: C7_7  and  C8_8 
REMARK    3  A    between atoms: C11_13  and  C12_14 
REMARK    4  A    between atoms: C13_17  and  N3_18 
ROOT
HETATM    1  N3  LIG X 999      42.355 123.224  20.988  1.00  0.00    -0.023 NA
HETATM    2  N4  LIG X 999      41.443 123.059  21.799  1.00  0.00    -0.158 NA
HETATM    3  N5  LIG X 999      40.533 122.895  22.609  1.00  0.00     0.068 N 
ENDROOT
BRANCH   1   4
HETATM    4  C13 LIG X 999      43.717 123.205  21.409  1.00  0.00     0.326 A 
HETATM    5  N2  LIG X 999      44.641 122.375  20.897  1.00  0.00    -0.099 NA
HETATM    6  N1  LIG X 999      45.768 122.654  21.534  1.00  0.00    -0.124 NA
HETATM    7  C12 LIG X 999      45.483 123.637  22.414  1.00  0.00     0.184 A 
HETATM    8  O3  LIG X 999      44.218 123.985  22.334  1.00  0.00    -0.255 OA
BRANCH   7   9
HETATM    9  C11 LIG X 999      46.501 124.286  23.332  1.00  0.00     0.054 C 
HETATM   10  C3  LIG X 999      47.240 125.460  22.597  1.00  0.00     0.030 C 
HETATM   11  C2  LIG X 999      48.506 125.856  23.328  1.00  0.00    -0.021 C 
HETATM   12  C4  LIG X 999      46.318 126.677  22.369  1.00  0.00     0.027 C 
HETATM   13  C1  LIG X 999      49.240 124.934  23.956  1.00  0.00    -0.004 C 
HETATM   14  C15 LIG X 999      48.764 123.543  24.063  1.00  0.00    -0.003 C 
HETATM   15  C14 LIG X 999      47.509 123.221  23.731  1.00  0.00    -0.008 C 
HETATM   16  C5  LIG X 999      45.659 127.153  23.676  1.00  0.00     0.066 C 
HETATM   17  C9  LIG X 999      44.886 126.005  24.342  1.00  0.00     0.019 C 
HETATM   18  C10 LIG X 999      45.812 124.814  24.621  1.00  0.00     0.024 C 
BRANCH  16  19
HETATM   19  C6  LIG X 999      44.749 128.275  23.399  1.00  0.00    -0.090 C 
HETATM   20  C7  LIG X 999      44.003 129.194  23.171  1.00  0.00     0.005 C 
BRANCH  20  21
HETATM   21  C8  LIG X 999      43.116 130.288  22.899  1.00  0.00     0.258 C 
HETATM   22  O1  LIG X 999      43.021 130.745  21.731  1.00  0.00    -0.637 OA
HETATM   23  O2  LIG X 999      42.362 130.841  23.925  1.00  0.00    -0.637 OA
ENDBRANCH  20  21
ENDBRANCH  16  19
ENDBRANCH   7   9
ENDBRANCH   1   4
TORSDOF 4
ENDMDL
MODEL 5
REMARK VINA RESULT:      -3.9      4.540      6.196
REMARK  4 active torsions:
REMARK  status: ('A' for Active; 'I' for Inactive)
REMARK    1  A    between atoms: C5_5  and  C6_6 
REMARK    2  A    between atoms: C7_7  and  C8_8 
REMARK    3  A    between atoms: C11_13  and  C12_14 
REMARK    4  A    between atoms: C13_17  and  N3_18 
ROOT
HETATM    1  N3  LIG X 999      51.284 126.338  22.481  1.00  0.00    -0.023 NA
HETATM    2  N4  LIG X 999      52.348 126.156  23.073  1.00  0.00    -0.158 NA
HETATM    3  N5  LIG X 999      53.412 125.974  23.664  1.00  0.00     0.068 N 
ENDROOT
BRANCH   1   4
HETATM    4  C13 LIG X 999      50.038 126.089  23.131  1.00  0.00     0.326 A 
HETATM    5  N2  LIG X 999      49.758 126.498  24.380  1.00  0.00    -0.099 NA
HETATM    6  N1  LIG X 999      48.524 126.084  24.625  1.00  0.00    -0.124 NA
HETATM    7  C12 LIG X 999      48.106 125.434  23.517  1.00  0.00     0.184 A 
HETATM    8  O3  LIG X 999      49.036 125.442  22.590  1.00  0.00    -0.255 OA
BRANCH   7   9
HETATM    9  C11 LIG X 999      46.727 124.824  23.353  1.00  0.00     0.054 C 
HETATM   10  C3  LIG X 999      45.796 125.227  24.551  1.00  0.00     0.030 C 
HETATM   11  C2  LIG X 999      44.574 124.336  24.623  1.00  0.00    -0.021 C 
HETATM   12  C4  LIG X 999      45.403 126.719  24.508  1.00  0.00     0.027 C 
HETATM   13  C1  LIG X 999      44.659 123.046  24.285  1.00  0.00    -0.004 C 
HETATM   14  C15 LIG X 999      45.903 122.501  23.713  1.00  0.00    -0.003 C 
HETATM   15  C14 LIG X 999      46.889 123.314  23.320  1.00  0.00    -0.008 C 
HETATM   16  C5  LIG X 999      44.784 127.112  23.155  1.00  0.00     0.066 C 
HETATM   17  C9  LIG X 999      45.740 126.770  22.003  1.00  0.00     0.019 C 
HETATM   18  C10 LIG X 999      46.089 125.277  22.009  1.00  0.00     0.024 C 
BRANCH  16  19
HETATM   19  C6  LIG X 999      44.478 128.550  23.142  1.00  0.00    -0.090 C 
HETATM   20  C7  LIG X 999      44.228 129.729  23.132  1.00  0.00     0.005 C 
BRANCH  20  21
HETATM   21  C8  LIG X 999      43.931 131.133  23.121  1.00  0.00     0.258 C 
HETATM   22  O1  LIG X 999      44.167 131.834  24.138  1.00  0.00    -0.637 OA
HETATM   23  O2  LIG X 999      43.384 131.717  21.987  1.00  0.00    -0.637 OA
ENDBRANCH  20  21
ENDBRANCH  16  19
ENDBRANCH   7   9
ENDBRANCH   1   4
TORSDOF 4
ENDMDL
MODEL 6
REMARK VINA RESULT:      -3.8      4.397      6.910
REMARK  4 active torsions:
REMARK  status: ('A' for Active; 'I' for Inactive)
REMARK    1  A    between atoms: C5_5  and  C6_6 
REMARK    2  A    between atoms: C7_7  and  C8_8 
REMARK    3  A    between atoms: C11_13  and  C12_14 
REMARK    4  A    between atoms: C13_17  and  N3_18 
ROOT
HETATM    1  N3  LIG X 999      43.884 132.091  20.143  1.00  0.00    -0.023 NA
HETATM    2  N4  LIG X 999      42.915 132.085  19.384  1.00  0.00    -0.158 NA
HETATM    3  N5  LIG X 999      41.946 132.078  18.626  1.00  0.00     0.068 N 
ENDROOT
BRANCH   1   4
HETATM    4  C13 LIG X 999      44.145 130.982  21.001  1.00  0.00     0.326 A 
HETATM    5  N2  LIG X 999      45.326 130.343  21.051  1.00  0.00    -0.099 NA
HETATM    6  N1  LIG X 999      45.179 129.385  21.952  1.00  0.00    -0.124 NA
HETATM    7  C12 LIG X 999      43.911 129.474  22.410  1.00  0.00     0.184 A 
HETATM    8  O3  LIG X 999      43.272 130.465  21.830  1.00  0.00    -0.255 OA
BRANCH   7   9
HETATM    9  C11 LIG X 999      43.326 128.581  23.488  1.00  0.00     0.054 C 
HETATM   10  C3  LIG X 999      42.877 127.204  22.883  1.00  0.00     0.030 C 
HETATM   11  C2  LIG X 999      41.950 126.466  23.826  1.00  0.00    -0.021 C 
HETATM   12  C4  LIG X 999      44.081 126.327  22.476  1.00  0.00     0.027 C 
HETATM   13  C1  LIG X 999      41.084 127.141  24.588  1.00  0.00    -0.004 C 
HETATM   14  C15 LIG X 999      41.110 128.614  24.625  1.00  0.00    -0.003 C 
HETATM   15  C14 LIG X 999      42.121 129.296  24.076  1.00  0.00    -0.008 C 
HETATM   16  C5  LIG X 999      45.074 126.139  23.636  1.00  0.00     0.066 C 
HETATM   17  C9  LIG X 999      45.551 127.499  24.167  1.00  0.00     0.019 C 
HETATM   18  C10 LIG X 999      44.361 128.352  24.625  1.00  0.00     0.024 C 
BRANCH  16  19
HETATM   19  C6  LIG X 999      46.227 125.345  23.185  1.00  0.00    -0.090 C 
HETATM   20  C7  LIG X 999      47.172 124.694  22.816  1.00  0.00     0.005 C 
BRANCH  20  21
HETATM   21  C8  LIG X 999      48.297 123.920  22.377  1.00  0.00     0.258 C 
HETATM   22  O1  LIG X 999      49.155 123.528  23.210  1.00  0.00    -0.637 OA
HETATM   23  O2  LIG X 999      48.439 123.602  21.034  1.00  0.00    -0.637 OA
ENDBRANCH  20  21
ENDBRANCH  16  19
ENDBRANCH   7   9
ENDBRANCH   1   4
TORSDOF 4
ENDMDL
MODEL 7
REMARK VINA RESULT:      -3.6      3.468      6.439
REMARK  4 active torsions:
REMARK  status: ('A' for Active; 'I' for Inactive)
REMARK    1  A    between atoms: C5_5  and  C6_6 
REMARK    2  A    between atoms: C7_7  and  C8_8 
REMARK    3  A    between atoms: C11_13  and  C12_14 
REMARK    4  A    between atoms: C13_17  and  N3_18 
ROOT
HETATM    1  N3  LIG X 999      44.816 126.382  22.538  1.00  0.00    -0.023 NA
HETATM    2  N4  LIG X 999      44.145 125.361  22.383  1.00  0.00    -0.158 NA
HETATM    3  N5  LIG X 999      43.475 124.342  22.228  1.00  0.00     0.068 N 
ENDROOT
BRANCH   1   4
HETATM    4  C13 LIG X 999      44.184 127.643  22.749  1.00  0.00     0.326 A 
HETATM    5  N2  LIG X 999      42.916 127.778  23.170  1.00  0.00    -0.099 NA
HETATM    6  N1  LIG X 999      42.696 129.081  23.244  1.00  0.00    -0.124 NA
HETATM    7  C12 LIG X 999      43.839 129.689  22.857  1.00  0.00     0.184 A 
HETATM    8  O3  LIG X 999      44.762 128.804  22.558  1.00  0.00    -0.255 OA
BRANCH   7   9
HETATM    9  C11 LIG X 999      44.040 131.192  22.825  1.00  0.00     0.054 C 
HETATM   10  C3  LIG X 999      45.428 131.552  22.189  1.00  0.00     0.030 C 
HETATM   11  C2  LIG X 999      45.822 132.981  22.499  1.00  0.00    -0.021 C 
HETATM   12  C4  LIG X 999      45.462 131.276  20.670  1.00  0.00     0.027 C 
HETATM   13  C1  LIG X 999      45.495 133.532  23.671  1.00  0.00    -0.004 C 
HETATM   14  C15 LIG X 999      44.634 132.809  24.624  1.00  0.00    -0.003 C 
HETATM   15  C14 LIG X 999      43.990 131.695  24.258  1.00  0.00    -0.008 C 
HETATM   16  C5  LIG X 999      44.304 131.972  19.933  1.00  0.00     0.066 C 
HETATM   17  C9  LIG X 999      42.953 131.553  20.529  1.00  0.00     0.019 C 
HETATM   18  C10 LIG X 999      42.894 131.876  22.028  1.00  0.00     0.024 C 
BRANCH  16  19
HETATM   19  C6  LIG X 999      44.346 131.635  18.502  1.00  0.00    -0.090 C 
HETATM   20  C7  LIG X 999      44.382 131.359  17.329  1.00  0.00     0.005 C 
BRANCH  20  21
HETATM   21  C8  LIG X 999      44.425 131.031  15.933  1.00  0.00     0.258 C 
HETATM   22  O1  LIG X 999      45.122 130.061  15.536  1.00  0.00    -0.637 OA
HETATM   23  O2  LIG X 999      43.697 131.782  15.021  1.00  0.00    -0.637 OA
ENDBRANCH  20  21
ENDBRANCH  16  19
ENDBRANCH   7   9
ENDBRANCH   1   4
TORSDOF 4
ENDMDL
MODEL 8
REMARK VINA RESULT:      -3.6      7.445      9.909
REMARK  4 active torsions:
REMARK  status: ('A' for Active; 'I' for Inactive)
REMARK    1  A    between atoms: C5_5  and  C6_6 
REMARK    2  A    between atoms: C7_7  and  C8_8 
REMARK    3  A    between atoms: C11_13  and  C12_14 
REMARK    4  A    between atoms: C13_17  and  N3_18 
ROOT
HETATM    1  N3  LIG X 999      48.083 135.526  21.857  1.00  0.00    -0.023 NA
HETATM    2  N4  LIG X 999      48.779 136.116  21.031  1.00  0.00    -0.158 NA
HETATM    3  N5  LIG X 999      49.475 136.705  20.205  1.00  0.00     0.068 N 
ENDROOT
BRANCH   1   4
HETATM    4  C13 LIG X 999      47.619 134.200  21.605  1.00  0.00     0.326 A 
HETATM    5  N2  LIG X 999      48.433 133.137  21.494  1.00  0.00    -0.099 NA
HETATM    6  N1  LIG X 999      47.643 132.101  21.264  1.00  0.00    -0.124 NA
HETATM    7  C12 LIG X 999      46.379 132.576  21.236  1.00  0.00     0.184 A 
HETATM    8  O3  LIG X 999      46.360 133.871  21.454  1.00  0.00    -0.255 OA
BRANCH   7   9
HETATM    9  C11 LIG X 999      45.146 131.716  21.033  1.00  0.00     0.054 C 
HETATM   10  C3  LIG X 999      44.229 132.317  19.909  1.00  0.00     0.030 C 
HETATM   11  C2  LIG X 999      42.837 131.723  19.958  1.00  0.00    -0.021 C 
HETATM   12  C4  LIG X 999      44.855 132.170  18.506  1.00  0.00     0.027 C 
HETATM   13  C1  LIG X 999      42.282 131.399  21.130  1.00  0.00    -0.004 C 
HETATM   14  C15 LIG X 999      43.061 131.488  22.377  1.00  0.00    -0.003 C 
HETATM   15  C14 LIG X 999      44.384 131.682  22.347  1.00  0.00    -0.008 C 
HETATM   16  C5  LIG X 999      45.244 130.712  18.200  1.00  0.00     0.066 C 
HETATM   17  C9  LIG X 999      46.193 130.167  19.276  1.00  0.00     0.019 C 
HETATM   18  C10 LIG X 999      45.552 130.261  20.666  1.00  0.00     0.024 C 
BRANCH  16  19
HETATM   19  C6  LIG X 999      45.885 130.632  16.878  1.00  0.00    -0.090 C 
HETATM   20  C7  LIG X 999      46.410 130.565  15.796  1.00  0.00     0.005 C 
BRANCH  20  21
HETATM   21  C8  LIG X 999      47.037 130.485  14.507  1.00  0.00     0.258 C 
HETATM   22  O1  LIG X 999      47.075 131.499  13.763  1.00  0.00    -0.637 OA
HETATM   23  O2  LIG X 999      47.601 129.291  14.083  1.00  0.00    -0.637 OA
ENDBRANCH  20  21
ENDBRANCH  16  19
ENDBRANCH   7   9
ENDBRANCH   1   4
TORSDOF 4
ENDMDL
MODEL 9
REMARK VINA RESULT:      -3.5      5.641      8.040
REMARK  4 active torsions:
REMARK  status: ('A' for Active; 'I' for Inactive)
REMARK    1  A    between atoms: C5_5  and  C6_6 
REMARK    2  A    between atoms: C7_7  and  C8_8 
REMARK    3  A    between atoms: C11_13  and  C12_14 
REMARK    4  A    between atoms: C13_17  and  N3_18 
ROOT
HETATM    1  N3  LIG X 999      43.492 131.624  17.333  1.00  0.00    -0.023 NA
HETATM    2  N4  LIG X 999      44.622 131.707  16.852  1.00  0.00    -0.158 NA
HETATM    3  N5  LIG X 999      45.752 131.790  16.372  1.00  0.00     0.068 N 
ENDROOT
BRANCH   1   4
HETATM    4  C13 LIG X 999      43.287 131.757  18.738  1.00  0.00     0.326 A 
HETATM    5  N2  LIG X 999      42.120 132.136  19.286  1.00  0.00    -0.099 NA
HETATM    6  N1  LIG X 999      42.321 132.143  20.594  1.00  0.00    -0.124 NA
HETATM    7  C12 LIG X 999      43.606 131.774  20.791  1.00  0.00     0.184 A 
HETATM    8  O3  LIG X 999      44.203 131.527  19.647  1.00  0.00    -0.255 OA
BRANCH   7   9
HETATM    9  C11 LIG X 999      44.251 131.615  22.154  1.00  0.00     0.054 C 
HETATM   10  C3  LIG X 999      43.244 132.003  23.293  1.00  0.00     0.030 C 
HETATM   11  C2  LIG X 999      43.961 132.235  24.607  1.00  0.00    -0.021 C 
HETATM   12  C4  LIG X 999      42.110 130.967  23.446  1.00  0.00     0.027 C 
HETATM   13  C1  LIG X 999      45.182 132.776  24.623  1.00  0.00    -0.004 C 
HETATM   14  C15 LIG X 999      45.905 133.032  23.365  1.00  0.00    -0.003 C 
HETATM   15  C14 LIG X 999      45.458 132.538  22.205  1.00  0.00    -0.008 C 
HETATM   16  C5  LIG X 999      42.656 129.540  23.635  1.00  0.00     0.066 C 
HETATM   17  C9  LIG X 999      43.586 129.158  22.475  1.00  0.00     0.019 C 
HETATM   18  C10 LIG X 999      44.746 130.155  22.355  1.00  0.00     0.024 C 
BRANCH  16  19
HETATM   19  C6  LIG X 999      41.541 128.585  23.720  1.00  0.00    -0.090 C 
HETATM   20  C7  LIG X 999      40.627 127.802  23.789  1.00  0.00     0.005 C 
BRANCH  20  21
HETATM   21  C8  LIG X 999      39.539 126.870  23.870  1.00  0.00     0.258 C 
HETATM   22  O1  LIG X 999      38.354 127.290  23.924  1.00  0.00    -0.637 OA
HETATM   23  O2  LIG X 999      39.794 125.506  23.889  1.00  0.00    -0.637 OA
ENDBRANCH  20  21
ENDBRANCH  16  19
ENDBRANCH   7   9
ENDBRANCH   1   4
TORSDOF 4
ENDMDL
