REMARK VINA RESULT:      -2.5      2.858      5.518
REMARK  3 active torsions:
REMARK  status: ('A' for Active; 'I' for Inactive)
REMARK    1  A    between atoms: C3_3  and  S1_4 
REMARK    2  A    between atoms: S1_4  and  C4_7 
REMARK    3  A    between atoms: C6_9  and  N1_10 
ROOT
HETATM    1  C1  LIG X 999      42.761 131.559  21.938  1.00  0.00     0.013 C 
HETATM    2  C2  LIG X 999      42.719 130.672  22.754  1.00  0.00    -0.102 C 
HETATM    3  C3  LIG X 999      42.670 129.596  23.745  1.00  0.00     0.233 C 
ENDROOT
BRANCH   3   4
HETATM    4  S1  LIG X 999      43.846 128.314  23.338  1.00  0.00     0.160 S 
HETATM    5  O1  LIG X 999      44.966 128.938  22.554  1.00  0.00    -0.227 OA
HETATM    6  O2  LIG X 999      44.403 127.771  24.624  1.00  0.00    -0.227 OA
BRANCH   4   7
HETATM    7  C4  LIG X 999      43.089 126.959  22.398  1.00  0.00     0.123 C 
HETATM    8  C5  LIG X 999      41.636 126.705  22.840  1.00  0.00     0.055 C 
HETATM    9  C6  LIG X 999      41.544 126.155  24.278  1.00  0.00     0.170 C 
HETATM   10  C7  LIG X 999      42.630 125.163  24.625  1.00  0.00     0.011 C 
HETATM   11  C8  LIG X 999      43.743 125.007  23.890  1.00  0.00    -0.050 C 
HETATM   12  C9  LIG X 999      44.866 124.195  24.414  1.00  0.00     0.017 C 
HETATM   13  C13 LIG X 999      43.860 125.624  22.496  1.00  0.00     0.060 C 
HETATM   14  C10 LIG X 999      46.044 124.266  23.796  1.00  0.00    -0.024 C 
HETATM   15  C11 LIG X 999      46.265 125.065  22.630  1.00  0.00    -0.027 C 
HETATM   16  C17 LIG X 999      47.310 123.602  24.180  1.00  0.00     0.276 C 
HETATM   17  C12 LIG X 999      45.293 125.741  22.014  1.00  0.00    -0.007 C 
HETATM   18  C14 LIG X 999      47.686 124.964  22.229  1.00  0.00     0.275 C 
HETATM   19  N4  LIG X 999      48.377 124.239  23.343  1.00  0.00    -0.067 N 
HETATM   20  C15 LIG X 999      49.150 125.203  24.165  1.00  0.00     0.272 C 
HETATM   21  C16 LIG X 999      49.302 123.215  22.807  1.00  0.00     0.272 C 
BRANCH   9  22
HETATM   22  N1  LIG X 999      40.242 125.526  24.474  1.00  0.00    -0.106 NA
HETATM   23  N2  LIG X 999      39.200 126.109  24.172  1.00  0.00    -0.167 NA
HETATM   24  N3  LIG X 999      38.159 126.690  23.872  1.00  0.00     0.068 N 
ENDBRANCH   9  22
ENDBRANCH   4   7
ENDBRANCH   3   4
TORSDOF 3
