REMARK VINA RESULT:      -7.5      1.364      2.713
REMARK  4 active torsions:
REMARK  status: ('A' for Active; 'I' for Inactive)
REMARK       I    between atoms: N1_1  and  C1_2 
REMARK    1  A    between atoms: C1_2  and  C2_4 
REMARK    2  A    between atoms: C11_13  and  O2_14 
REMARK    3  A    between atoms: O2_14  and  C12_15 
REMARK    4  A    between atoms: C12_15  and  C13_17 
ROOT
HETATM    1  C2  LIG X 999      45.596 130.858  18.858  1.00  0.00     0.068 A 
HETATM    2  C3  LIG X 999      46.333 130.224  17.838  1.00  0.00     0.032 A 
HETATM    3  C4  LIG X 999      46.026 130.437  16.488  1.00  0.00    -0.025 A 
HETATM    4  C5  LIG X 999      46.765 129.800  15.476  1.00  0.00     0.012 A 
HETATM    5  C6  LIG X 999      46.456 130.027  14.133  1.00  0.00     0.001 A 
HETATM    6  C7  LIG X 999      45.413 130.889  13.787  1.00  0.00     0.001 A 
HETATM    7  C8  LIG X 999      44.671 131.528  14.784  1.00  0.00     0.012 A 
HETATM    8  C9  LIG X 999      44.969 131.305  16.138  1.00  0.00    -0.023 A 
HETATM    9  C10 LIG X 999      44.233 131.941  17.145  1.00  0.00     0.050 A 
HETATM   10  C11 LIG X 999      44.525 131.715  18.502  1.00  0.00     0.096 A 
ENDROOT
BRANCH  10  11
HETATM   11  O2  LIG X 999      43.798 132.375  19.506  1.00  0.00    -0.274 OA
BRANCH  11  12
HETATM   12  C12 LIG X 999      42.636 131.888  20.122  1.00  0.00     0.298 C 
HETATM   13  O3  LIG X 999      41.566 131.770  19.463  1.00  0.00    -0.259 OA
BRANCH  12  14
HETATM   14  C13 LIG X 999      42.686 131.454  21.536  1.00  0.00     0.039 A 
HETATM   15  C14 LIG X 999      42.386 132.362  22.568  1.00  0.00     0.017 A 
HETATM   16  C15 LIG X 999      42.433 131.954  23.904  1.00  0.00     0.001 A 
HETATM   17  C16 LIG X 999      42.776 130.639  24.225  1.00  0.00     0.000 A 
HETATM   18  C17 LIG X 999      43.074 129.728  23.209  1.00  0.00     0.001 A 
HETATM   19  C18 LIG X 999      43.029 130.131  21.870  1.00  0.00     0.017 A 
ENDBRANCH  12  14
ENDBRANCH  11  12
ENDBRANCH  10  11
BRANCH   1  20
HETATM   20  C1  LIG X 999      45.960 130.596  20.278  1.00  0.00     0.273 C 
HETATM   21  N1  LIG X 999      46.249 131.664  21.179  1.00  0.00    -0.263 NA
HETATM   22  H1  LIG X 999      46.502 131.475  22.174  1.00  0.00     0.190 HD
HETATM   23  O1  LIG X 999      46.011 129.412  20.709  1.00  0.00    -0.266 OA
ENDBRANCH   1  20
TORSDOF 4
