REMARK VINA RESULT:      -3.8      4.000      5.793
REMARK  1 active torsions:
REMARK  status: ('A' for Active; 'I' for Inactive)
REMARK    1  A    between atoms: C7_7  and  N1_8 
ROOT
HETATM    1  N1  LIG X 999      43.080 131.770  18.403  1.00  0.00    -0.110 NA
HETATM    2  N2  LIG X 999      43.419 131.693  17.221  1.00  0.00    -0.167 NA
HETATM    3  N3  LIG X 999      43.756 131.614  16.041  1.00  0.00     0.068 N 
ENDROOT
BRANCH   1   4
HETATM    4  C7  LIG X 999      43.963 131.314  19.472  1.00  0.00     0.153 C 
HETATM    5  C6  LIG X 999      45.106 132.322  19.661  1.00  0.00     0.031 C 
HETATM    6  C5  LIG X 999      46.063 131.857  20.763  1.00  0.00     0.003 C 
HETATM    7  C4  LIG X 999      45.320 131.672  22.091  1.00  0.00     0.009 C 
HETATM    8  C3  LIG X 999      44.144 130.683  21.950  1.00  0.00     0.018 C 
HETATM    9  C2  LIG X 999      43.385 130.615  23.256  1.00  0.00    -0.021 C 
HETATM   10  C8  LIG X 999      43.185 131.091  20.796  1.00  0.00     0.043 C 
HETATM   11  C1  LIG X 999      42.376 131.459  23.504  1.00  0.00    -0.004 C 
HETATM   12  C10 LIG X 999      41.917 132.405  22.468  1.00  0.00    -0.004 C 
HETATM   13  C9  LIG X 999      42.339 132.284  21.204  1.00  0.00    -0.019 C 
ENDBRANCH   1   4
TORSDOF 1
