REMARK VINA RESULT:      -7.5      1.725      6.432
REMARK  3 active torsions:
REMARK  status: ('A' for Active; 'I' for Inactive)
REMARK       I    between atoms: N1_2  and  C3_4 
REMARK    1  A    between atoms: C3_4  and  O2_6 
REMARK    2  A    between atoms: O2_6  and  C4_7 
REMARK    3  A    between atoms: C13_16  and  N2_17 
ROOT
HETATM    1  C4  LIG X 999      45.272 131.276  16.904  1.00  0.00     0.108 A 
HETATM    2  C5  LIG X 999      45.408 129.899  17.088  1.00  0.00     0.040 A 
HETATM    3  C6  LIG X 999      46.188 129.141  16.221  1.00  0.00     0.015 A 
HETATM    4  C7  LIG X 999      46.828 129.745  15.133  1.00  0.00    -0.024 A 
HETATM    5  C8  LIG X 999      47.606 128.968  14.261  1.00  0.00     0.012 A 
HETATM    6  C9  LIG X 999      48.221 129.552  13.155  1.00  0.00     0.001 A 
HETATM    7  C10 LIG X 999      48.058 130.913  12.902  1.00  0.00     0.001 A 
HETATM    8  C11 LIG X 999      47.289 131.703  13.760  1.00  0.00     0.014 A 
HETATM    9  C12 LIG X 999      46.673 131.140  14.901  1.00  0.00     0.003 A 
HETATM   10  C13 LIG X 999      45.885 131.911  15.798  1.00  0.00     0.071 A 
ENDROOT
BRANCH   1  11
HETATM   11  O2  LIG X 999      44.514 131.991  17.839  1.00  0.00    -0.259 OA
BRANCH  11  12
HETATM   12  C3  LIG X 999      44.447 131.660  19.199  1.00  0.00     0.367 C 
HETATM   13  N1  LIG X 999      43.201 131.785  19.904  1.00  0.00    -0.336 N 
HETATM   14  C1  LIG X 999      42.019 132.274  19.190  1.00  0.00     0.154 C 
HETATM   15  C2  LIG X 999      43.128 131.430  21.324  1.00  0.00     0.154 C 
HETATM   16  O1  LIG X 999      45.474 131.235  19.799  1.00  0.00    -0.238 OA
ENDBRANCH  11  12
ENDBRANCH   1  11
BRANCH  10  17
HETATM   17  N2  LIG X 999      45.663 133.315  15.584  1.00  0.00    -0.396 N 
HETATM   18  H13 LIG X 999      44.926 133.672  14.940  1.00  0.00     0.156 HD
HETATM   19  H14 LIG X 999      46.296 134.027  16.011  1.00  0.00     0.156 HD
ENDBRANCH  10  17
TORSDOF 3
