REMARK VINA RESULT:      -8.2      0.000      0.000
REMARK  6 active torsions:
REMARK  status: ('A' for Active; 'I' for Inactive)
REMARK    1  A    between atoms: C2_2  and  C3_3 
REMARK    2  A    between atoms: C3_3  and  O1_4 
REMARK    3  A    between atoms: O1_4  and  C4_5 
REMARK    4  A    between atoms: C4_5  and  C6_7 
REMARK    5  A    between atoms: C6_7  and  C7_8 
REMARK       I    between atoms: N1_10  and  C9_11 
REMARK    6  A    between atoms: C9_11  and  C10_13 
ROOT
HETATM    1  C7  LIG X 999      44.650 131.315  21.440  1.00  0.00     0.043 A 
HETATM    2  C8  LIG X 999      43.823 131.614  20.377  1.00  0.00     0.144 A 
HETATM    3  N1  LIG X 999      44.534 131.359  19.260  1.00  0.00    -0.213 N 
HETATM    4  C9  LIG X 999      44.065 131.467  17.907  1.00  0.00     0.274 C 
HETATM    5  O2  LIG X 999      42.827 131.585  17.692  1.00  0.00    -0.266 OA
HETATM    6  N2  LIG X 999      45.730 130.910  19.616  1.00  0.00    -0.013 NA
HETATM    7  N3  LIG X 999      45.820 130.881  20.936  1.00  0.00    -0.286 N 
HETATM    8  H20 LIG X 999      46.661 130.572  21.470  1.00  0.00     0.184 HD
ENDROOT
BRANCH   4   9
HETATM    9  C10 LIG X 999      44.995 131.424  16.756  1.00  0.00     0.034 A 
HETATM   10  C11 LIG X 999      45.337 132.611  16.089  1.00  0.00     0.018 A 
HETATM   11  C12 LIG X 999      46.220 132.591  15.007  1.00  0.00     0.013 A 
HETATM   12  C13 LIG X 999      46.788 131.383  14.581  1.00  0.00    -0.026 A 
HETATM   13  C14 LIG X 999      47.676 131.352  13.495  1.00  0.00     0.012 A 
HETATM   14  C18 LIG X 999      46.463 130.182  15.256  1.00  0.00    -0.025 A 
HETATM   15  C15 LIG X 999      48.239 130.141  13.083  1.00  0.00     0.001 A 
HETATM   16  C16 LIG X 999      47.920 128.955  13.750  1.00  0.00     0.001 A 
HETATM   17  C17 LIG X 999      47.037 128.972  14.833  1.00  0.00     0.012 A 
HETATM   18  C19 LIG X 999      45.574 130.211  16.341  1.00  0.00     0.029 A 
ENDBRANCH   4   9
BRANCH   1  19
HETATM   19  C6  LIG X 999      44.314 131.390  22.901  1.00  0.00     0.091 C 
BRANCH  19  20
HETATM   20  C4  LIG X 999      44.152 130.000  23.551  1.00  0.00     0.123 C 
HETATM   21  C5  LIG X 999      42.696 129.727  23.936  1.00  0.00     0.040 C 
BRANCH  20  22
HETATM   22  O1  LIG X 999      44.583 128.978  22.664  1.00  0.00    -0.382 OA
BRANCH  22  23
HETATM   23  C3  LIG X 999      44.926 127.805  23.375  1.00  0.00     0.194 C 
BRANCH  23  24
HETATM   24  C2  LIG X 999      45.194 126.696  22.403  1.00  0.00    -0.011 C 
HETATM   25  C1  LIG X 999      46.341 126.012  22.420  1.00  0.00     0.009 C 
ENDBRANCH  23  24
ENDBRANCH  22  23
ENDBRANCH  20  22
ENDBRANCH  19  20
ENDBRANCH   1  19
TORSDOF 6
