REMARK VINA RESULT:      -7.5      3.699      7.342
REMARK  4 active torsions:
REMARK  status: ('A' for Active; 'I' for Inactive)
REMARK    1  A    between atoms: O1_2  and  C1_3 
REMARK    2  A    between atoms: C1_3  and  C5_11 
REMARK       I    between atoms: N1_4  and  C2_5 
REMARK    3  A    between atoms: C2_5  and  O3_7 
REMARK    4  A    between atoms: O3_7  and  C3_8 
ROOT
HETATM    1  C5  LIG X 999      44.132 131.381  18.816  1.00  0.00     0.054 A 
HETATM    2  C6  LIG X 999      45.317 130.851  19.378  1.00  0.00     0.122 A 
HETATM    3  O4  LIG X 999      46.353 130.388  18.573  1.00  0.00    -0.191 OA
HETATM    4  C7  LIG X 999      45.468 130.770  20.765  1.00  0.00     0.053 A 
HETATM    5  C8  LIG X 999      44.450 131.207  21.620  1.00  0.00    -0.023 A 
HETATM    6  C9  LIG X 999      44.599 131.125  23.014  1.00  0.00     0.012 A 
HETATM    7  C10 LIG X 999      43.575 131.565  23.856  1.00  0.00     0.001 A 
HETATM    8  C11 LIG X 999      42.397 132.089  23.317  1.00  0.00     0.001 A 
HETATM    9  C12 LIG X 999      42.237 132.174  21.932  1.00  0.00     0.012 A 
HETATM   10  C13 LIG X 999      43.259 131.736  21.074  1.00  0.00    -0.025 A 
HETATM   11  C14 LIG X 999      43.109 131.818  19.682  1.00  0.00     0.031 A 
ENDROOT
BRANCH   1  12
HETATM   12  C1  LIG X 999      43.952 131.486  17.339  1.00  0.00     0.181 C 
HETATM   13  N1  LIG X 999      44.894 131.047  16.550  1.00  0.00    -0.162 NA
HETATM   14  C2  LIG X 999      44.966 131.147  15.122  1.00  0.00     0.390 C 
HETATM   15  O2  LIG X 999      44.384 132.082  14.507  1.00  0.00    -0.236 OA
BRANCH  12  16
HETATM   16  O1  LIG X 999      42.762 132.020  16.834  1.00  0.00    -0.344 OA
HETATM   17  H1  LIG X 999      42.016 132.380  17.413  1.00  0.00     0.219 HD
ENDBRANCH  12  16
BRANCH  14  18
HETATM   18  O3  LIG X 999      45.768 130.239  14.425  1.00  0.00    -0.282 OA
BRANCH  18  19
HETATM   19  C3  LIG X 999      47.160 130.441  14.194  1.00  0.00     0.225 C 
HETATM   20 CL1  LIG X 999      47.408 131.247  12.619  1.00  0.00    -0.095 Cl
HETATM   21  C4  LIG X 999      47.871 129.096  14.194  1.00  0.00     0.057 C 
ENDBRANCH  18  19
ENDBRANCH  14  18
ENDBRANCH   1  12
TORSDOF 4
