REMARK VINA RESULT:      -9.3      0.000      0.000
REMARK  6 active torsions:
REMARK  status: ('A' for Active; 'I' for Inactive)
REMARK    1  A    between atoms: O1_2  and  C1_3 
REMARK    2  A    between atoms: C1_3  and  C4_6 
REMARK    3  A    between atoms: C4_6  and  O2_7 
REMARK    4  A    between atoms: C4_6  and  O3_9 
REMARK    5  A    between atoms: O3_9  and  C5_10 
REMARK    6  A    between atoms: C10_15  and  N1_16 
ROOT
HETATM    1  N1  LIG X 999      42.816 131.755  23.337  1.00  0.00    -0.073 NA
HETATM    2  N2  LIG X 999      42.399 130.791  23.980  1.00  0.00    -0.162 NA
HETATM    3  N3  LIG X 999      41.983 129.829  24.624  1.00  0.00     0.068 N 
ENDROOT
BRANCH   1   4
HETATM    4  C10 LIG X 999      43.449 131.609  22.058  1.00  0.00     0.094 A 
HETATM    5  C9  LIG X 999      42.749 131.826  20.856  1.00  0.00     0.046 A 
HETATM    6  C8  LIG X 999      43.398 131.674  19.621  1.00  0.00    -0.024 A 
HETATM    7  C7  LIG X 999      42.709 131.889  18.420  1.00  0.00     0.015 A 
HETATM    8  C13 LIG X 999      44.763 131.301  19.585  1.00  0.00    -0.023 A 
HETATM    9  C6  LIG X 999      43.365 131.734  17.196  1.00  0.00     0.038 A 
HETATM   10  C5  LIG X 999      44.712 131.362  17.147  1.00  0.00     0.073 A 
HETATM   11  C14 LIG X 999      45.412 131.150  18.351  1.00  0.00     0.049 A 
HETATM   12  C12 LIG X 999      45.453 131.088  20.788  1.00  0.00     0.014 A 
HETATM   13  C11 LIG X 999      44.798 131.241  22.013  1.00  0.00     0.035 A 
BRANCH  10  14
HETATM   14  O3  LIG X 999      45.312 131.217  15.884  1.00  0.00    -0.314 OA
BRANCH  14  15
HETATM   15  C4  LIG X 999      45.386 130.003  15.133  1.00  0.00     0.321 C 
BRANCH  15  16
HETATM   16  C1  LIG X 999      46.624 129.986  14.274  1.00  0.00     0.094 C 
HETATM   17  C2  LIG X 999      46.854 130.983  13.401  1.00  0.00     0.006 C 
HETATM   18  C3  LIG X 999      48.059 131.033  12.515  1.00  0.00     0.038 C 
BRANCH  16  19
HETATM   19  O1  LIG X 999      47.516 128.921  14.429  1.00  0.00    -0.360 OA
HETATM   20  H1  LIG X 999      48.346 128.801  13.862  1.00  0.00     0.217 HD
ENDBRANCH  16  19
ENDBRANCH  15  16
BRANCH  15  21
HETATM   21  O2  LIG X 999      45.420 128.924  16.029  1.00  0.00    -0.365 OA
HETATM   22  H7  LIG X 999      46.373 128.780  16.268  1.00  0.00     0.213 HD
ENDBRANCH  15  21
ENDBRANCH  14  15
ENDBRANCH  10  14
ENDBRANCH   1   4
TORSDOF 6
