REMARK VINA RESULT:      -6.5      5.074      7.523
REMARK  6 active torsions:
REMARK  status: ('A' for Active; 'I' for Inactive)
REMARK    1  A    between atoms: O1_2  and  C1_3 
REMARK    2  A    between atoms: C1_3  and  C2_4 
REMARK    3  A    between atoms: C1_3  and  C13_20 
REMARK    4  A    between atoms: C2_4  and  O3_6 
REMARK    5  A    between atoms: O3_6  and  C3_7 
REMARK    6  A    between atoms: C8_12  and  N1_13 
ROOT
HETATM    1  N1  LIG X 999      45.931 130.244  14.074  1.00  0.00    -0.073 NA
HETATM    2  N2  LIG X 999      47.094 129.986  13.755  1.00  0.00    -0.162 NA
HETATM    3  N3  LIG X 999      48.253 129.729  13.435  1.00  0.00     0.068 N 
ENDROOT
BRANCH   1   4
HETATM    4  C8  LIG X 999      45.553 130.527  15.428  1.00  0.00     0.094 A 
HETATM    5  C7  LIG X 999      44.306 131.098  15.747  1.00  0.00     0.046 A 
HETATM    6  C6  LIG X 999      43.968 131.362  17.083  1.00  0.00    -0.024 A 
HETATM    7  C5  LIG X 999      42.727 131.925  17.409  1.00  0.00     0.015 A 
HETATM    8  C11 LIG X 999      44.887 131.051  18.114  1.00  0.00    -0.023 A 
HETATM    9  C4  LIG X 999      42.400 132.186  18.744  1.00  0.00     0.038 A 
HETATM   10  C3  LIG X 999      43.315 131.896  19.772  1.00  0.00     0.080 A 
HETATM   11  C12 LIG X 999      44.548 131.314  19.450  1.00  0.00     0.049 A 
HETATM   12  C10 LIG X 999      46.125 130.481  17.790  1.00  0.00     0.014 A 
HETATM   13  C9  LIG X 999      46.453 130.222  16.456  1.00  0.00     0.035 A 
BRANCH  10  14
HETATM   14  O3  LIG X 999      43.023 132.131  21.122  1.00  0.00    -0.277 OA
BRANCH  14  15
HETATM   15  C2  LIG X 999      43.246 131.226  22.170  1.00  0.00     0.293 C 
HETATM   16  O2  LIG X 999      44.169 130.368  22.102  1.00  0.00    -0.262 OA
BRANCH  15  17
HETATM   17  C1  LIG X 999      42.316 131.222  23.349  1.00  0.00     0.217 C 
BRANCH  17  18
HETATM   18  O1  LIG X 999      41.821 129.924  23.547  1.00  0.00    -0.386 OA
HETATM   19  H1  LIG X 999      41.104 129.783  22.874  1.00  0.00     0.210 HD
ENDBRANCH  17  18
BRANCH  17  20
HETATM   20  C13 LIG X 999      43.042 131.677  24.624  1.00  0.00     0.037 C 
HETATM   21  C14 LIG X 999      44.335 132.436  24.322  1.00  0.00     0.008 C 
ENDBRANCH  17  20
ENDBRANCH  15  17
ENDBRANCH  14  15
ENDBRANCH  10  14
ENDBRANCH   1   4
TORSDOF 6
