REMARK VINA RESULT:      -5.6      2.775      7.709
REMARK  4 active torsions:
REMARK  status: ('A' for Active; 'I' for Inactive)
REMARK    1  A    between atoms: C1_2  and  C2_4 
REMARK    2  A    between atoms: C8_10  and  C9_11 
REMARK       I    between atoms: C9_11  and  N1_13 
REMARK    3  A    between atoms: N1_13  and  S1_14 
REMARK    4  A    between atoms: S1_14  and  C10_17 
ROOT
HETATM    1  C9  LIG X 999      45.591 131.195  17.462  1.00  0.00     0.259 C 
HETATM    2  O3  LIG X 999      45.335 132.419  17.307  1.00  0.00    -0.270 OA
HETATM    3  N1  LIG X 999      45.484 130.600  18.756  1.00  0.00    -0.122 NA
ENDROOT
BRANCH   3   4
HETATM    4  S1  LIG X 999      44.761 131.428  20.092  1.00  0.00     0.286 S 
HETATM    5  O4  LIG X 999      45.693 132.504  20.574  1.00  0.00    -0.198 OA
HETATM    6  O5  LIG X 999      43.474 132.071  19.657  1.00  0.00    -0.198 OA
BRANCH   4   7
HETATM    7  C10 LIG X 999      44.475 130.274  21.390  1.00  0.00     0.082 A 
HETATM    8  C11 LIG X 999      43.609 130.607  22.440  1.00  0.00     0.026 A 
HETATM    9  C12 LIG X 999      43.418 129.723  23.505  1.00  0.00     0.014 A 
HETATM   10  C13 LIG X 999      44.097 128.497  23.535  1.00  0.00    -0.026 A 
HETATM   11  C14 LIG X 999      43.918 127.604  24.603  1.00  0.00     0.012 A 
HETATM   12  C18 LIG X 999      44.976 128.158  22.478  1.00  0.00    -0.025 A 
HETATM   13  C15 LIG X 999      44.606 126.387  24.624  1.00  0.00     0.001 A 
HETATM   14  C16 LIG X 999      45.475 126.053  23.580  1.00  0.00     0.001 A 
HETATM   15  C17 LIG X 999      45.662 126.933  22.510  1.00  0.00     0.012 A 
HETATM   16  C19 LIG X 999      45.159 129.051  21.411  1.00  0.00     0.037 A 
ENDBRANCH   4   7
ENDBRANCH   3   4
BRANCH   1  17
HETATM   17  C8  LIG X 999      45.946 130.320  16.281  1.00  0.00     0.099 C 
HETATM   18  C2  LIG X 999      44.932 130.380  15.098  1.00  0.00     0.104 C 
HETATM   19  C3  LIG X 999      45.826 130.827  13.912  1.00  0.00     0.001 C 
HETATM   20  C4  LIG X 999      46.732 129.646  13.514  1.00  0.00     0.006 C 
HETATM   21  C7  LIG X 999      46.825 131.750  14.576  1.00  0.00     0.011 C 
HETATM   22  C5  LIG X 999      47.733 129.574  14.682  1.00  0.00     0.006 C 
HETATM   23  C6  LIG X 999      47.277 130.728  15.596  1.00  0.00    -0.000 C 
BRANCH  18  24
HETATM   24  C1  LIG X 999      43.738 131.289  15.307  1.00  0.00     0.178 C 
HETATM   25  O1  LIG X 999      43.174 131.378  16.430  1.00  0.00    -0.648 OA
HETATM   26  O2  LIG X 999      43.226 132.001  14.230  1.00  0.00    -0.648 OA
ENDBRANCH  18  24
ENDBRANCH   1  17
TORSDOF 4
