REMARK VINA RESULT:      -5.8      0.000      0.000
REMARK  3 active torsions:
REMARK  status: ('A' for Active; 'I' for Inactive)
REMARK    1  A    between atoms: C3_3  and  O1_4 
REMARK    2  A    between atoms: O1_4  and  C4_5 
REMARK    3  A    between atoms: C15_16  and  C16_17 
ROOT
HETATM    1  C1  LIG X 999      45.766 130.986  14.215  1.00  0.00     0.014 C 
HETATM    2  C2  LIG X 999      44.763 131.234  14.836  1.00  0.00    -0.091 C 
HETATM    3  C3  LIG X 999      43.546 131.535  15.591  1.00  0.00     0.268 C 
ENDROOT
BRANCH   3   4
HETATM    4  O1  LIG X 999      43.640 130.945  16.883  1.00  0.00    -0.339 OA
BRANCH   4   5
HETATM    5  C4  LIG X 999      43.609 131.652  18.098  1.00  0.00     0.083 C 
HETATM    6  C5  LIG X 999      42.416 132.304  18.511  1.00  0.00     0.038 C 
HETATM    7  C6  LIG X 999      42.062 132.652  19.828  1.00  0.00     0.003 C 
HETATM    8  C7  LIG X 999      42.630 132.119  20.989  1.00  0.00     0.002 C 
HETATM    9  C8  LIG X 999      43.176 130.834  21.057  1.00  0.00     0.020 C 
HETATM   10  C9  LIG X 999      44.375 130.565  21.734  1.00  0.00     0.016 C 
HETATM   11  C10 LIG X 999      44.584 129.236  22.249  1.00  0.00    -0.078 C 
HETATM   12  C12 LIG X 999      45.425 131.499  21.854  1.00  0.00     0.020 C 
HETATM   13  C11 LIG X 999      44.759 128.125  22.679  1.00  0.00     0.018 C 
HETATM   14  C13 LIG X 999      45.639 132.605  21.006  1.00  0.00     0.002 C 
HETATM   15  C14 LIG X 999      45.115 132.745  19.709  1.00  0.00     0.017 C 
HETATM   16  C15 LIG X 999      44.798 131.664  18.861  1.00  0.00     0.035 C 
BRANCH  16  17
HETATM   17  C16 LIG X 999      45.749 130.537  18.712  1.00  0.00     0.272 C 
HETATM   18  O2  LIG X 999      46.231 130.234  17.587  1.00  0.00    -0.301 OA
ENDBRANCH  16  17
ENDBRANCH   4   5
ENDBRANCH   3   4
TORSDOF 3
