REMARK VINA RESULT:      -6.1      4.345      6.511
REMARK  3 active torsions:
REMARK  status: ('A' for Active; 'I' for Inactive)
REMARK    1  A    between atoms: C6_6  and  C7_7 
REMARK    2  A    between atoms: C7_7  and  N1_8 
REMARK    3  A    between atoms: C8_12  and  N4_13 
ROOT
HETATM    1  N1  LIG X 999      43.142 132.634  20.323  1.00  0.00    -0.065 NA
HETATM    2  N2  LIG X 999      42.221 132.590  19.508  1.00  0.00    -0.164 NA
HETATM    3  N3  LIG X 999      41.300 132.545  18.694  1.00  0.00     0.068 N 
ENDROOT
BRANCH   1   4
HETATM    4  C7  LIG X 999      44.165 131.598  20.342  1.00  0.00     0.267 A 
HETATM    5  O1  LIG X 999      43.746 130.487  21.102  1.00  0.00    -0.314 OA
HETATM    6  C8  LIG X 999      44.800 131.259  21.637  1.00  0.00     0.349 A 
BRANCH   4   7
HETATM    7  C6  LIG X 999      44.802 131.191  19.045  1.00  0.00     0.007 A 
HETATM    8  C5  LIG X 999      44.271 131.647  17.831  1.00  0.00     0.024 A 
HETATM    9  C4  LIG X 999      44.843 131.249  16.613  1.00  0.00    -0.025 A 
HETATM   10  C3  LIG X 999      44.321 131.706  15.394  1.00  0.00     0.012 A 
HETATM   11  C11 LIG X 999      45.957 130.373  16.615  1.00  0.00    -0.026 A 
HETATM   12  C2  LIG X 999      44.900 131.301  14.187  1.00  0.00     0.001 A 
HETATM   13  C1  LIG X 999      46.000 130.439  14.189  1.00  0.00     0.001 A 
HETATM   14  C12 LIG X 999      46.529 129.975  15.397  1.00  0.00     0.012 A 
HETATM   15  C10 LIG X 999      46.475 129.911  17.834  1.00  0.00     0.013 A 
HETATM   16  C9  LIG X 999      45.898 130.315  19.040  1.00  0.00     0.013 A 
ENDBRANCH   4   7
BRANCH   6  17
HETATM   17  N4  LIG X 999      44.342 132.036  22.779  1.00  0.00    -0.077 NA
HETATM   18  N5  LIG X 999      43.698 131.501  23.681  1.00  0.00    -0.165 NA
HETATM   19  N6  LIG X 999      43.053 130.968  24.582  1.00  0.00     0.068 N 
ENDBRANCH   6  17
ENDBRANCH   1   4
TORSDOF 3
