REMARK VINA RESULT:      -4.9      1.062      2.940
REMARK  1 active torsions:
REMARK  status: ('A' for Active; 'I' for Inactive)
REMARK    1  A    between atoms: C4_4  and  N1_5 
ROOT
HETATM    1  C1  LIG X 999      41.856 133.111  18.279  1.00  0.00     0.049 C 
HETATM    2  C2  LIG X 999      42.559 132.213  19.268  1.00  0.00    -0.045 C 
HETATM    3  C3  LIG X 999      42.065 132.238  20.583  1.00  0.00     0.057 C 
HETATM    4  C4  LIG X 999      42.796 131.665  21.620  1.00  0.00     0.122 C 
HETATM    5  N2  LIG X 999      44.004 131.111  21.360  1.00  0.00    -0.231 NA
HETATM    6  C5  LIG X 999      44.507 131.019  20.102  1.00  0.00     0.070 C 
HETATM    7  C6  LIG X 999      45.788 130.494  19.937  1.00  0.00     0.033 C 
HETATM    8  C7  LIG X 999      46.349 130.387  18.672  1.00  0.00     0.014 C 
HETATM    9  C8  LIG X 999      45.596 130.701  17.538  1.00  0.00    -0.025 C 
HETATM   10  C9  LIG X 999      46.150 130.482  16.266  1.00  0.00     0.012 C 
HETATM   11  C10 LIG X 999      45.377 130.661  15.121  1.00  0.00     0.001 C 
HETATM   12  C11 LIG X 999      44.038 131.017  15.238  1.00  0.00     0.001 C 
HETATM   13  C12 LIG X 999      43.476 131.252  16.496  1.00  0.00     0.013 C 
HETATM   14  C13 LIG X 999      44.261 131.185  17.671  1.00  0.00    -0.013 C 
HETATM   15  C14 LIG X 999      43.752 131.471  18.983  1.00  0.00     0.010 C 
ENDROOT
BRANCH   4  16
HETATM   16  N1  LIG X 999      42.313 131.713  22.963  1.00  0.00    -0.384 N 
HETATM   17  H5  LIG X 999      41.408 131.262  23.225  1.00  0.00     0.157 HD
HETATM   18  H6  LIG X 999      42.865 132.199  23.704  1.00  0.00     0.157 HD
ENDBRANCH   4  16
TORSDOF 1
