REMARK VINA RESULT:      -5.6      0.000      0.000
REMARK  6 active torsions:
REMARK  status: ('A' for Active; 'I' for Inactive)
REMARK    1  A    between atoms: C8_8  and  O1_9 
REMARK    2  A    between atoms: O1_9  and  C9_10 
REMARK    3  A    between atoms: C9_10  and  C10_11 
REMARK    4  A    between atoms: C10_11  and  C11_12 
REMARK    5  A    between atoms: C11_12  and  N1_13 
REMARK    6  A    between atoms: C13_18  and  N4_19 
ROOT
HETATM    1  N1  LIG X 999      44.168 131.695  17.521  1.00  0.00    -0.116 NA
HETATM    2  N2  LIG X 999      44.171 131.563  16.296  1.00  0.00    -0.168 NA
HETATM    3  N3  LIG X 999      44.173 131.433  15.073  1.00  0.00     0.068 N 
ENDROOT
BRANCH   1   4
HETATM    4  C11 LIG X 999      42.919 131.762  18.267  1.00  0.00     0.191 C 
BRANCH   4   5
HETATM    5  C10 LIG X 999      43.192 131.841  19.772  1.00  0.00     0.051 C 
BRANCH   5   6
HETATM    6  C9  LIG X 999      44.675 131.638  20.079  1.00  0.00     0.170 C 
BRANCH   6   7
HETATM    7  O1  LIG X 999      44.848 131.545  21.478  1.00  0.00    -0.384 OA
BRANCH   7   8
HETATM    8  C8  LIG X 999      44.258 130.357  21.981  1.00  0.00     0.146 C 
HETATM    9  C7  LIG X 999      45.231 129.185  21.762  1.00  0.00     0.072 C 
HETATM   10  C5  LIG X 999      44.887 127.953  22.569  1.00  0.00    -0.047 A 
HETATM   11  C4  LIG X 999      44.051 128.020  23.711  1.00  0.00    -0.023 A 
HETATM   12  C6  LIG X 999      45.518 126.742  22.244  1.00  0.00     0.008 A 
HETATM   13  C3  LIG X 999      43.852 126.862  24.485  1.00  0.00     0.010 A 
HETATM   14  C13 LIG X 999      43.296 129.285  24.066  1.00  0.00     0.199 C 
HETATM   15  C2  LIG X 999      44.475 125.662  24.140  1.00  0.00     0.001 A 
HETATM   16  C1  LIG X 999      45.306 125.602  23.021  1.00  0.00     0.001 A 
HETATM   17  C12 LIG X 999      43.991 130.531  23.485  1.00  0.00     0.143 C 
HETATM   18 CL1  LIG X 999      43.003 131.996  23.788  1.00  0.00    -0.120 Cl
BRANCH  14  19
HETATM   19  N4  LIG X 999      41.924 129.200  23.568  1.00  0.00    -0.104 NA
HETATM   20  N5  LIG X 999      41.093 128.459  24.096  1.00  0.00    -0.167 NA
HETATM   21  N6  LIG X 999      40.264 127.720  24.623  1.00  0.00     0.068 N 
ENDBRANCH  14  19
ENDBRANCH   7   8
ENDBRANCH   6   7
ENDBRANCH   5   6
ENDBRANCH   4   5
ENDBRANCH   1   4
TORSDOF 6
