REMARK VINA RESULT:      -7.8      1.589      6.941
REMARK  5 active torsions:
REMARK  status: ('A' for Active; 'I' for Inactive)
REMARK    1  A    between atoms: C3_3  and  O1_4 
REMARK    2  A    between atoms: O1_4  and  C4_5 
REMARK    3  A    between atoms: C4_5  and  O2_6 
REMARK    4  A    between atoms: C5_8  and  C6_9 
REMARK    5  A    between atoms: C11_14  and  O3_15 
ROOT
HETATM    1  C1  LIG X 999      47.909 129.634  13.743  1.00  0.00     0.014 C 
HETATM    2  C2  LIG X 999      47.335 129.658  14.802  1.00  0.00    -0.091 C 
HETATM    3  C3  LIG X 999      46.634 129.687  16.087  1.00  0.00     0.270 C 
ENDROOT
BRANCH   3   4
HETATM    4  O1  LIG X 999      45.236 129.790  15.851  1.00  0.00    -0.319 OA
BRANCH   4   5
HETATM    5  C4  LIG X 999      44.636 130.858  15.170  1.00  0.00     0.179 C 
HETATM    6  C5  LIG X 999      43.876 131.740  15.829  1.00  0.00     0.075 C 
BRANCH   5   7
HETATM    7  O2  LIG X 999      44.788 131.011  13.790  1.00  0.00    -0.341 OA
HETATM    8  H4  LIG X 999      44.066 131.411  13.204  1.00  0.00     0.220 HD
ENDBRANCH   5   7
BRANCH   6   9
HETATM    9  C6  LIG X 999      43.633 131.702  17.288  1.00  0.00    -0.031 A 
HETATM   10  C7  LIG X 999      42.374 132.087  17.774  1.00  0.00     0.012 A 
HETATM   11  C8  LIG X 999      42.107 132.081  19.145  1.00  0.00     0.013 A 
HETATM   12  C9  LIG X 999      43.103 131.707  20.057  1.00  0.00    -0.023 A 
HETATM   13  C10 LIG X 999      42.843 131.697  21.436  1.00  0.00     0.049 A 
HETATM   14  C15 LIG X 999      44.384 131.343  19.582  1.00  0.00    -0.025 A 
HETATM   15  C11 LIG X 999      43.842 131.333  22.346  1.00  0.00     0.069 A 
HETATM   16  C13 LIG X 999      45.117 130.974  21.867  1.00  0.00     0.037 A 
HETATM   17  C14 LIG X 999      45.384 130.982  20.496  1.00  0.00     0.015 A 
HETATM   18  C16 LIG X 999      44.644 131.353  18.204  1.00  0.00     0.024 A 
BRANCH  15  19
HETATM   19  O3  LIG X 999      43.528 131.339  23.714  1.00  0.00    -0.356 OA
HETATM   20  C12 LIG X 999      43.919 132.363  24.625  1.00  0.00     0.210 C 
ENDBRANCH  15  19
ENDBRANCH   6   9
ENDBRANCH   4   5
ENDBRANCH   3   4
TORSDOF 5
