REMARK VINA RESULT:      -4.2      2.318      6.465
REMARK  5 active torsions:
REMARK  status: ('A' for Active; 'I' for Inactive)
REMARK    1  A    between atoms: C3_3  and  C4_4 
REMARK    2  A    between atoms: C4_4  and  S1_5 
REMARK    3  A    between atoms: S1_5  and  C5_6 
REMARK    4  A    between atoms: C6_7  and  N1_8 
REMARK    5  A    between atoms: C10_12  and  N2_13 
ROOT
HETATM    1  C1  LIG X 999      47.985 130.999  12.478  1.00  0.00     0.112 C 
HETATM    2  C2  LIG X 999      47.200 130.500  13.606  1.00  0.00    -0.110 C 
HETATM    3  C3  LIG X 999      46.547 130.087  14.531  1.00  0.00    -0.097 C 
ENDROOT
BRANCH   3   4
HETATM    4  C4  LIG X 999      45.745 129.587  15.649  1.00  0.00     0.173 C 
BRANCH   4   5
HETATM    5  S1  LIG X 999      46.218 130.423  17.201  1.00  0.00    -0.115 SA
BRANCH   5   6
HETATM    6  C5  LIG X 999      44.590 131.170  17.484  1.00  0.00     0.038 A 
HETATM    7  C6  LIG X 999      43.793 131.543  16.378  1.00  0.00     0.043 A 
HETATM    8  C7  LIG X 999      42.547 132.136  16.590  1.00  0.00     0.031 A 
HETATM    9  C8  LIG X 999      42.071 132.365  17.877  1.00  0.00     0.017 A 
HETATM   10  C9  LIG X 999      42.832 132.007  19.004  1.00  0.00     0.002 A 
HETATM   11  C10 LIG X 999      42.357 132.237  20.331  1.00  0.00     0.045 A 
HETATM   12  C14 LIG X 999      44.102 131.375  18.802  1.00  0.00    -0.004 A 
HETATM   13  C11 LIG X 999      43.138 131.774  21.401  1.00  0.00     0.003 A 
HETATM   14  C12 LIG X 999      44.337 131.168  21.202  1.00  0.00    -0.021 A 
HETATM   15  C18 LIG X 999      42.873 131.903  22.857  1.00  0.00     0.278 C 
HETATM   16  C13 LIG X 999      44.852 130.965  19.928  1.00  0.00     0.023 A 
HETATM   17  C15 LIG X 999      44.986 130.841  22.489  1.00  0.00     0.276 C 
HETATM   18  N3  LIG X 999      43.972 131.151  23.542  1.00  0.00    -0.067 N 
HETATM   19  C16 LIG X 999      43.442 129.894  24.122  1.00  0.00     0.272 C 
HETATM   20  C17 LIG X 999      44.570 131.966  24.624  1.00  0.00     0.272 C 
BRANCH   7  21
HETATM   21  N1  LIG X 999      44.221 131.312  15.027  1.00  0.00    -0.398 N 
HETATM   22  H6  LIG X 999      43.973 130.446  14.500  1.00  0.00     0.156 HD
HETATM   23  H7  LIG X 999      44.787 132.028  14.521  1.00  0.00     0.156 HD
ENDBRANCH   7  21
BRANCH  11  24
HETATM   24  N2  LIG X 999      41.136 132.942  20.605  1.00  0.00    -0.398 N 
HETATM   25  H10 LIG X 999      40.219 132.444  20.604  1.00  0.00     0.156 HD
HETATM   26  H11 LIG X 999      41.117 133.930  20.936  1.00  0.00     0.156 HD
ENDBRANCH  11  24
ENDBRANCH   5   6
ENDBRANCH   4   5
ENDBRANCH   3   4
TORSDOF 5
