REMARK VINA RESULT:      -7.7      0.768      1.709
REMARK  7 active torsions:
REMARK  status: ('A' for Active; 'I' for Inactive)
REMARK    1  A    between atoms: O1_2  and  C1_3 
REMARK    2  A    between atoms: C1_3  and  O2_18 
REMARK    3  A    between atoms: N1_4  and  C2_5 
REMARK    4  A    between atoms: C3_6  and  N2_7 
REMARK    5  A    between atoms: O2_18  and  C12_19 
REMARK    6  A    between atoms: C12_19  and  C14_21 
REMARK    7  A    between atoms: C14_21  and  O3_22 
ROOT
HETATM    1  N2  LIG X 999      42.044 132.102  18.193  1.00  0.00    -0.070 NA
HETATM    2  N3  LIG X 999      41.901 132.649  19.287  1.00  0.00    -0.162 NA
HETATM    3  N4  LIG X 999      41.752 133.192  20.381  1.00  0.00     0.068 N 
ENDROOT
BRANCH   1   4
HETATM    4  C3  LIG X 999      43.324 131.702  17.682  1.00  0.00     0.122 A 
HETATM    5  C2  LIG X 999      44.396 131.287  18.516  1.00  0.00     0.094 A 
HETATM    6  C11 LIG X 999      45.571 130.790  17.938  1.00  0.00     0.046 A 
HETATM    7  C10 LIG X 999      45.725 130.760  16.546  1.00  0.00    -0.024 A 
HETATM    8  C5  LIG X 999      44.683 131.228  15.716  1.00  0.00    -0.024 A 
HETATM    9  C9  LIG X 999      46.912 130.279  15.968  1.00  0.00     0.012 A 
HETATM   10  C4  LIG X 999      43.494 131.698  16.292  1.00  0.00     0.049 A 
HETATM   11  C6  LIG X 999      44.843 131.209  14.321  1.00  0.00     0.012 A 
HETATM   12  C7  LIG X 999      46.028 130.728  13.757  1.00  0.00     0.001 A 
HETATM   13  C8  LIG X 999      47.059 130.264  14.578  1.00  0.00     0.001 A 
BRANCH   5  14
HETATM   14  N1  LIG X 999      44.345 131.383  19.946  1.00  0.00    -0.200 NA
HETATM   15  C1  LIG X 999      45.153 130.759  20.751  1.00  0.00     0.285 C 
BRANCH  15  16
HETATM   16  O1  LIG X 999      46.149 129.930  20.242  1.00  0.00    -0.325 OA
HETATM   17  H1  LIG X 999      46.705 129.353  20.860  1.00  0.00     0.221 HD
ENDBRANCH  15  16
BRANCH  15  18
HETATM   18  O2  LIG X 999      45.035 130.892  22.144  1.00  0.00    -0.308 OA
BRANCH  18  19
HETATM   19  C12 LIG X 999      44.216 130.102  23.021  1.00  0.00     0.152 C 
HETATM   20  C13 LIG X 999      44.575 128.612  22.974  1.00  0.00     0.042 C 
BRANCH  19  21
HETATM   21  C14 LIG X 999      44.182 130.672  24.450  1.00  0.00     0.199 C 
BRANCH  21  22
HETATM   22  O3  LIG X 999      43.493 131.904  24.488  1.00  0.00    -0.393 OA
HETATM   23  C15 LIG X 999      42.256 131.771  23.827  1.00  0.00     0.201 C 
ENDBRANCH  21  22
ENDBRANCH  19  21
ENDBRANCH  18  19
ENDBRANCH  15  18
ENDBRANCH   5  14
ENDBRANCH   1   4
TORSDOF 7
