REMARK VINA RESULT:      -6.2      2.126      6.701
REMARK  1 active torsions:
REMARK  status: ('A' for Active; 'I' for Inactive)
REMARK    1  A    between atoms: C3_3  and  N1_4 
ROOT
HETATM    1  N1  LIG X 999      41.729 132.967  20.165  1.00  0.00    -0.072 NA
HETATM    2  N2  LIG X 999      40.944 133.383  21.018  1.00  0.00    -0.162 NA
HETATM    3  N3  LIG X 999      40.156 133.796  21.868  1.00  0.00     0.068 N 
ENDROOT
BRANCH   1   4
HETATM    4  C3  LIG X 999      42.857 132.146  20.499  1.00  0.00     0.104 A 
HETATM    5  C2  LIG X 999      43.047 131.833  21.852  1.00  0.00     0.035 A 
HETATM    6  C1  LIG X 999      44.159 131.102  22.269  1.00  0.00     0.003 A 
HETATM    7  C10 LIG X 999      45.099 130.660  21.341  1.00  0.00     0.012 A 
HETATM    8  C9  LIG X 999      44.920 130.916  19.976  1.00  0.00    -0.023 A 
HETATM    9  C4  LIG X 999      43.775 131.652  19.532  1.00  0.00     0.006 A 
HETATM   10  C8  LIG X 999      45.854 130.428  19.042  1.00  0.00     0.021 A 
HETATM   11  C5  LIG X 999      43.572 131.817  18.141  1.00  0.00     0.024 A 
HETATM   12  C6  LIG X 999      44.526 131.322  17.252  1.00  0.00    -0.023 A 
HETATM   13  C7  LIG X 999      45.631 130.660  17.687  1.00  0.00    -0.024 A 
HETATM   14  C14 LIG X 999      44.496 131.365  15.775  1.00  0.00     0.276 C 
HETATM   15  C11 LIG X 999      46.447 130.202  16.542  1.00  0.00     0.276 C 
HETATM   16  N4  LIG X 999      45.810 130.803  15.328  1.00  0.00    -0.067 N 
HETATM   17  C12 LIG X 999      45.613 129.779  14.278  1.00  0.00     0.272 C 
HETATM   18  C13 LIG X 999      46.668 131.886  14.790  1.00  0.00     0.272 C 
ENDBRANCH   1   4
TORSDOF 1
