REMARK VINA RESULT:      -2.6      7.717      9.400
REMARK  5 active torsions:
REMARK  status: ('A' for Active; 'I' for Inactive)
REMARK    1  A    between atoms: C3_3  and  C4_4 
REMARK    2  A    between atoms: C4_4  and  S1_5 
REMARK    3  A    between atoms: S1_5  and  C5_6 
REMARK    4  A    between atoms: C6_7  and  N1_8 
REMARK    5  A    between atoms: C10_12  and  N2_13 
ROOT
HETATM    1  C1  LIG X 999      44.776 130.364  24.593  1.00  0.00     0.112 C 
HETATM    2  C2  LIG X 999      44.458 128.989  24.212  1.00  0.00    -0.110 C 
HETATM    3  C3  LIG X 999      44.193 127.854  23.907  1.00  0.00    -0.097 C 
ENDROOT
BRANCH   3   4
HETATM    4  C4  LIG X 999      43.867 126.473  23.543  1.00  0.00     0.173 C 
BRANCH   4   5
HETATM    5  S1  LIG X 999      44.756 125.302  24.625  1.00  0.00    -0.115 SA
BRANCH   5   6
HETATM    6  C5  LIG X 999      45.291 124.212  23.278  1.00  0.00     0.038 A 
HETATM    7  C6  LIG X 999      44.327 123.473  22.556  1.00  0.00     0.043 A 
HETATM    8  C7  LIG X 999      44.731 122.649  21.504  1.00  0.00     0.031 A 
HETATM    9  C8  LIG X 999      46.073 122.538  21.153  1.00  0.00     0.017 A 
HETATM   10  C9  LIG X 999      47.064 123.256  21.847  1.00  0.00     0.002 A 
HETATM   11  C10 LIG X 999      48.445 123.152  21.500  1.00  0.00     0.045 A 
HETATM   12  C14 LIG X 999      46.666 124.087  22.944  1.00  0.00    -0.004 A 
HETATM   13  C11 LIG X 999      49.377 123.854  22.278  1.00  0.00     0.003 A 
HETATM   14  C12 LIG X 999      48.994 124.628  23.326  1.00  0.00    -0.021 A 
HETATM   15  C18 LIG X 999      50.853 123.895  22.130  1.00  0.00     0.278 C 
HETATM   16  C13 LIG X 999      47.660 124.770  23.684  1.00  0.00     0.023 A 
HETATM   17  C15 LIG X 999      50.166 125.245  23.985  1.00  0.00     0.276 C 
HETATM   18  N3  LIG X 999      51.338 124.909  23.118  1.00  0.00    -0.067 N 
HETATM   19  C16 LIG X 999      51.811 126.124  22.412  1.00  0.00     0.272 C 
HETATM   20  C17 LIG X 999      52.449 124.361  23.930  1.00  0.00     0.272 C 
BRANCH   7  21
HETATM   21  N1  LIG X 999      42.931 123.529  22.885  1.00  0.00    -0.398 N 
HETATM   22  H6  LIG X 999      42.253 123.991  22.238  1.00  0.00     0.156 HD
HETATM   23  H7  LIG X 999      42.541 123.108  23.756  1.00  0.00     0.156 HD
ENDBRANCH   7  21
BRANCH  11  24
HETATM   24  N2  LIG X 999      48.906 122.375  20.382  1.00  0.00    -0.398 N 
HETATM   25  H10 LIG X 999      48.889 122.730  19.403  1.00  0.00     0.156 HD
HETATM   26  H11 LIG X 999      49.384 121.460  20.530  1.00  0.00     0.156 HD
ENDBRANCH  11  24
ENDBRANCH   5   6
ENDBRANCH   4   5
ENDBRANCH   3   4
TORSDOF 5
