REMARK VINA RESULT:      -7.3      2.850      7.589
REMARK  7 active torsions:
REMARK  status: ('A' for Active; 'I' for Inactive)
REMARK    1  A    between atoms: O1_2  and  C1_3 
REMARK    2  A    between atoms: C1_3  and  C2_4 
REMARK    3  A    between atoms: C1_3  and  C3_8 
REMARK    4  A    between atoms: C2_4  and  N1_5 
REMARK    5  A    between atoms: C3_8  and  O2_9 
REMARK    6  A    between atoms: O2_9  and  C4_10 
REMARK    7  A    between atoms: C9_15  and  N4_16 
ROOT
HETATM    1  N1  LIG X 999      47.954 129.457  13.981  1.00  0.00    -0.113 NA
HETATM    2  N2  LIG X 999      47.981 130.407  13.198  1.00  0.00    -0.168 NA
HETATM    3  N3  LIG X 999      48.008 131.356  12.417  1.00  0.00     0.068 N 
ENDROOT
BRANCH   1   4
HETATM    4  C2  LIG X 999      47.177 129.531  15.211  1.00  0.00     0.223 C 
BRANCH   4   5
HETATM    5  C1  LIG X 999      45.667 129.451  14.920  1.00  0.00     0.165 C 
BRANCH   5   6
HETATM    6  O1  LIG X 999      45.077 128.395  15.637  1.00  0.00    -0.392 OA
HETATM    7  H1  LIG X 999      44.259 128.116  15.148  1.00  0.00     0.210 HD
ENDBRANCH   5   6
BRANCH   5   8
HETATM    8  C3  LIG X 999      44.938 130.775  15.195  1.00  0.00     0.209 C 
BRANCH   8   9
HETATM    9  O2  LIG X 999      45.581 131.474  16.259  1.00  0.00    -0.349 OA
BRANCH   9  10
HETATM   10  C4  LIG X 999      45.225 131.367  17.612  1.00  0.00     0.069 A 
HETATM   11  C5  LIG X 999      46.071 130.650  18.464  1.00  0.00     0.037 A 
HETATM   12  C6  LIG X 999      45.767 130.509  19.820  1.00  0.00     0.015 A 
HETATM   13  C7  LIG X 999      44.603 131.089  20.345  1.00  0.00    -0.024 A 
HETATM   14  C8  LIG X 999      44.289 130.953  21.706  1.00  0.00     0.046 A 
HETATM   15  C12 LIG X 999      43.740 131.817  19.493  1.00  0.00    -0.023 A 
HETATM   16  C9  LIG X 999      43.118 131.538  22.227  1.00  0.00     0.094 A 
HETATM   17  C10 LIG X 999      42.270 132.257  21.375  1.00  0.00     0.035 A 
HETATM   18  C11 LIG X 999      42.575 132.397  20.019  1.00  0.00     0.014 A 
HETATM   19  C13 LIG X 999      44.055 131.952  18.132  1.00  0.00     0.049 A 
BRANCH  16  20
HETATM   20  N4  LIG X 999      42.766 131.419  23.612  1.00  0.00    -0.073 NA
HETATM   21  N5  LIG X 999      42.409 130.352  24.112  1.00  0.00    -0.162 NA
HETATM   22  N6  LIG X 999      42.052 129.286  24.614  1.00  0.00     0.068 N 
ENDBRANCH  16  20
ENDBRANCH   9  10
ENDBRANCH   8   9
ENDBRANCH   5   8
ENDBRANCH   4   5
ENDBRANCH   1   4
TORSDOF 7
