REMARK VINA RESULT:      -7.9      1.240      1.719
REMARK  5 active torsions:
REMARK  status: ('A' for Active; 'I' for Inactive)
REMARK    1  A    between atoms: C6_6  and  O1_7 
REMARK    2  A    between atoms: O1_7  and  C7_8 
REMARK    3  A    between atoms: C7_8  and  C8_9 
REMARK    4  A    between atoms: C8_9  and  C9_10 
REMARK    5  A    between atoms: C9_10  and  N1_11 
ROOT
HETATM    1  N1  LIG X 999      43.532 130.823  21.922  1.00  0.00    -0.116 NA
HETATM    2  N2  LIG X 999      42.958 130.316  22.887  1.00  0.00    -0.168 NA
HETATM    3  N3  LIG X 999      42.387 129.809  23.851  1.00  0.00     0.068 N 
ENDROOT
BRANCH   1   4
HETATM    4  C9  LIG X 999      42.910 131.908  21.179  1.00  0.00     0.191 C 
BRANCH   4   5
HETATM    5  C8  LIG X 999      43.459 131.933  19.752  1.00  0.00     0.051 C 
BRANCH   5   6
HETATM    6  C7  LIG X 999      44.904 131.440  19.707  1.00  0.00     0.177 C 
BRANCH   6   7
HETATM    7  O1  LIG X 999      45.048 130.500  18.645  1.00  0.00    -0.351 OA
BRANCH   7   8
HETATM    8  C6  LIG X 999      45.554 130.809  17.375  1.00  0.00     0.069 A 
HETATM    9  C5  LIG X 999      46.307 129.837  16.705  1.00  0.00     0.049 A 
HETATM   10  C4  LIG X 999      46.837 130.095  15.433  1.00  0.00    -0.023 A 
HETATM   11  C3  LIG X 999      47.593 129.120  14.761  1.00  0.00     0.012 A 
HETATM   12  C12 LIG X 999      46.608 131.349  14.818  1.00  0.00    -0.026 A 
HETATM   13  C2  LIG X 999      48.116 129.388  13.493  1.00  0.00     0.001 A 
HETATM   14  C1  LIG X 999      47.889 130.626  12.887  1.00  0.00     0.001 A 
HETATM   15  C13 LIG X 999      47.139 131.605  13.544  1.00  0.00     0.012 A 
HETATM   16  C11 LIG X 999      45.854 132.321  15.489  1.00  0.00     0.015 A 
HETATM   17  C10 LIG X 999      45.330 132.056  16.756  1.00  0.00     0.037 A 
ENDBRANCH   7   8
ENDBRANCH   6   7
ENDBRANCH   5   6
ENDBRANCH   4   5
ENDBRANCH   1   4
TORSDOF 5
