MODEL 1
REMARK VINA RESULT:      -8.3      0.000      0.000
REMARK  1 active torsions:
REMARK  status: ('A' for Active; 'I' for Inactive)
REMARK    1  A    between atoms: N1_2  and  C1_3 
ROOT
HETATM    1  C1  LIG X 999      46.535 129.657  15.245  1.00  0.00     0.120 C 
HETATM    2  C2  LIG X 999      45.444 130.347  14.718  1.00  0.00     0.057 C 
HETATM    3  C3  LIG X 999      44.595 131.080  15.560  1.00  0.00    -0.045 C 
HETATM    4  C4  LIG X 999      43.643 132.032  14.875  1.00  0.00     0.049 C 
HETATM    5  C5  LIG X 999      44.770 130.996  16.978  1.00  0.00     0.008 C 
HETATM    6  C6  LIG X 999      43.854 131.508  17.957  1.00  0.00    -0.013 C 
HETATM    7  C7  LIG X 999      42.499 131.802  17.679  1.00  0.00     0.013 C 
HETATM    8  C8  LIG X 999      41.664 132.355  18.654  1.00  0.00     0.001 C 
HETATM    9  C9  LIG X 999      42.142 132.581  19.940  1.00  0.00     0.001 C 
HETATM   10  C10 LIG X 999      43.440 132.204  20.275  1.00  0.00     0.012 C 
HETATM   11  C11 LIG X 999      44.285 131.635  19.309  1.00  0.00    -0.025 C 
HETATM   12  C12 LIG X 999      45.531 131.140  19.700  1.00  0.00     0.014 C 
HETATM   13  C13 LIG X 999      46.337 130.473  18.789  1.00  0.00     0.031 C 
HETATM   14  C14 LIG X 999      45.972 130.383  17.441  1.00  0.00     0.045 C 
HETATM   15  N2  LIG X 999      46.794 129.722  16.576  1.00  0.00    -0.341 N 
HETATM   16  H12 LIG X 999      47.651 129.246  16.941  1.00  0.00     0.167 HD
ENDROOT
BRANCH   1  17
HETATM   17  N1  LIG X 999      47.330 128.988  14.468  1.00  0.00    -0.284 NA
HETATM   18  H1  LIG X 999      47.844 129.430  13.673  1.00  0.00     0.188 HD
ENDBRANCH   1  17
TORSDOF 1
ENDMDL
MODEL 2
REMARK VINA RESULT:      -8.0      2.969      5.675
REMARK  1 active torsions:
REMARK  status: ('A' for Active; 'I' for Inactive)
REMARK    1  A    between atoms: N1_2  and  C1_3 
ROOT
HETATM    1  C1  LIG X 999      42.992 131.694  22.294  1.00  0.00     0.120 C 
HETATM    2  C2  LIG X 999      44.362 131.486  22.139  1.00  0.00     0.057 C 
HETATM    3  C3  LIG X 999      44.937 131.464  20.860  1.00  0.00    -0.045 C 
HETATM    4  C4  LIG X 999      46.444 131.546  20.808  1.00  0.00     0.049 C 
HETATM    5  C5  LIG X 999      44.087 131.509  19.709  1.00  0.00     0.008 C 
HETATM    6  C6  LIG X 999      44.510 131.278  18.358  1.00  0.00    -0.013 C 
HETATM    7  C7  LIG X 999      45.704 130.597  18.020  1.00  0.00     0.013 C 
HETATM    8  C8  LIG X 999      46.099 130.449  16.688  1.00  0.00     0.001 C 
HETATM    9  C9  LIG X 999      45.295 130.928  15.659  1.00  0.00     0.001 C 
HETATM   10  C10 LIG X 999      44.063 131.508  15.954  1.00  0.00     0.012 C 
HETATM   11  C11 LIG X 999      43.647 131.650  17.287  1.00  0.00    -0.025 C 
HETATM   12  C12 LIG X 999      42.355 132.107  17.552  1.00  0.00     0.014 C 
HETATM   13  C13 LIG X 999      41.880 132.151  18.855  1.00  0.00     0.031 C 
HETATM   14  C14 LIG X 999      42.720 131.849  19.934  1.00  0.00     0.045 C 
HETATM   15  N2  LIG X 999      42.216 131.907  21.200  1.00  0.00    -0.341 N 
HETATM   16  H12 LIG X 999      41.201 132.119  21.343  1.00  0.00     0.167 HD
ENDROOT
BRANCH   1  17
HETATM   17  N1  LIG X 999      42.459 131.728  23.475  1.00  0.00    -0.284 NA
HETATM   18  H1  LIG X 999      42.847 132.310  24.252  1.00  0.00     0.188 HD
ENDBRANCH   1  17
TORSDOF 1
ENDMDL
MODEL 3
REMARK VINA RESULT:      -6.9      2.282      5.474
REMARK  1 active torsions:
REMARK  status: ('A' for Active; 'I' for Inactive)
REMARK    1  A    between atoms: N1_2  and  C1_3 
ROOT
HETATM    1  C1  LIG X 999      42.602 131.974  19.039  1.00  0.00     0.120 C 
HETATM    2  C2  LIG X 999      43.840 131.544  19.515  1.00  0.00     0.057 C 
HETATM    3  C3  LIG X 999      44.875 131.231  18.621  1.00  0.00    -0.045 C 
HETATM    4  C4  LIG X 999      46.251 131.081  19.225  1.00  0.00     0.049 C 
HETATM    5  C5  LIG X 999      44.606 131.215  17.216  1.00  0.00     0.008 C 
HETATM    6  C6  LIG X 999      45.493 130.709  16.208  1.00  0.00    -0.013 C 
HETATM    7  C7  LIG X 999      46.554 129.814  16.482  1.00  0.00     0.013 C 
HETATM    8  C8  LIG X 999      47.426 129.397  15.474  1.00  0.00     0.001 C 
HETATM    9  C9  LIG X 999      47.235 129.817  14.161  1.00  0.00     0.001 C 
HETATM   10  C10 LIG X 999      46.138 130.612  13.840  1.00  0.00     0.012 C 
HETATM   11  C11 LIG X 999      45.245 131.027  14.842  1.00  0.00    -0.025 C 
HETATM   12  C12 LIG X 999      44.081 131.706  14.478  1.00  0.00     0.014 C 
HETATM   13  C13 LIG X 999      43.129 132.029  15.435  1.00  0.00     0.031 C 
HETATM   14  C14 LIG X 999      43.368 131.784  16.793  1.00  0.00     0.045 C 
HETATM   15  N2  LIG X 999      42.408 132.120  17.703  1.00  0.00    -0.341 N 
HETATM   16  H12 LIG X 999      41.492 132.500  17.371  1.00  0.00     0.167 HD
ENDROOT
BRANCH   1  17
HETATM   17  N1  LIG X 999      41.647 132.276  19.862  1.00  0.00    -0.284 NA
HETATM   18  H1  LIG X 999      40.657 131.975  19.712  1.00  0.00     0.188 HD
ENDBRANCH   1  17
TORSDOF 1
ENDMDL
MODEL 4
REMARK VINA RESULT:      -6.1      2.809      5.166
REMARK  1 active torsions:
REMARK  status: ('A' for Active; 'I' for Inactive)
REMARK    1  A    between atoms: N1_2  and  C1_3 
ROOT
HETATM    1  C1  LIG X 999      43.284 131.967  22.390  1.00  0.00     0.120 C 
HETATM    2  C2  LIG X 999      42.391 132.294  21.370  1.00  0.00     0.057 C 
HETATM    3  C3  LIG X 999      42.687 131.976  20.037  1.00  0.00    -0.045 C 
HETATM    4  C4  LIG X 999      41.542 132.082  19.059  1.00  0.00     0.049 C 
HETATM    5  C5  LIG X 999      43.977 131.446  19.714  1.00  0.00     0.008 C 
HETATM    6  C6  LIG X 999      44.495 131.281  18.385  1.00  0.00    -0.013 C 
HETATM    7  C7  LIG X 999      43.985 131.968  17.258  1.00  0.00     0.013 C 
HETATM    8  C8  LIG X 999      44.487 131.727  15.977  1.00  0.00     0.001 C 
HETATM    9  C9  LIG X 999      45.539 130.837  15.791  1.00  0.00     0.001 C 
HETATM   10  C10 LIG X 999      46.134 130.226  16.892  1.00  0.00     0.012 C 
HETATM   11  C11 LIG X 999      45.649 130.470  18.187  1.00  0.00    -0.025 C 
HETATM   12  C12 LIG X 999      46.344 129.956  19.283  1.00  0.00     0.014 C 
HETATM   13  C13 LIG X 999      45.952 130.275  20.575  1.00  0.00     0.031 C 
HETATM   14  C14 LIG X 999      44.788 131.020  20.806  1.00  0.00     0.045 C 
HETATM   15  N2  LIG X 999      44.434 131.309  22.092  1.00  0.00    -0.341 N 
HETATM   16  H12 LIG X 999      45.062 131.021  22.878  1.00  0.00     0.167 HD
ENDROOT
BRANCH   1  17
HETATM   17  N1  LIG X 999      43.008 132.248  23.625  1.00  0.00    -0.284 NA
HETATM   18  H1  LIG X 999      42.305 132.974  23.894  1.00  0.00     0.188 HD
ENDBRANCH   1  17
TORSDOF 1
ENDMDL
MODEL 5
REMARK VINA RESULT:      -6.1      9.230     10.798
REMARK  1 active torsions:
REMARK  status: ('A' for Active; 'I' for Inactive)
REMARK    1  A    between atoms: N1_2  and  C1_3 
ROOT
HETATM    1  C1  LIG X 999      48.994 138.778  19.864  1.00  0.00     0.120 C 
HETATM    2  C2  LIG X 999      48.750 137.430  20.126  1.00  0.00     0.057 C 
HETATM    3  C3  LIG X 999      49.447 136.767  21.146  1.00  0.00    -0.045 C 
HETATM    4  C4  LIG X 999      48.901 135.420  21.556  1.00  0.00     0.049 C 
HETATM    5  C5  LIG X 999      50.514 137.443  21.819  1.00  0.00     0.008 C 
HETATM    6  C6  LIG X 999      51.446 136.828  22.720  1.00  0.00    -0.013 C 
HETATM    7  C7  LIG X 999      51.690 135.435  22.759  1.00  0.00     0.013 C 
HETATM    8  C8  LIG X 999      52.565 134.881  23.696  1.00  0.00     0.001 C 
HETATM    9  C9  LIG X 999      53.258 135.700  24.581  1.00  0.00     0.001 C 
HETATM   10  C10 LIG X 999      53.122 137.083  24.497  1.00  0.00     0.012 C 
HETATM   11  C11 LIG X 999      52.256 137.655  23.551  1.00  0.00    -0.025 C 
HETATM   12  C12 LIG X 999      52.239 139.042  23.394  1.00  0.00     0.014 C 
HETATM   13  C13 LIG X 999      51.477 139.625  22.391  1.00  0.00     0.031 C 
HETATM   14  C14 LIG X 999      50.625 138.848  21.596  1.00  0.00     0.045 C 
HETATM   15  N2  LIG X 999      49.889 139.459  20.623  1.00  0.00    -0.341 N 
HETATM   16  H12 LIG X 999      50.013 140.484  20.449  1.00  0.00     0.167 HD
ENDROOT
BRANCH   1  17
HETATM   17  N1  LIG X 999      48.342 139.397  18.929  1.00  0.00    -0.284 NA
HETATM   18  H1  LIG X 999      48.705 139.485  17.953  1.00  0.00     0.188 HD
ENDBRANCH   1  17
TORSDOF 1
ENDMDL
