REMARK VINA RESULT:      -6.4      1.697      8.187
REMARK  6 active torsions:
REMARK  status: ('A' for Active; 'I' for Inactive)
REMARK    1  A    between atoms: C2_2  and  C3_3 
REMARK    2  A    between atoms: C3_3  and  O1_4 
REMARK    3  A    between atoms: O1_4  and  C4_5 
REMARK    4  A    between atoms: C4_5  and  C6_7 
REMARK    5  A    between atoms: C6_7  and  C7_8 
REMARK       I    between atoms: N1_10  and  C9_11 
REMARK    6  A    between atoms: C9_11  and  C10_13 
ROOT
HETATM    1  C7  LIG X 999      43.712 131.483  21.501  1.00  0.00     0.076 A 
HETATM    2  C8  LIG X 999      43.185 130.292  21.955  1.00  0.00     0.150 A 
HETATM    3  N1  LIG X 999      43.962 129.905  22.985  1.00  0.00    -0.213 N 
HETATM    4  C9  LIG X 999      43.838 128.713  23.777  1.00  0.00     0.277 C 
HETATM    5  O2  LIG X 999      44.859 128.248  24.352  1.00  0.00    -0.265 OA
HETATM    6  N2  LIG X 999      44.918 130.810  23.130  1.00  0.00    -0.210 N 
HETATM    7  N3  LIG X 999      44.790 131.793  22.251  1.00  0.00    -0.162 NA
HETATM    8  H20 LIG X 999      45.672 130.770  23.852  1.00  0.00     0.211 HD
ENDROOT
BRANCH   4   9
HETATM    9  C10 LIG X 999      42.540 128.017  23.936  1.00  0.00     0.035 A 
HETATM   10  C11 LIG X 999      41.438 128.702  24.477  1.00  0.00     0.018 A 
HETATM   11  C12 LIG X 999      40.206 128.061  24.624  1.00  0.00     0.013 A 
HETATM   12  C13 LIG X 999      40.052 126.726  24.224  1.00  0.00    -0.026 A 
HETATM   13  C14 LIG X 999      38.819 126.072  24.370  1.00  0.00     0.012 A 
HETATM   14  C18 LIG X 999      41.150 126.033  23.661  1.00  0.00    -0.025 A 
HETATM   15  C15 LIG X 999      38.676 124.743  23.961  1.00  0.00     0.001 A 
HETATM   16  C16 LIG X 999      39.760 124.059  23.404  1.00  0.00     0.001 A 
HETATM   17  C17 LIG X 999      40.994 124.699  23.253  1.00  0.00     0.012 A 
HETATM   18  C19 LIG X 999      42.383 126.686  23.514  1.00  0.00     0.029 A 
ENDBRANCH   4   9
BRANCH   1  19
HETATM   19  C6  LIG X 999      43.156 132.350  20.411  1.00  0.00     0.094 C 
BRANCH  19  20
HETATM   20  C4  LIG X 999      43.144 131.646  19.043  1.00  0.00     0.123 C 
HETATM   21  C5  LIG X 999      41.975 132.125  18.172  1.00  0.00     0.040 C 
BRANCH  20  22
HETATM   22  O1  LIG X 999      44.371 131.899  18.378  1.00  0.00    -0.382 OA
BRANCH  22  23
HETATM   23  C3  LIG X 999      44.295 131.527  17.018  1.00  0.00     0.194 C 
BRANCH  23  24
HETATM   24  C2  LIG X 999      45.592 131.859  16.342  1.00  0.00    -0.011 C 
HETATM   25  C1  LIG X 999      45.934 131.298  15.179  1.00  0.00     0.009 C 
ENDBRANCH  23  24
ENDBRANCH  22  23
ENDBRANCH  20  22
ENDBRANCH  19  20
ENDBRANCH   1  19
TORSDOF 6
