REMARK VINA RESULT:      -6.6      2.788      6.017
REMARK  4 active torsions:
REMARK  status: ('A' for Active; 'I' for Inactive)
REMARK    1  A    between atoms: C3_3  and  O1_4 
REMARK    2  A    between atoms: O1_4  and  C4_5 
REMARK    3  A    between atoms: C4_5  and  O2_6 
REMARK    4  A    between atoms: C5_8  and  C6_9 
ROOT
HETATM    1  C1  LIG X 999      43.083 131.702  14.172  1.00  0.00     0.014 C 
HETATM    2  C2  LIG X 999      44.278 131.548  14.124  1.00  0.00    -0.091 C 
HETATM    3  C3  LIG X 999      45.728 131.364  14.069  1.00  0.00     0.266 C 
ENDROOT
BRANCH   3   4
HETATM    4  O1  LIG X 999      46.243 131.413  15.380  1.00  0.00    -0.319 OA
BRANCH   4   5
HETATM    5  C4  LIG X 999      46.799 130.158  15.700  1.00  0.00     0.314 A 
HETATM    6  O3  LIG X 999      45.785 129.185  15.781  1.00  0.00    -0.312 OA
HETATM    7  C5  LIG X 999      46.469 129.477  16.981  1.00  0.00     0.254 A 
BRANCH   5   8
HETATM    8  O2  LIG X 999      47.855 129.687  14.911  1.00  0.00    -0.341 OA
HETATM    9  H4  LIG X 999      47.980 128.740  15.179  1.00  0.00     0.215 HD
ENDBRANCH   5   8
BRANCH   7  10
HETATM   10  C6  LIG X 999      45.624 130.258  17.949  1.00  0.00    -0.021 A 
HETATM   11  C7  LIG X 999      46.073 130.520  19.254  1.00  0.00     0.011 A 
HETATM   12  C8  LIG X 999      45.280 131.252  20.141  1.00  0.00     0.013 A 
HETATM   13  C9  LIG X 999      44.033 131.745  19.732  1.00  0.00    -0.026 A 
HETATM   14  C10 LIG X 999      43.226 132.478  20.616  1.00  0.00     0.012 A 
HETATM   15  C14 LIG X 999      43.585 131.506  18.410  1.00  0.00    -0.025 A 
HETATM   16  C11 LIG X 999      41.987 132.968  20.194  1.00  0.00     0.001 A 
HETATM   17  C12 LIG X 999      41.546 132.732  18.889  1.00  0.00     0.001 A 
HETATM   18  C13 LIG X 999      42.340 132.004  17.998  1.00  0.00     0.012 A 
HETATM   19  C15 LIG X 999      44.391 130.772  17.525  1.00  0.00     0.022 A 
ENDBRANCH   7  10
ENDBRANCH   4   5
ENDBRANCH   3   4
TORSDOF 4
