REMARK VINA RESULT:      -7.5      1.348      2.289
REMARK  6 active torsions:
REMARK  status: ('A' for Active; 'I' for Inactive)
REMARK    1  A    between atoms: O1_2  and  C1_3 
REMARK    2  A    between atoms: C1_3  and  C4_6 
REMARK    3  A    between atoms: C4_6  and  O2_7 
REMARK    4  A    between atoms: C4_6  and  O3_9 
REMARK    5  A    between atoms: O3_9  and  C5_10 
REMARK    6  A    between atoms: C10_15  and  N1_16 
ROOT
HETATM    1  N1  LIG X 999      42.226 132.405  22.673  1.00  0.00    -0.073 NA
HETATM    2  N2  LIG X 999      42.899 132.071  23.649  1.00  0.00    -0.162 NA
HETATM    3  N3  LIG X 999      43.570 131.736  24.625  1.00  0.00     0.068 N 
ENDROOT
BRANCH   1   4
HETATM    4  C10 LIG X 999      42.663 132.181  21.326  1.00  0.00     0.094 A 
HETATM    5  C9  LIG X 999      43.876 131.514  21.113  1.00  0.00     0.046 A 
HETATM    6  C8  LIG X 999      44.338 131.275  19.810  1.00  0.00    -0.024 A 
HETATM    7  C7  LIG X 999      45.553 130.611  19.594  1.00  0.00     0.015 A 
HETATM    8  C13 LIG X 999      43.574 131.711  18.702  1.00  0.00    -0.023 A 
HETATM    9  C6  LIG X 999      46.005 130.378  18.293  1.00  0.00     0.038 A 
HETATM   10  C5  LIG X 999      45.256 130.797  17.188  1.00  0.00     0.073 A 
HETATM   11  C14 LIG X 999      44.037 131.472  17.398  1.00  0.00     0.049 A 
HETATM   12  C12 LIG X 999      42.360 132.378  18.919  1.00  0.00     0.014 A 
HETATM   13  C11 LIG X 999      41.907 132.612  20.220  1.00  0.00     0.035 A 
BRANCH  10  14
HETATM   14  O3  LIG X 999      45.768 130.531  15.908  1.00  0.00    -0.314 OA
BRANCH  14  15
HETATM   15  C4  LIG X 999      46.072 131.506  14.908  1.00  0.00     0.321 C 
BRANCH  15  16
HETATM   16  C1  LIG X 999      47.161 130.975  14.020  1.00  0.00     0.094 C 
HETATM   17  C2  LIG X 999      47.601 129.713  14.173  1.00  0.00     0.006 C 
HETATM   18  C3  LIG X 999      48.681 129.113  13.327  1.00  0.00     0.038 C 
BRANCH  16  19
HETATM   19  O1  LIG X 999      47.689 131.826  13.044  1.00  0.00    -0.360 OA
HETATM   20  H1  LIG X 999      47.590 131.662  12.050  1.00  0.00     0.217 HD
ENDBRANCH  16  19
ENDBRANCH  15  16
BRANCH  15  21
HETATM   21  O2  LIG X 999      44.934 131.769  14.129  1.00  0.00    -0.365 OA
HETATM   22  H7  LIG X 999      44.654 132.699  14.325  1.00  0.00     0.213 HD
ENDBRANCH  15  21
ENDBRANCH  14  15
ENDBRANCH  10  14
ENDBRANCH   1   4
TORSDOF 6
