MODEL 1
REMARK VINA RESULT:      -7.7      0.000      0.000
REMARK  2 active torsions:
REMARK  status: ('A' for Active; 'I' for Inactive)
REMARK    1  A    between atoms: O1_2  and  C2_3 
REMARK    2  A    between atoms: C11_12  and  N1_13 
ROOT
HETATM    1  C2  LIG X 999      44.065 130.959  22.699  1.00  0.00     0.095 A 
HETATM    2  C3  LIG X 999      45.004 130.566  21.724  1.00  0.00     0.051 A 
HETATM    3  C4  LIG X 999      44.785 130.850  20.370  1.00  0.00    -0.023 A 
HETATM    4  C5  LIG X 999      45.724 130.459  19.394  1.00  0.00     0.021 A 
HETATM    5  C6  LIG X 999      45.464 130.760  18.057  1.00  0.00    -0.024 A 
HETATM    6  C7  LIG X 999      44.336 131.422  17.681  1.00  0.00    -0.024 A 
HETATM    7  C8  LIG X 999      43.384 131.832  18.616  1.00  0.00     0.021 A 
HETATM    8  C9  LIG X 999      43.606 131.542  19.976  1.00  0.00    -0.023 A 
HETATM    9  C10 LIG X 999      42.677 131.931  20.949  1.00  0.00     0.044 A 
HETATM   10  C11 LIG X 999      42.899 131.644  22.304  1.00  0.00     0.060 A 
HETATM   11  C12 LIG X 999      44.322 131.636  16.219  1.00  0.00     0.276 C 
HETATM   12  N2  LIG X 999      45.504 130.885  15.689  1.00  0.00    -0.067 N 
HETATM   13  C13 LIG X 999      46.306 131.741  14.787  1.00  0.00     0.272 C 
HETATM   14  C14 LIG X 999      45.051 129.688  14.940  1.00  0.00     0.272 C 
HETATM   15  C15 LIG X 999      46.312 130.469  16.880  1.00  0.00     0.276 C 
ENDROOT
BRANCH  10  16
HETATM   16  N1  LIG X 999      41.930 132.054  23.276  1.00  0.00    -0.397 N 
HETATM   17  H8  LIG X 999      41.263 132.831  23.070  1.00  0.00     0.156 HD
HETATM   18  H9  LIG X 999      41.865 131.591  24.210  1.00  0.00     0.156 HD
ENDBRANCH  10  16
BRANCH   1  19
HETATM   19  O1  LIG X 999      44.258 130.686  24.064  1.00  0.00    -0.354 OA
HETATM   20  C1  LIG X 999      44.332 129.379  24.625  1.00  0.00     0.210 C 
ENDBRANCH   1  19
TORSDOF 2
ENDMDL
MODEL 2
REMARK VINA RESULT:      -7.6      2.483      6.672
REMARK  2 active torsions:
REMARK  status: ('A' for Active; 'I' for Inactive)
REMARK    1  A    between atoms: O1_2  and  C2_3 
REMARK    2  A    between atoms: C11_12  and  N1_13 
ROOT
HETATM    1  C2  LIG X 999      44.920 131.329  16.243  1.00  0.00     0.095 A 
HETATM    2  C3  LIG X 999      44.012 131.794  17.216  1.00  0.00     0.051 A 
HETATM    3  C4  LIG X 999      44.197 131.483  18.569  1.00  0.00    -0.023 A 
HETATM    4  C5  LIG X 999      43.289 131.948  19.542  1.00  0.00     0.021 A 
HETATM    5  C6  LIG X 999      43.511 131.611  20.878  1.00  0.00    -0.024 A 
HETATM    6  C7  LIG X 999      44.577 130.854  21.256  1.00  0.00    -0.024 A 
HETATM    7  C8  LIG X 999      45.502 130.379  20.325  1.00  0.00     0.021 A 
HETATM    8  C9  LIG X 999      45.311 130.692  18.964  1.00  0.00    -0.023 A 
HETATM    9  C10 LIG X 999      46.211 130.233  17.995  1.00  0.00     0.044 A 
HETATM   10  C11 LIG X 999      46.023 130.547  16.641  1.00  0.00     0.060 A 
HETATM   11  C12 LIG X 999      44.590 130.670  22.722  1.00  0.00     0.276 C 
HETATM   12  N2  LIG X 999      43.308 131.268  23.216  1.00  0.00    -0.067 N 
HETATM   13  C13 LIG X 999      43.563 132.189  24.346  1.00  0.00     0.272 C 
HETATM   14  C14 LIG X 999      42.389 130.196  23.665  1.00  0.00     0.272 C 
HETATM   15  C15 LIG X 999      42.709 132.004  22.058  1.00  0.00     0.276 C 
ENDROOT
BRANCH  10  16
HETATM   16  N1  LIG X 999      46.959 130.063  15.671  1.00  0.00    -0.397 N 
HETATM   17  H8  LIG X 999      47.854 129.614  15.971  1.00  0.00     0.156 HD
HETATM   18  H9  LIG X 999      46.776 130.145  14.646  1.00  0.00     0.156 HD
ENDBRANCH  10  16
BRANCH   1  19
HETATM   19  O1  LIG X 999      44.759 131.626  14.879  1.00  0.00    -0.354 OA
HETATM   20  C1  LIG X 999      43.548 131.447  14.150  1.00  0.00     0.210 C 
ENDBRANCH   1  19
TORSDOF 2
ENDMDL
MODEL 3
REMARK VINA RESULT:      -7.3      2.333      6.375
REMARK  2 active torsions:
REMARK  status: ('A' for Active; 'I' for Inactive)
REMARK    1  A    between atoms: O1_2  and  C2_3 
REMARK    2  A    between atoms: C11_12  and  N1_13 
ROOT
HETATM    1  C2  LIG X 999      45.618 130.930  16.740  1.00  0.00     0.095 A 
HETATM    2  C3  LIG X 999      45.956 130.617  18.072  1.00  0.00     0.051 A 
HETATM    3  C4  LIG X 999      45.075 130.914  19.120  1.00  0.00    -0.023 A 
HETATM    4  C5  LIG X 999      45.412 130.600  20.452  1.00  0.00     0.021 A 
HETATM    5  C6  LIG X 999      44.505 130.917  21.464  1.00  0.00    -0.024 A 
HETATM    6  C7  LIG X 999      43.312 131.513  21.192  1.00  0.00    -0.024 A 
HETATM    7  C8  LIG X 999      42.937 131.835  19.886  1.00  0.00     0.021 A 
HETATM    8  C9  LIG X 999      43.828 131.537  18.836  1.00  0.00    -0.023 A 
HETATM    9  C10 LIG X 999      43.496 131.845  17.511  1.00  0.00     0.044 A 
HETATM   10  C11 LIG X 999      44.381 131.547  16.465  1.00  0.00     0.060 A 
HETATM   11  C12 LIG X 999      42.535 131.711  22.433  1.00  0.00     0.276 C 
HETATM   12  N2  LIG X 999      43.451 131.315  23.550  1.00  0.00    -0.067 N 
HETATM   13  C13 LIG X 999      42.772 130.381  24.476  1.00  0.00     0.272 C 
HETATM   14  C14 LIG X 999      43.878 132.517  24.306  1.00  0.00     0.272 C 
HETATM   15  C15 LIG X 999      44.639 130.661  22.915  1.00  0.00     0.276 C 
ENDROOT
BRANCH  10  16
HETATM   16  N1  LIG X 999      44.014 131.875  15.119  1.00  0.00    -0.397 N 
HETATM   17  H8  LIG X 999      43.031 132.135  14.883  1.00  0.00     0.156 HD
HETATM   18  H9  LIG X 999      44.714 131.862  14.345  1.00  0.00     0.156 HD
ENDBRANCH  10  16
BRANCH   1  19
HETATM   19  O1  LIG X 999      46.483 130.644  15.671  1.00  0.00    -0.354 OA
HETATM   20  C1  LIG X 999      46.408 129.476  14.859  1.00  0.00     0.210 C 
ENDBRANCH   1  19
TORSDOF 2
ENDMDL
MODEL 4
REMARK VINA RESULT:      -5.7      2.858      6.541
REMARK  2 active torsions:
REMARK  status: ('A' for Active; 'I' for Inactive)
REMARK    1  A    between atoms: O1_2  and  C2_3 
REMARK    2  A    between atoms: C11_12  and  N1_13 
ROOT
HETATM    1  C2  LIG X 999      45.728 130.650  14.918  1.00  0.00     0.095 A 
HETATM    2  C3  LIG X 999      46.235 130.383  16.206  1.00  0.00     0.051 A 
HETATM    3  C4  LIG X 999      45.499 130.728  17.347  1.00  0.00    -0.023 A 
HETATM    4  C5  LIG X 999      46.004 130.459  18.635  1.00  0.00     0.021 A 
HETATM    5  C6  LIG X 999      45.239 130.823  19.743  1.00  0.00    -0.024 A 
HETATM    6  C7  LIG X 999      44.024 131.422  19.605  1.00  0.00    -0.024 A 
HETATM    7  C8  LIG X 999      43.485 131.700  18.348  1.00  0.00     0.021 A 
HETATM    8  C9  LIG X 999      44.229 131.353  17.203  1.00  0.00    -0.023 A 
HETATM    9  C10 LIG X 999      43.730 131.616  15.922  1.00  0.00     0.044 A 
HETATM   10  C11 LIG X 999      44.470 131.269  14.782  1.00  0.00     0.060 A 
HETATM   11  C12 LIG X 999      43.416 131.674  20.929  1.00  0.00     0.276 C 
HETATM   12  N2  LIG X 999      44.467 131.310  21.932  1.00  0.00    -0.067 N 
HETATM   13  C13 LIG X 999      43.909 130.418  22.973  1.00  0.00     0.272 C 
HETATM   14  C14 LIG X 999      44.996 132.534  22.580  1.00  0.00     0.272 C 
HETATM   15  C15 LIG X 999      45.558 130.619  21.173  1.00  0.00     0.276 C 
ENDROOT
BRANCH  10  16
HETATM   16  N1  LIG X 999      43.933 131.552  13.484  1.00  0.00    -0.397 N 
HETATM   17  H8  LIG X 999      43.391 130.827  12.963  1.00  0.00     0.156 HD
HETATM   18  H9  LIG X 999      44.069 132.480  13.028  1.00  0.00     0.156 HD
ENDBRANCH  10  16
BRANCH   1  19
HETATM   19  O1  LIG X 999      46.445 130.315  13.757  1.00  0.00    -0.354 OA
HETATM   20  C1  LIG X 999      47.472 129.330  13.696  1.00  0.00     0.210 C 
ENDBRANCH   1  19
TORSDOF 2
ENDMDL
MODEL 5
REMARK VINA RESULT:      -5.6      1.165      2.313
REMARK  2 active torsions:
REMARK  status: ('A' for Active; 'I' for Inactive)
REMARK    1  A    between atoms: O1_2  and  C2_3 
REMARK    2  A    between atoms: C11_12  and  N1_13 
ROOT
HETATM    1  C2  LIG X 999      43.149 131.392  22.434  1.00  0.00     0.095 A 
HETATM    2  C3  LIG X 999      42.859 131.774  21.109  1.00  0.00     0.051 A 
HETATM    3  C4  LIG X 999      43.710 131.405  20.059  1.00  0.00    -0.023 A 
HETATM    4  C5  LIG X 999      43.419 131.785  18.733  1.00  0.00     0.021 A 
HETATM    5  C6  LIG X 999      44.297 131.399  17.719  1.00  0.00    -0.024 A 
HETATM    6  C7  LIG X 999      45.413 130.666  17.983  1.00  0.00    -0.024 A 
HETATM    7  C8  LIG X 999      45.734 130.264  19.280  1.00  0.00     0.021 A 
HETATM    8  C9  LIG X 999      44.876 130.639  20.334  1.00  0.00    -0.023 A 
HETATM    9  C10 LIG X 999      45.160 130.262  21.652  1.00  0.00     0.044 A 
HETATM   10  C11 LIG X 999      44.306 130.633  22.700  1.00  0.00     0.060 A 
HETATM   11  C12 LIG X 999      46.147 130.370  16.735  1.00  0.00     0.276 C 
HETATM   12  N2  LIG X 999      45.447 131.145  15.661  1.00  0.00    -0.067 N 
HETATM   13  C13 LIG X 999      45.152 130.278  14.498  1.00  0.00     0.272 C 
HETATM   14  C14 LIG X 999      46.295 132.276  15.216  1.00  0.00     0.272 C 
HETATM   15  C15 LIG X 999      44.180 131.663  16.268  1.00  0.00     0.276 C 
ENDROOT
BRANCH  10  16
HETATM   16  N1  LIG X 999      44.622 130.233  24.039  1.00  0.00    -0.397 N 
HETATM   17  H8  LIG X 999      44.083 129.473  24.510  1.00  0.00     0.156 HD
HETATM   18  H9  LIG X 999      45.394 130.687  24.576  1.00  0.00     0.156 HD
ENDBRANCH  10  16
BRANCH   1  19
HETATM   19  O1  LIG X 999      42.313 131.749  23.506  1.00  0.00    -0.354 OA
HETATM   20  C1  LIG X 999      42.721 132.530  24.625  1.00  0.00     0.210 C 
ENDBRANCH   1  19
TORSDOF 2
ENDMDL
