REMARK VINA RESULT:      -5.0      2.797      5.855
REMARK  6 active torsions:
REMARK  status: ('A' for Active; 'I' for Inactive)
REMARK    1  A    between atoms: C6_6  and  N1_7 
REMARK       I    between atoms: N1_7  and  C7_8 
REMARK    2  A    between atoms: C7_8  and  O2_10 
REMARK    3  A    between atoms: O2_10  and  C8_11 
REMARK    4  A    between atoms: C8_11  and  C10_13 
REMARK    5  A    between atoms: C10_13  and  O3_14 
REMARK    6  A    between atoms: C12_16  and  N2_17 
ROOT
HETATM    1  N2  LIG X 999      41.990 128.761  24.625  1.00  0.00    -0.070 NA
HETATM    2  N3  LIG X 999      41.009 128.053  24.394  1.00  0.00    -0.162 NA
HETATM    3  N4  LIG X 999      40.028 127.346  24.166  1.00  0.00     0.068 N 
ENDROOT
BRANCH   1   4
HETATM    4  C12 LIG X 999      42.906 129.168  23.596  1.00  0.00     0.122 A 
HETATM    5  C6  LIG X 999      44.079 128.420  23.394  1.00  0.00     0.095 A 
HETATM    6  C5  LIG X 999      45.002 128.822  22.412  1.00  0.00     0.046 A 
HETATM    7  C4  LIG X 999      44.740 129.935  21.601  1.00  0.00    -0.024 A 
HETATM    8  C3  LIG X 999      45.654 130.330  20.611  1.00  0.00     0.012 A 
HETATM    9  C14 LIG X 999      43.547 130.671  21.786  1.00  0.00    -0.024 A 
HETATM   10  C2  LIG X 999      45.383 131.441  19.808  1.00  0.00     0.001 A 
HETATM   11  C1  LIG X 999      44.203 132.168  19.989  1.00  0.00     0.001 A 
HETATM   12  C15 LIG X 999      43.286 131.787  20.974  1.00  0.00     0.012 A 
HETATM   13  C13 LIG X 999      42.642 130.287  22.784  1.00  0.00     0.049 A 
BRANCH   5  14
HETATM   14  N1  LIG X 999      44.337 127.288  24.240  1.00  0.00    -0.185 NA
HETATM   15  C7  LIG X 999      44.638 125.962  23.795  1.00  0.00     0.387 C 
HETATM   16  O1  LIG X 999      45.082 125.125  24.624  1.00  0.00    -0.236 OA
BRANCH  15  17
HETATM   17  O2  LIG X 999      44.403 125.591  22.465  1.00  0.00    -0.295 OA
BRANCH  17  18
HETATM   18  C8  LIG X 999      43.432 124.621  22.072  1.00  0.00     0.153 C 
HETATM   19  C9  LIG X 999      43.957 123.210  22.358  1.00  0.00     0.042 C 
BRANCH  18  20
HETATM   20  C10 LIG X 999      42.133 124.892  22.839  1.00  0.00     0.199 C 
BRANCH  20  21
HETATM   21  O3  LIG X 999      41.029 124.438  22.083  1.00  0.00    -0.393 OA
HETATM   22  C11 LIG X 999      40.278 123.529  22.855  1.00  0.00     0.201 C 
ENDBRANCH  20  21
ENDBRANCH  18  20
ENDBRANCH  17  18
ENDBRANCH  15  17
ENDBRANCH   5  14
ENDBRANCH   1   4
TORSDOF 6
