REMARK VINA RESULT:      -6.5      5.488      7.991
REMARK  2 active torsions:
REMARK  status: ('A' for Active; 'I' for Inactive)
REMARK    1  A    between atoms: C2_5  and  C3_6 
REMARK    2  A    between atoms: N3_17  and  C13_18 
ROOT
HETATM    1  H1  LIG X 999      44.538 131.513  24.108  1.00  0.00     0.190 HD
HETATM    2  N1  LIG X 999      44.578 130.601  24.613  1.00  0.00    -0.260 NA
HETATM    3  C1  LIG X 999      44.603 129.459  24.002  1.00  0.00     0.269 A 
HETATM    4  O1  LIG X 999      44.607 128.307  24.625  1.00  0.00    -0.255 OA
HETATM    5  C2  LIG X 999      44.575 127.401  23.669  1.00  0.00     0.203 A 
HETATM    6  N2  LIG X 999      44.566 127.978  22.446  1.00  0.00    -0.137 NA
HETATM    7  N3  LIG X 999      44.586 129.284  22.664  1.00  0.00    -0.189 N 
ENDROOT
BRANCH   5   8
HETATM    8  C3  LIG X 999      44.596 125.936  23.888  1.00  0.00     0.030 A 
HETATM    9  C4  LIG X 999      45.832 125.343  24.201  1.00  0.00     0.017 A 
HETATM   10  C5  LIG X 999      45.921 123.984  24.497  1.00  0.00     0.002 A 
HETATM   11  C6  LIG X 999      44.781 123.187  24.487  1.00  0.00     0.012 A 
HETATM   12  C7  LIG X 999      43.537 123.737  24.152  1.00  0.00    -0.025 A 
HETATM   13  C8  LIG X 999      42.399 122.915  24.120  1.00  0.00     0.012 A 
HETATM   14  C12 LIG X 999      43.431 125.120  23.832  1.00  0.00    -0.011 A 
HETATM   15  C9  LIG X 999      41.161 123.442  23.753  1.00  0.00     0.001 A 
HETATM   16  C10 LIG X 999      41.051 124.786  23.401  1.00  0.00     0.001 A 
HETATM   17  C11 LIG X 999      42.171 125.620  23.431  1.00  0.00     0.013 A 
ENDBRANCH   5   8
BRANCH   7  18
HETATM   18  C13 LIG X 999      44.619 130.267  21.617  1.00  0.00     0.107 A 
HETATM   19  C14 LIG X 999      45.719 130.353  20.751  1.00  0.00     0.054 A 
HETATM   20  C15 LIG X 999      45.712 131.296  19.721  1.00  0.00     0.122 A 
HETATM   21  N4  LIG X 999      44.640 132.115  19.552  1.00  0.00    -0.230 NA
HETATM   22  C16 LIG X 999      43.553 132.043  20.365  1.00  0.00     0.251 A 
HETATM   23  F1  LIG X 999      42.505 132.876  20.160  1.00  0.00    -0.181 F 
HETATM   24  C17 LIG X 999      43.518 131.112  21.408  1.00  0.00     0.203 A 
HETATM   25  F2  LIG X 999      42.432 131.047  22.220  1.00  0.00    -0.199 F 
ENDBRANCH   7  18
TORSDOF 2
