REMARK VINA RESULT:      -7.3      4.212      6.693
REMARK  1 active torsions:
REMARK  status: ('A' for Active; 'I' for Inactive)
REMARK    1  A    between atoms: C10_11  and  N2_12 
ROOT
HETATM    1  N2  LIG X 999      47.105 129.029  14.533  1.00  0.00    -0.052 NA
HETATM    2  N3  LIG X 999      47.791 129.612  13.693  1.00  0.00    -0.160 NA
HETATM    3  N4  LIG X 999      48.477 130.192  12.853  1.00  0.00     0.068 N 
ENDROOT
BRANCH   1   4
HETATM    4  C10 LIG X 999      46.253 129.750  15.426  1.00  0.00     0.186 C 
HETATM    5  N1  LIG X 999      46.538 129.817  16.749  1.00  0.00    -0.226 NA
HETATM    6  C9  LIG X 999      45.742 130.476  17.632  1.00  0.00     0.071 C 
HETATM    7  C8  LIG X 999      46.148 130.549  18.963  1.00  0.00     0.033 C 
HETATM    8  C14 LIG X 999      44.536 131.097  17.199  1.00  0.00     0.010 C 
HETATM    9  C7  LIG X 999      45.375 131.218  19.901  1.00  0.00     0.014 C 
HETATM   10  C5  LIG X 999      44.125 131.733  19.547  1.00  0.00    -0.025 C 
HETATM   11  C4  LIG X 999      43.655 131.621  18.205  1.00  0.00    -0.013 C 
HETATM   12  C6  LIG X 999      43.316 132.311  20.538  1.00  0.00     0.012 C 
HETATM   13  C3  LIG X 999      42.297 131.940  17.966  1.00  0.00     0.013 C 
HETATM   14  C2  LIG X 999      41.499 132.500  18.966  1.00  0.00     0.001 C 
HETATM   15  C1  LIG X 999      42.016 132.711  20.241  1.00  0.00     0.001 C 
HETATM   16  C12 LIG X 999      44.325 131.178  15.784  1.00  0.00    -0.045 C 
HETATM   17  C11 LIG X 999      45.157 130.441  14.923  1.00  0.00     0.063 C 
HETATM   18  C13 LIG X 999      43.357 132.126  15.119  1.00  0.00     0.049 C 
ENDBRANCH   1   4
TORSDOF 1
