REMARK VINA RESULT:      -7.9      4.893      7.340
REMARK  5 active torsions:
REMARK  status: ('A' for Active; 'I' for Inactive)
REMARK    1  A    between atoms: C3_3  and  O1_4 
REMARK    2  A    between atoms: O1_4  and  C4_5 
REMARK    3  A    between atoms: C5_6  and  C6_7 
REMARK    4  A    between atoms: C6_7  and  O2_8 
REMARK    5  A    between atoms: C10_13  and  N1_14 
ROOT
HETATM    1  C1  LIG X 999      43.031 132.098  23.907  1.00  0.00     0.014 C 
HETATM    2  C2  LIG X 999      42.939 131.588  22.819  1.00  0.00    -0.091 C 
HETATM    3  C3  LIG X 999      42.826 130.969  21.498  1.00  0.00     0.268 C 
ENDROOT
BRANCH   3   4
HETATM    4  O1  LIG X 999      43.185 131.923  20.503  1.00  0.00    -0.339 OA
BRANCH   4   5
HETATM    5  C4  LIG X 999      43.915 131.630  19.340  1.00  0.00     0.079 A 
HETATM    6  C5  LIG X 999      45.223 131.120  19.471  1.00  0.00    -0.001 A 
HETATM    7  C7  LIG X 999      45.985 130.846  18.324  1.00  0.00     0.024 A 
HETATM    8  C8  LIG X 999      45.449 131.048  17.046  1.00  0.00    -0.023 A 
HETATM    9  C9  LIG X 999      46.209 130.765  15.899  1.00  0.00     0.046 A 
HETATM   10  C13 LIG X 999      44.132 131.543  16.910  1.00  0.00    -0.023 A 
HETATM   11  C10 LIG X 999      45.664 130.969  14.617  1.00  0.00     0.094 A 
HETATM   12  C11 LIG X 999      44.359 131.459  14.494  1.00  0.00     0.035 A 
HETATM   13  C12 LIG X 999      43.597 131.744  15.630  1.00  0.00     0.014 A 
HETATM   14  C14 LIG X 999      43.376 131.831  18.054  1.00  0.00     0.049 A 
BRANCH   6  15
HETATM   15  C6  LIG X 999      45.833 130.919  20.835  1.00  0.00     0.205 C 
BRANCH  15  16
HETATM   16  O2  LIG X 999      46.230 132.152  21.370  1.00  0.00    -0.396 OA
HETATM   17  H6  LIG X 999      45.406 132.598  21.697  1.00  0.00     0.209 HD
ENDBRANCH  15  16
ENDBRANCH   6  15
BRANCH  11  18
HETATM   18  N1  LIG X 999      46.411 130.690  13.426  1.00  0.00    -0.073 NA
HETATM   19  N2  LIG X 999      47.462 130.046  13.442  1.00  0.00    -0.162 NA
HETATM   20  N3  LIG X 999      48.510 129.404  13.456  1.00  0.00     0.068 N 
ENDBRANCH  11  18
ENDBRANCH   4   5
ENDBRANCH   3   4
TORSDOF 5
