MODEL 1
REMARK VINA RESULT:      -6.6      0.000      0.000
REMARK  6 active torsions:
REMARK  status: ('A' for Active; 'I' for Inactive)
REMARK    1  A    between atoms: S1_2  and  C1_3 
REMARK    2  A    between atoms: C1_3  and  N2_14 
REMARK    3  A    between atoms: N1_4  and  C2_5 
REMARK    4  A    between atoms: C3_6  and  C4_7 
REMARK    5  A    between atoms: C4_7  and  O2_9 
REMARK    6  A    between atoms: N2_14  and  C8_16 
ROOT
HETATM    1  C1  LIG X 999      43.539 131.186  23.901  1.00  0.00     0.164 C 
HETATM    2  N1  LIG X 999      43.465 130.069  24.566  1.00  0.00    -0.224 NA
ENDROOT
BRANCH   1   3
HETATM    3  S1  LIG X 999      44.426 132.557  24.624  1.00  0.00    -0.105 SA
HETATM    4  H1  LIG X 999      44.232 132.060  25.927  1.00  0.00     0.110 HD
ENDBRANCH   1   3
BRANCH   1   5
HETATM    5  N2  LIG X 999      42.956 131.347  22.599  1.00  0.00    -0.336 N 
HETATM    6  H7  LIG X 999      41.963 131.667  22.553  1.00  0.00     0.168 HD
BRANCH   5   7
HETATM    7  C8  LIG X 999      43.697 131.240  21.370  1.00  0.00     0.034 A 
HETATM    8  C9  LIG X 999      45.036 130.809  21.357  1.00  0.00     0.030 A 
HETATM    9  C10 LIG X 999      45.732 130.688  20.151  1.00  0.00     0.014 A 
HETATM   10  C11 LIG X 999      45.105 131.010  18.940  1.00  0.00    -0.026 A 
HETATM   11  C12 LIG X 999      45.792 130.888  17.723  1.00  0.00     0.012 A 
HETATM   12  C16 LIG X 999      43.764 131.464  18.945  1.00  0.00    -0.024 A 
HETATM   13  C13 LIG X 999      45.157 131.214  16.522  1.00  0.00     0.001 A 
HETATM   14  C14 LIG X 999      43.833 131.662  16.526  1.00  0.00     0.001 A 
HETATM   15  C15 LIG X 999      43.136 131.788  17.732  1.00  0.00     0.012 A 
HETATM   16  C17 LIG X 999      43.074 131.583  20.160  1.00  0.00     0.041 A 
ENDBRANCH   5   7
ENDBRANCH   1   5
BRANCH   2  17
HETATM   17  C2  LIG X 999      42.696 128.912  24.201  1.00  0.00     0.083 A 
HETATM   18  C3  LIG X 999      43.284 127.707  23.818  1.00  0.00     0.108 A 
HETATM   19  S2  LIG X 999      42.052 126.599  23.522  1.00  0.00    -0.093 SA
HETATM   20  C6  LIG X 999      40.772 127.621  23.898  1.00  0.00     0.053 A 
HETATM   21  C7  LIG X 999      41.293 128.854  24.263  1.00  0.00     0.040 A 
BRANCH  18  22
HETATM   22  C4  LIG X 999      44.719 127.437  23.646  1.00  0.00     0.302 C 
HETATM   23  O1  LIG X 999      45.503 127.589  24.622  1.00  0.00    -0.259 OA
BRANCH  22  24
HETATM   24  O2  LIG X 999      45.207 127.008  22.408  1.00  0.00    -0.322 OA
HETATM   25  C5  LIG X 999      46.200 125.998  22.283  1.00  0.00     0.213 C 
ENDBRANCH  22  24
ENDBRANCH  18  22
ENDBRANCH   2  17
TORSDOF 6
ENDMDL
MODEL 2
REMARK VINA RESULT:      -6.3      1.735      2.923
REMARK  6 active torsions:
REMARK  status: ('A' for Active; 'I' for Inactive)
REMARK    1  A    between atoms: S1_2  and  C1_3 
REMARK    2  A    between atoms: C1_3  and  N2_14 
REMARK    3  A    between atoms: N1_4  and  C2_5 
REMARK    4  A    between atoms: C3_6  and  C4_7 
REMARK    5  A    between atoms: C4_7  and  O2_9 
REMARK    6  A    between atoms: N2_14  and  C8_16 
ROOT
HETATM    1  C1  LIG X 999      43.765 130.586  23.854  1.00  0.00     0.164 C 
HETATM    2  N1  LIG X 999      43.439 129.400  24.279  1.00  0.00    -0.224 NA
ENDROOT
BRANCH   1   3
HETATM    3  S1  LIG X 999      43.004 132.011  24.616  1.00  0.00    -0.105 SA
HETATM    4  H1  LIG X 999      42.273 132.306  23.450  1.00  0.00     0.110 HD
ENDBRANCH   1   3
BRANCH   1   5
HETATM    5  N2  LIG X 999      44.731 130.791  22.811  1.00  0.00    -0.336 N 
HETATM    6  H7  LIG X 999      45.737 130.640  23.050  1.00  0.00     0.168 HD
BRANCH   5   7
HETATM    7  C8  LIG X 999      44.385 131.040  21.436  1.00  0.00     0.034 A 
HETATM    8  C9  LIG X 999      43.151 131.615  21.084  1.00  0.00     0.030 A 
HETATM    9  C10 LIG X 999      42.844 131.872  19.745  1.00  0.00     0.014 A 
HETATM   10  C11 LIG X 999      43.759 131.546  18.736  1.00  0.00    -0.026 A 
HETATM   11  C12 LIG X 999      43.463 131.804  17.389  1.00  0.00     0.012 A 
HETATM   12  C16 LIG X 999      44.996 130.948  19.079  1.00  0.00    -0.024 A 
HETATM   13  C13 LIG X 999      44.383 131.472  16.391  1.00  0.00     0.001 A 
HETATM   14  C14 LIG X 999      45.604 130.881  16.730  1.00  0.00     0.001 A 
HETATM   15  C15 LIG X 999      45.912 130.619  18.068  1.00  0.00     0.012 A 
HETATM   16  C17 LIG X 999      45.295 130.693  20.425  1.00  0.00     0.041 A 
ENDBRANCH   5   7
ENDBRANCH   1   5
BRANCH   2  17
HETATM   17  C2  LIG X 999      43.851 128.148  23.709  1.00  0.00     0.083 A 
HETATM   18  C3  LIG X 999      42.971 127.087  23.505  1.00  0.00     0.108 A 
HETATM   19  S2  LIG X 999      43.827 125.833  22.778  1.00  0.00    -0.093 SA
HETATM   20  C6  LIG X 999      45.306 126.628  22.692  1.00  0.00     0.053 A 
HETATM   21  C7  LIG X 999      45.151 127.895  23.236  1.00  0.00     0.040 A 
BRANCH  18  22
HETATM   22  C4  LIG X 999      41.553 127.026  23.891  1.00  0.00     0.302 C 
HETATM   23  O1  LIG X 999      40.774 127.957  23.551  1.00  0.00    -0.259 OA
BRANCH  22  24
HETATM   24  O2  LIG X 999      41.074 125.936  24.624  1.00  0.00    -0.322 OA
HETATM   25  C5  LIG X 999      40.109 125.028  24.108  1.00  0.00     0.213 C 
ENDBRANCH  22  24
ENDBRANCH  18  22
ENDBRANCH   2  17
TORSDOF 6
ENDMDL
MODEL 3
REMARK VINA RESULT:      -5.7      2.391      4.016
REMARK  6 active torsions:
REMARK  status: ('A' for Active; 'I' for Inactive)
REMARK    1  A    between atoms: S1_2  and  C1_3 
REMARK    2  A    between atoms: C1_3  and  N2_14 
REMARK    3  A    between atoms: N1_4  and  C2_5 
REMARK    4  A    between atoms: C3_6  and  C4_7 
REMARK    5  A    between atoms: C4_7  and  O2_9 
REMARK    6  A    between atoms: N2_14  and  C8_16 
ROOT
HETATM    1  C1  LIG X 999      45.256 130.843  20.891  1.00  0.00     0.164 C 
HETATM    2  N1  LIG X 999      44.926 130.362  22.055  1.00  0.00    -0.224 NA
ENDROOT
BRANCH   1   3
HETATM    3  S1  LIG X 999      45.257 132.614  20.663  1.00  0.00    -0.105 SA
HETATM    4  H1  LIG X 999      46.591 132.606  20.217  1.00  0.00     0.110 HD
ENDBRANCH   1   3
BRANCH   1   5
HETATM    5  N2  LIG X 999      45.641 130.002  19.792  1.00  0.00    -0.336 N 
HETATM    6  H7  LIG X 999      45.897 129.013  20.010  1.00  0.00     0.168 HD
BRANCH   5   7
HETATM    7  C8  LIG X 999      45.549 130.396  18.411  1.00  0.00     0.034 A 
HETATM    8  C9  LIG X 999      44.593 131.334  17.979  1.00  0.00     0.030 A 
HETATM    9  C10 LIG X 999      44.535 131.723  16.638  1.00  0.00     0.014 A 
HETATM   10  C11 LIG X 999      45.421 131.170  15.705  1.00  0.00    -0.026 A 
HETATM   11  C12 LIG X 999      45.375 131.556  14.356  1.00  0.00     0.012 A 
HETATM   12  C16 LIG X 999      46.373 130.210  16.126  1.00  0.00    -0.024 A 
HETATM   13  C13 LIG X 999      46.263 130.996  13.435  1.00  0.00     0.001 A 
HETATM   14  C14 LIG X 999      47.203 130.049  13.851  1.00  0.00     0.001 A 
HETATM   15  C15 LIG X 999      47.261 129.655  15.191  1.00  0.00     0.012 A 
HETATM   16  C17 LIG X 999      46.424 129.826  17.474  1.00  0.00     0.041 A 
ENDBRANCH   5   7
ENDBRANCH   1   5
BRANCH   2  17
HETATM   17  C2  LIG X 999      44.751 128.975  22.384  1.00  0.00     0.083 A 
HETATM   18  C3  LIG X 999      43.714 128.518  23.195  1.00  0.00     0.108 A 
HETATM   19  S2  LIG X 999      43.831 126.843  23.295  1.00  0.00    -0.093 SA
HETATM   20  C6  LIG X 999      45.174 126.679  22.297  1.00  0.00     0.053 A 
HETATM   21  C7  LIG X 999      45.554 127.942  21.868  1.00  0.00     0.040 A 
BRANCH  18  22
HETATM   22  C4  LIG X 999      42.710 129.336  23.893  1.00  0.00     0.302 C 
HETATM   23  O1  LIG X 999      41.493 129.014  23.832  1.00  0.00    -0.259 OA
BRANCH  22  24
HETATM   24  O2  LIG X 999      43.108 130.458  24.625  1.00  0.00    -0.322 OA
HETATM   25  C5  LIG X 999      42.689 131.777  24.298  1.00  0.00     0.213 C 
ENDBRANCH  22  24
ENDBRANCH  18  22
ENDBRANCH   2  17
TORSDOF 6
ENDMDL
MODEL 4
REMARK VINA RESULT:      -5.5      1.626      2.772
REMARK  6 active torsions:
REMARK  status: ('A' for Active; 'I' for Inactive)
REMARK    1  A    between atoms: S1_2  and  C1_3 
REMARK    2  A    between atoms: C1_3  and  N2_14 
REMARK    3  A    between atoms: N1_4  and  C2_5 
REMARK    4  A    between atoms: C3_6  and  C4_7 
REMARK    5  A    between atoms: C4_7  and  O2_9 
REMARK    6  A    between atoms: N2_14  and  C8_16 
ROOT
HETATM    1  C1  LIG X 999      44.995 131.284  21.350  1.00  0.00     0.164 C 
HETATM    2  N1  LIG X 999      44.998 130.566  22.436  1.00  0.00    -0.224 NA
ENDROOT
BRANCH   1   3
HETATM    3  S1  LIG X 999      46.447 132.246  20.954  1.00  0.00    -0.105 SA
HETATM    4  H1  LIG X 999      47.069 131.899  22.168  1.00  0.00     0.110 HD
ENDBRANCH   1   3
BRANCH   1   5
HETATM    5  N2  LIG X 999      43.877 131.312  20.449  1.00  0.00    -0.336 N 
HETATM    6  H7  LIG X 999      42.927 131.439  20.865  1.00  0.00     0.168 HD
BRANCH   5   7
HETATM    7  C8  LIG X 999      44.004 131.327  19.016  1.00  0.00     0.034 A 
HETATM    8  C9  LIG X 999      42.989 131.856  18.197  1.00  0.00     0.030 A 
HETATM    9  C10 LIG X 999      43.141 131.885  16.808  1.00  0.00     0.014 A 
HETATM   10  C11 LIG X 999      44.303 131.373  16.214  1.00  0.00    -0.026 A 
HETATM   11  C12 LIG X 999      44.468 131.401  14.821  1.00  0.00     0.012 A 
HETATM   12  C16 LIG X 999      45.321 130.821  17.029  1.00  0.00    -0.024 A 
HETATM   13  C13 LIG X 999      45.630 130.887  14.241  1.00  0.00     0.001 A 
HETATM   14  C14 LIG X 999      46.635 130.342  15.046  1.00  0.00     0.001 A 
HETATM   15  C15 LIG X 999      46.484 130.308  16.435  1.00  0.00     0.012 A 
HETATM   16  C17 LIG X 999      45.159 130.796  18.422  1.00  0.00     0.041 A 
ENDBRANCH   5   7
ENDBRANCH   1   5
BRANCH   2  17
HETATM   17  C2  LIG X 999      43.886 129.834  22.975  1.00  0.00     0.083 A 
HETATM   18  C3  LIG X 999      43.958 128.479  23.293  1.00  0.00     0.108 A 
HETATM   19  S2  LIG X 999      42.474 128.015  23.936  1.00  0.00    -0.093 SA
HETATM   20  C6  LIG X 999      41.738 129.524  23.842  1.00  0.00     0.053 A 
HETATM   21  C7  LIG X 999      42.649 130.419  23.301  1.00  0.00     0.040 A 
BRANCH  18  22
HETATM   22  C4  LIG X 999      45.099 127.577  23.071  1.00  0.00     0.302 C 
HETATM   23  O1  LIG X 999      45.461 127.309  21.893  1.00  0.00    -0.259 OA
BRANCH  22  24
HETATM   24  O2  LIG X 999      45.780 127.029  24.162  1.00  0.00    -0.322 OA
HETATM   25  C5  LIG X 999      46.885 126.147  24.013  1.00  0.00     0.213 C 
ENDBRANCH  22  24
ENDBRANCH  18  22
ENDBRANCH   2  17
TORSDOF 6
ENDMDL
MODEL 5
REMARK VINA RESULT:      -4.9      2.956      4.375
REMARK  6 active torsions:
REMARK  status: ('A' for Active; 'I' for Inactive)
REMARK    1  A    between atoms: S1_2  and  C1_3 
REMARK    2  A    between atoms: C1_3  and  N2_14 
REMARK    3  A    between atoms: N1_4  and  C2_5 
REMARK    4  A    between atoms: C3_6  and  C4_7 
REMARK    5  A    between atoms: C4_7  and  O2_9 
REMARK    6  A    between atoms: N2_14  and  C8_16 
ROOT
HETATM    1  C1  LIG X 999      41.771 127.151  24.374  1.00  0.00     0.164 C 
HETATM    2  N1  LIG X 999      41.825 125.864  24.188  1.00  0.00    -0.224 NA
ENDROOT
BRANCH   1   3
HETATM    3  S1  LIG X 999      40.170 127.936  24.483  1.00  0.00    -0.105 SA
HETATM    4  H1  LIG X 999      39.596 126.794  25.072  1.00  0.00     0.110 HD
ENDBRANCH   1   3
BRANCH   1   5
HETATM    5  N2  LIG X 999      42.950 127.958  24.517  1.00  0.00    -0.336 N 
HETATM    6  H7  LIG X 999      43.459 127.908  25.428  1.00  0.00     0.168 HD
BRANCH   5   7
HETATM    7  C8  LIG X 999      43.546 128.705  23.441  1.00  0.00     0.034 A 
HETATM    8  C9  LIG X 999      44.778 128.322  22.879  1.00  0.00     0.030 A 
HETATM    9  C10 LIG X 999      45.329 129.045  21.818  1.00  0.00     0.014 A 
HETATM   10  C11 LIG X 999      44.665 130.170  21.310  1.00  0.00    -0.026 A 
HETATM   11  C12 LIG X 999      45.207 130.901  20.242  1.00  0.00     0.012 A 
HETATM   12  C16 LIG X 999      43.435 130.574  21.883  1.00  0.00    -0.024 A 
HETATM   13  C13 LIG X 999      44.537 132.022  19.746  1.00  0.00     0.001 A 
HETATM   14  C14 LIG X 999      43.322 132.421  20.312  1.00  0.00     0.001 A 
HETATM   15  C15 LIG X 999      42.771 131.702  21.376  1.00  0.00     0.012 A 
HETATM   16  C17 LIG X 999      42.890 129.843  22.948  1.00  0.00     0.041 A 
ENDBRANCH   5   7
ENDBRANCH   1   5
BRANCH   2  17
HETATM   17  C2  LIG X 999      43.010 125.087  23.954  1.00  0.00     0.083 A 
HETATM   18  C3  LIG X 999      43.079 124.093  22.980  1.00  0.00     0.108 A 
HETATM   19  S2  LIG X 999      44.638 123.460  22.992  1.00  0.00    -0.093 SA
HETATM   20  C6  LIG X 999      45.245 124.452  24.206  1.00  0.00     0.053 A 
HETATM   21  C7  LIG X 999      44.228 125.299  24.624  1.00  0.00     0.040 A 
BRANCH  18  22
HETATM   22  C4  LIG X 999      41.986 123.623  22.116  1.00  0.00     0.302 C 
HETATM   23  O1  LIG X 999      41.764 124.205  21.020  1.00  0.00    -0.259 OA
BRANCH  22  24
HETATM   24  O2  LIG X 999      41.205 122.531  22.506  1.00  0.00    -0.322 OA
HETATM   25  C5  LIG X 999      39.919 122.678  23.096  1.00  0.00     0.213 C 
ENDBRANCH  22  24
ENDBRANCH  18  22
ENDBRANCH   2  17
TORSDOF 6
ENDMDL
MODEL 6
REMARK VINA RESULT:      -4.6      2.237      3.530
REMARK  6 active torsions:
REMARK  status: ('A' for Active; 'I' for Inactive)
REMARK    1  A    between atoms: S1_2  and  C1_3 
REMARK    2  A    between atoms: C1_3  and  N2_14 
REMARK    3  A    between atoms: N1_4  and  C2_5 
REMARK    4  A    between atoms: C3_6  and  C4_7 
REMARK    5  A    between atoms: C4_7  and  O2_9 
REMARK    6  A    between atoms: N2_14  and  C8_16 
ROOT
HETATM    1  C1  LIG X 999      42.815 131.749  20.321  1.00  0.00     0.164 C 
HETATM    2  N1  LIG X 999      42.435 131.562  21.552  1.00  0.00    -0.224 NA
ENDROOT
BRANCH   1   3
HETATM    3  S1  LIG X 999      41.587 131.691  19.025  1.00  0.00    -0.105 SA
HETATM    4  H1  LIG X 999      40.571 131.348  19.936  1.00  0.00     0.110 HD
ENDBRANCH   1   3
BRANCH   1   5
HETATM    5  N2  LIG X 999      44.180 132.023  19.970  1.00  0.00    -0.336 N 
HETATM    6  H7  LIG X 999      44.744 132.595  20.639  1.00  0.00     0.168 HD
BRANCH   5   7
HETATM    7  C8  LIG X 999      44.851 131.436  18.840  1.00  0.00     0.034 A 
HETATM    8  C9  LIG X 999      45.789 130.399  19.002  1.00  0.00     0.030 A 
HETATM    9  C10 LIG X 999      46.411 129.825  17.891  1.00  0.00     0.014 A 
HETATM   10  C11 LIG X 999      46.117 130.287  16.601  1.00  0.00    -0.026 A 
HETATM   11  C12 LIG X 999      46.733 129.714  15.477  1.00  0.00     0.012 A 
HETATM   12  C16 LIG X 999      45.190 131.343  16.429  1.00  0.00    -0.024 A 
HETATM   13  C13 LIG X 999      46.434 130.184  14.196  1.00  0.00     0.001 A 
HETATM   14  C14 LIG X 999      45.518 131.227  14.027  1.00  0.00     0.001 A 
HETATM   15  C15 LIG X 999      44.897 131.806  15.137  1.00  0.00     0.012 A 
HETATM   16  C17 LIG X 999      44.571 131.913  17.551  1.00  0.00     0.041 A 
ENDBRANCH   5   7
ENDBRANCH   1   5
BRANCH   2  17
HETATM   17  C2  LIG X 999      43.292 131.451  22.699  1.00  0.00     0.083 A 
HETATM   18  C3  LIG X 999      43.481 130.253  23.385  1.00  0.00     0.108 A 
HETATM   19  S2  LIG X 999      44.585 130.531  24.624  1.00  0.00    -0.093 SA
HETATM   20  C6  LIG X 999      44.851 132.157  24.291  1.00  0.00     0.053 A 
HETATM   21  C7  LIG X 999      44.074 132.509  23.196  1.00  0.00     0.040 A 
BRANCH  18  22
HETATM   22  C4  LIG X 999      42.812 128.969  23.125  1.00  0.00     0.302 C 
HETATM   23  O1  LIG X 999      41.579 128.851  23.358  1.00  0.00    -0.259 OA
BRANCH  22  24
HETATM   24  O2  LIG X 999      43.542 127.890  22.616  1.00  0.00    -0.322 OA
HETATM   25  C5  LIG X 999      44.962 127.888  22.547  1.00  0.00     0.213 C 
ENDBRANCH  22  24
ENDBRANCH  18  22
ENDBRANCH   2  17
TORSDOF 6
ENDMDL
MODEL 7
REMARK VINA RESULT:      -4.1      3.110      5.110
REMARK  6 active torsions:
REMARK  status: ('A' for Active; 'I' for Inactive)
REMARK    1  A    between atoms: S1_2  and  C1_3 
REMARK    2  A    between atoms: C1_3  and  N2_14 
REMARK    3  A    between atoms: N1_4  and  C2_5 
REMARK    4  A    between atoms: C3_6  and  C4_7 
REMARK    5  A    between atoms: C4_7  and  O2_9 
REMARK    6  A    between atoms: N2_14  and  C8_16 
ROOT
HETATM    1  C1  LIG X 999      45.110 130.968  19.694  1.00  0.00     0.164 C 
HETATM    2  N1  LIG X 999      44.491 131.387  20.760  1.00  0.00    -0.224 NA
ENDROOT
BRANCH   1   3
HETATM    3  S1  LIG X 999      46.784 130.367  19.855  1.00  0.00    -0.105 SA
HETATM    4  H1  LIG X 999      47.180 131.515  20.566  1.00  0.00     0.110 HD
ENDBRANCH   1   3
BRANCH   1   5
HETATM    5  N2  LIG X 999      44.488 130.949  18.400  1.00  0.00    -0.336 N 
HETATM    6  H7  LIG X 999      43.443 130.935  18.368  1.00  0.00     0.168 HD
BRANCH   5   7
HETATM    7  C8  LIG X 999      45.207 131.101  17.163  1.00  0.00     0.034 A 
HETATM    8  C9  LIG X 999      45.246 132.333  16.485  1.00  0.00     0.030 A 
HETATM    9  C10 LIG X 999      45.970 132.468  15.297  1.00  0.00     0.014 A 
HETATM   10  C11 LIG X 999      46.655 131.370  14.761  1.00  0.00    -0.026 A 
HETATM   11  C12 LIG X 999      47.389 131.494  13.571  1.00  0.00     0.012 A 
HETATM   12  C16 LIG X 999      46.605 130.120  15.425  1.00  0.00    -0.024 A 
HETATM   13  C13 LIG X 999      48.066 130.391  13.045  1.00  0.00     0.001 A 
HETATM   14  C14 LIG X 999      48.017 129.157  13.701  1.00  0.00     0.001 A 
HETATM   15  C15 LIG X 999      47.290 129.020  14.886  1.00  0.00     0.012 A 
HETATM   16  C17 LIG X 999      45.875 129.995  16.616  1.00  0.00     0.041 A 
ENDBRANCH   5   7
ENDBRANCH   1   5
BRANCH   2  17
HETATM   17  C2  LIG X 999      43.200 132.014  20.802  1.00  0.00     0.083 A 
HETATM   18  C3  LIG X 999      42.473 132.164  21.982  1.00  0.00     0.108 A 
HETATM   19  S2  LIG X 999      41.050 132.984  21.616  1.00  0.00    -0.093 SA
HETATM   20  C6  LIG X 999      41.350 133.178  19.973  1.00  0.00     0.053 A 
HETATM   21  C7  LIG X 999      42.578 132.600  19.685  1.00  0.00     0.040 A 
BRANCH  18  22
HETATM   22  C4  LIG X 999      42.837 131.662  23.316  1.00  0.00     0.302 C 
HETATM   23  O1  LIG X 999      43.575 132.358  24.064  1.00  0.00    -0.259 OA
BRANCH  22  24
HETATM   24  O2  LIG X 999      42.359 130.422  23.750  1.00  0.00    -0.322 OA
HETATM   25  C5  LIG X 999      43.077 129.211  23.556  1.00  0.00     0.213 C 
ENDBRANCH  22  24
ENDBRANCH  18  22
ENDBRANCH   2  17
TORSDOF 6
ENDMDL
MODEL 8
REMARK VINA RESULT:      -3.9      3.133      5.134
REMARK  6 active torsions:
REMARK  status: ('A' for Active; 'I' for Inactive)
REMARK    1  A    between atoms: S1_2  and  C1_3 
REMARK    2  A    between atoms: C1_3  and  N2_14 
REMARK    3  A    between atoms: N1_4  and  C2_5 
REMARK    4  A    between atoms: C3_6  and  C4_7 
REMARK    5  A    between atoms: C4_7  and  O2_9 
REMARK    6  A    between atoms: N2_14  and  C8_16 
ROOT
HETATM    1  C1  LIG X 999      43.134 131.985  18.682  1.00  0.00     0.164 C 
HETATM    2  N1  LIG X 999      43.049 131.807  19.969  1.00  0.00    -0.224 NA
ENDROOT
BRANCH   1   3
HETATM    3  S1  LIG X 999      41.684 131.697  17.680  1.00  0.00    -0.105 SA
HETATM    4  H1  LIG X 999      40.910 132.576  18.459  1.00  0.00     0.110 HD
ENDBRANCH   1   3
BRANCH   1   5
HETATM    5  N2  LIG X 999      44.342 132.425  18.044  1.00  0.00    -0.336 N 
HETATM    6  H7  LIG X 999      44.711 133.366  18.310  1.00  0.00     0.168 HD
BRANCH   5   7
HETATM    7  C8  LIG X 999      45.144 131.594  17.185  1.00  0.00     0.034 A 
HETATM    8  C9  LIG X 999      45.427 130.256  17.517  1.00  0.00     0.030 A 
HETATM    9  C10 LIG X 999      46.187 129.458  16.658  1.00  0.00     0.014 A 
HETATM   10  C11 LIG X 999      46.688 129.986  15.462  1.00  0.00    -0.026 A 
HETATM   11  C12 LIG X 999      47.448 129.192  14.590  1.00  0.00     0.012 A 
HETATM   12  C16 LIG X 999      46.425 131.337  15.129  1.00  0.00    -0.024 A 
HETATM   13  C13 LIG X 999      47.943 129.731  13.400  1.00  0.00     0.001 A 
HETATM   14  C14 LIG X 999      47.684 131.066  13.072  1.00  0.00     0.001 A 
HETATM   15  C15 LIG X 999      46.928 131.868  13.931  1.00  0.00     0.012 A 
HETATM   16  C17 LIG X 999      45.662 132.132  15.997  1.00  0.00     0.041 A 
ENDBRANCH   5   7
ENDBRANCH   1   5
BRANCH   2  17
HETATM   17  C2  LIG X 999      44.133 131.870  20.910  1.00  0.00     0.083 A 
HETATM   18  C3  LIG X 999      44.000 131.477  22.240  1.00  0.00     0.108 A 
HETATM   19  S2  LIG X 999      45.496 131.657  22.988  1.00  0.00    -0.093 SA
HETATM   20  C6  LIG X 999      46.329 132.208  21.635  1.00  0.00     0.053 A 
HETATM   21  C7  LIG X 999      45.441 132.260  20.570  1.00  0.00     0.040 A 
BRANCH  18  22
HETATM   22  C4  LIG X 999      42.771 131.027  22.912  1.00  0.00     0.302 C 
HETATM   23  O1  LIG X 999      41.991 131.878  23.418  1.00  0.00    -0.259 OA
BRANCH  22  24
HETATM   24  O2  LIG X 999      42.470 129.664  22.980  1.00  0.00    -0.322 OA
HETATM   25  C5  LIG X 999      41.852 129.069  24.114  1.00  0.00     0.213 C 
ENDBRANCH  22  24
ENDBRANCH  18  22
ENDBRANCH   2  17
TORSDOF 6
ENDMDL
