REMARK VINA RESULT:      -6.2      2.043      6.234
REMARK  3 active torsions:
REMARK  status: ('A' for Active; 'I' for Inactive)
REMARK    1  A    between atoms: C3_3  and  O1_4 
REMARK    2  A    between atoms: C3_3  and  C4_5 
REMARK    3  A    between atoms: C3_3  and  C14_15 
ROOT
HETATM    1  C1  LIG X 999      46.909 133.047  21.601  1.00  0.00     0.015 C 
HETATM    2  C2  LIG X 999      46.095 132.210  21.299  1.00  0.00    -0.073 C 
HETATM    3  C3  LIG X 999      45.093 131.176  20.929  1.00  0.00     0.154 C 
ENDROOT
BRANCH   3   4
HETATM    4  O1  LIG X 999      45.668 129.920  21.222  1.00  0.00    -0.372 OA
HETATM    5  H2  LIG X 999      45.137 129.492  21.947  1.00  0.00     0.212 HD
ENDBRANCH   3   4
BRANCH   3   6
HETATM    6  C4  LIG X 999      44.787 131.266  19.421  1.00  0.00    -0.010 A 
HETATM    7  C5  LIG X 999      43.568 131.799  18.948  1.00  0.00     0.012 A 
HETATM    8  C6  LIG X 999      43.286 131.852  17.581  1.00  0.00     0.013 A 
HETATM    9  C7  LIG X 999      44.210 131.362  16.651  1.00  0.00    -0.026 A 
HETATM   10  C8  LIG X 999      43.933 131.409  15.275  1.00  0.00     0.012 A 
HETATM   11  C12 LIG X 999      45.431 130.811  17.102  1.00  0.00    -0.025 A 
HETATM   12  C9  LIG X 999      44.861 130.912  14.356  1.00  0.00     0.001 A 
HETATM   13  C10 LIG X 999      46.067 130.364  14.802  1.00  0.00     0.001 A 
HETATM   14  C11 LIG X 999      46.354 130.313  16.170  1.00  0.00     0.012 A 
HETATM   15  C13 LIG X 999      45.707 130.763  18.476  1.00  0.00     0.023 A 
ENDBRANCH   3   6
BRANCH   3  16
HETATM   16  C14 LIG X 999      43.783 131.339  21.806  1.00  0.00    -0.004 C 
HETATM   17  C15 LIG X 999      43.144 129.959  22.100  1.00  0.00     0.019 C 
HETATM   18  C16 LIG X 999      44.125 131.994  23.169  1.00  0.00     0.019 C 
HETATM   19  C17 LIG X 999      42.719 132.220  21.105  1.00  0.00     0.019 C 
ENDBRANCH   3  16
TORSDOF 3
