MODEL 1
REMARK VINA RESULT:      -8.9      0.000      0.000
REMARK  2 active torsions:
REMARK  status: ('A' for Active; 'I' for Inactive)
REMARK    1  A    between atoms: C10_12  and  N3_13 
REMARK       I    between atoms: N3_13  and  C11_14 
REMARK    2  A    between atoms: C11_14  and  C12_16 
ROOT
HETATM    1  C1  LIG X 999      43.565 132.783  24.340  1.00  0.00     0.272 C 
HETATM    2  N1  LIG X 999      43.352 131.491  23.645  1.00  0.00    -0.067 N 
HETATM    3  C2  LIG X 999      42.865 130.493  24.625  1.00  0.00     0.272 C 
HETATM    4  C3  LIG X 999      42.366 131.664  22.532  1.00  0.00     0.276 C 
HETATM    5  C4  LIG X 999      43.151 131.552  21.284  1.00  0.00    -0.024 A 
HETATM    6  C5  LIG X 999      42.708 131.742  19.974  1.00  0.00     0.021 A 
HETATM    7  C6  LIG X 999      43.624 131.560  18.919  1.00  0.00    -0.024 A 
HETATM    8  C7  LIG X 999      43.223 131.736  17.589  1.00  0.00     0.037 A 
HETATM    9  C8  LIG X 999      44.137 131.552  16.542  1.00  0.00     0.072 A 
HETATM   10  C9  LIG X 999      43.688 131.758  15.186  1.00  0.00     0.102 C 
HETATM   11  N2  LIG X 999      43.328 131.923  14.099  1.00  0.00    -0.191 NA
HETATM   12  C10 LIG X 999      45.475 131.199  16.819  1.00  0.00     0.056 A 
HETATM   13  C13 LIG X 999      45.875 131.006  18.153  1.00  0.00     0.043 A 
HETATM   14  C14 LIG X 999      44.967 131.188  19.205  1.00  0.00    -0.023 A 
HETATM   15  C15 LIG X 999      45.371 130.998  20.541  1.00  0.00     0.021 A 
HETATM   16  C16 LIG X 999      44.435 131.194  21.557  1.00  0.00    -0.024 A 
HETATM   17  C17 LIG X 999      44.630 131.032  23.014  1.00  0.00     0.276 C 
ENDROOT
BRANCH  12  18
HETATM   18  N3  LIG X 999      46.409 130.986  15.744  1.00  0.00    -0.323 N 
HETATM   19  C11 LIG X 999      46.418 129.807  14.923  1.00  0.00     0.255 C 
HETATM   20  O1  LIG X 999      45.746 128.793  15.257  1.00  0.00    -0.270 OA
HETATM   21  H11 LIG X 999      47.161 131.694  15.589  1.00  0.00     0.169 HD
BRANCH  19  22
HETATM   22  C12 LIG X 999      47.291 129.745  13.707  1.00  0.00     0.270 C 
HETATM   23 CL1  LIG X 999      48.911 129.137  14.133  1.00  0.00    -0.098 Cl
HETATM   24 CL2  LIG X 999      47.437 131.366  12.987  1.00  0.00    -0.098 Cl
ENDBRANCH  19  22
ENDBRANCH  12  18
TORSDOF 2
ENDMDL
