REMARK VINA RESULT:      -6.7      2.099      3.190
REMARK  4 active torsions:
REMARK  status: ('A' for Active; 'I' for Inactive)
REMARK    1  A    between atoms: C3_3  and  O1_4 
REMARK    2  A    between atoms: O1_4  and  C4_5 
REMARK    3  A    between atoms: C4_5  and  O2_6 
REMARK    4  A    between atoms: C5_8  and  C6_9 
ROOT
HETATM    1  C1  LIG X 999      46.051 130.964  16.226  1.00  0.00     0.014 C 
HETATM    2  C2  LIG X 999      44.895 131.288  16.328  1.00  0.00    -0.091 C 
HETATM    3  C3  LIG X 999      43.490 131.678  16.453  1.00  0.00     0.270 C 
ENDROOT
BRANCH   3   4
HETATM    4  O1  LIG X 999      43.026 131.340  17.753  1.00  0.00    -0.319 OA
BRANCH   4   5
HETATM    5  C4  LIG X 999      42.376 132.259  18.581  1.00  0.00     0.179 C 
HETATM    6  C5  LIG X 999      42.666 132.307  19.887  1.00  0.00     0.075 C 
BRANCH   5   7
HETATM    7  O2  LIG X 999      41.431 133.133  18.040  1.00  0.00    -0.341 OA
HETATM    8  H4  LIG X 999      41.672 134.076  17.756  1.00  0.00     0.220 HD
ENDBRANCH   5   7
BRANCH   6   9
HETATM    9  C6  LIG X 999      43.688 131.435  20.508  1.00  0.00    -0.021 A 
HETATM   10  C7  LIG X 999      44.853 131.178  19.771  1.00  0.00     0.012 A 
HETATM   11  C8  LIG X 999      45.839 130.326  20.270  1.00  0.00     0.002 A 
HETATM   12  C9  LIG X 999      45.683 129.724  21.518  1.00  0.00     0.012 A 
HETATM   13  C10 LIG X 999      44.545 129.988  22.292  1.00  0.00    -0.025 A 
HETATM   14  C11 LIG X 999      44.408 129.400  23.559  1.00  0.00     0.012 A 
HETATM   15  C15 LIG X 999      43.538 130.862  21.801  1.00  0.00    -0.015 A 
HETATM   16  C12 LIG X 999      43.293 129.684  24.350  1.00  0.00     0.001 A 
HETATM   17  C13 LIG X 999      42.314 130.565  23.889  1.00  0.00     0.001 A 
HETATM   18  C14 LIG X 999      42.435 131.157  22.630  1.00  0.00     0.013 A 
ENDBRANCH   6   9
ENDBRANCH   4   5
ENDBRANCH   3   4
TORSDOF 4
