MODEL 1
REMARK VINA RESULT:      -8.1      0.000      0.000
REMARK  1 active torsions:
REMARK  status: ('A' for Active; 'I' for Inactive)
REMARK    1  A    between atoms: C9_10  and  N2_11 
ROOT
HETATM    1  C1  LIG X 999      45.221 129.879  14.819  1.00  0.00     0.272 C 
HETATM    2  N1  LIG X 999      45.413 130.926  15.850  1.00  0.00    -0.067 N 
HETATM    3  C2  LIG X 999      46.205 132.035  15.268  1.00  0.00     0.272 C 
HETATM    4  C3  LIG X 999      44.092 131.439  16.334  1.00  0.00     0.276 C 
HETATM    5  C4  LIG X 999      44.166 131.400  17.810  1.00  0.00    -0.024 A 
HETATM    6  C5  LIG X 999      43.225 131.869  18.728  1.00  0.00     0.021 A 
HETATM    7  C6  LIG X 999      43.487 131.710  20.103  1.00  0.00    -0.025 A 
HETATM    8  C7  LIG X 999      42.572 132.170  21.061  1.00  0.00     0.014 A 
HETATM    9  C8  LIG X 999      42.839 132.005  22.423  1.00  0.00     0.030 A 
HETATM   10  C9  LIG X 999      44.021 131.379  22.846  1.00  0.00     0.026 A 
HETATM   11  C10 LIG X 999      44.942 130.914  21.896  1.00  0.00     0.041 A 
HETATM   12  C11 LIG X 999      44.688 131.073  20.527  1.00  0.00    -0.023 A 
HETATM   13  C12 LIG X 999      45.609 130.607  19.567  1.00  0.00     0.021 A 
HETATM   14  C13 LIG X 999      45.315 130.791  18.215  1.00  0.00    -0.024 A 
HETATM   15  C14 LIG X 999      46.117 130.366  17.047  1.00  0.00     0.276 C 
ENDROOT
BRANCH  10  16
HETATM   16  N2  LIG X 999      44.285 131.214  24.242  1.00  0.00    -0.399 N 
HETATM   17  H12 LIG X 999      43.819 130.456  24.788  1.00  0.00     0.156 HD
HETATM   18  H13 LIG X 999      44.947 131.850  24.739  1.00  0.00     0.156 HD
ENDBRANCH  10  16
TORSDOF 1
ENDMDL
MODEL 2
REMARK VINA RESULT:      -7.8      0.722      2.156
REMARK  1 active torsions:
REMARK  status: ('A' for Active; 'I' for Inactive)
REMARK    1  A    between atoms: C9_10  and  N2_11 
ROOT
HETATM    1  C1  LIG X 999      46.083 131.692  14.894  1.00  0.00     0.272 C 
HETATM    2  N1  LIG X 999      45.340 130.844  15.854  1.00  0.00    -0.067 N 
HETATM    3  C2  LIG X 999      44.940 129.587  15.177  1.00  0.00     0.272 C 
HETATM    4  C3  LIG X 999      46.186 130.534  17.050  1.00  0.00     0.276 C 
HETATM    5  C4  LIG X 999      45.343 130.841  18.225  1.00  0.00    -0.024 A 
HETATM    6  C5  LIG X 999      45.639 130.625  19.572  1.00  0.00     0.021 A 
HETATM    7  C6  LIG X 999      44.694 131.016  20.541  1.00  0.00    -0.025 A 
HETATM    8  C7  LIG X 999      44.946 130.815  21.905  1.00  0.00     0.014 A 
HETATM    9  C8  LIG X 999      44.004 131.208  22.859  1.00  0.00     0.030 A 
HETATM   10  C9  LIG X 999      42.799 131.808  22.465  1.00  0.00     0.026 A 
HETATM   11  C10 LIG X 999      42.536 132.015  21.103  1.00  0.00     0.041 A 
HETATM   12  C11 LIG X 999      43.472 131.624  20.135  1.00  0.00    -0.023 A 
HETATM   13  C12 LIG X 999      43.216 131.831  18.764  1.00  0.00     0.021 A 
HETATM   14  C13 LIG X 999      44.174 131.423  17.836  1.00  0.00    -0.024 A 
HETATM   15  C14 LIG X 999      44.128 131.560  16.364  1.00  0.00     0.276 C 
ENDROOT
BRANCH  10  16
HETATM   16  N2  LIG X 999      41.841 132.208  23.449  1.00  0.00    -0.399 N 
HETATM   17  H12 LIG X 999      41.592 131.574  24.241  1.00  0.00     0.156 HD
HETATM   18  H13 LIG X 999      41.374 133.140  23.392  1.00  0.00     0.156 HD
ENDBRANCH  10  16
TORSDOF 1
ENDMDL
MODEL 3
REMARK VINA RESULT:      -7.6      1.046      5.796
REMARK  1 active torsions:
REMARK  status: ('A' for Active; 'I' for Inactive)
REMARK    1  A    between atoms: C9_10  and  N2_11 
ROOT
HETATM    1  C1  LIG X 999      43.871 132.132  23.322  1.00  0.00     0.272 C 
HETATM    2  N1  LIG X 999      43.638 131.178  22.212  1.00  0.00    -0.067 N 
HETATM    3  C2  LIG X 999      42.889 130.009  22.731  1.00  0.00     0.272 C 
HETATM    4  C3  LIG X 999      42.867 131.831  21.107  1.00  0.00     0.276 C 
HETATM    5  C4  LIG X 999      43.611 131.525  19.867  1.00  0.00    -0.024 A 
HETATM    6  C5  LIG X 999      43.247 131.825  18.554  1.00  0.00     0.021 A 
HETATM    7  C6  LIG X 999      44.122 131.460  17.511  1.00  0.00    -0.025 A 
HETATM    8  C7  LIG X 999      43.795 131.737  16.176  1.00  0.00     0.014 A 
HETATM    9  C8  LIG X 999      44.671 131.373  15.149  1.00  0.00     0.030 A 
HETATM   10  C9  LIG X 999      45.883 130.729  15.441  1.00  0.00     0.026 A 
HETATM   11  C10 LIG X 999      46.220 130.448  16.773  1.00  0.00     0.041 A 
HETATM   12  C11 LIG X 999      45.350 130.806  17.814  1.00  0.00    -0.023 A 
HETATM   13  C12 LIG X 999      45.683 130.529  19.155  1.00  0.00     0.021 A 
HETATM   14  C13 LIG X 999      44.786 130.900  20.157  1.00  0.00    -0.024 A 
HETATM   15  C14 LIG X 999      44.938 130.731  21.618  1.00  0.00     0.276 C 
ENDROOT
BRANCH  10  16
HETATM   16  N2  LIG X 999      46.772 130.361  14.383  1.00  0.00    -0.399 N 
HETATM   17  H12 LIG X 999      46.418 130.227  13.410  1.00  0.00     0.156 HD
HETATM   18  H13 LIG X 999      47.791 130.220  14.566  1.00  0.00     0.156 HD
ENDBRANCH  10  16
TORSDOF 1
ENDMDL
MODEL 4
REMARK VINA RESULT:      -7.0      1.102      6.096
REMARK  1 active torsions:
REMARK  status: ('A' for Active; 'I' for Inactive)
REMARK    1  A    between atoms: C9_10  and  N2_11 
ROOT
HETATM    1  C1  LIG X 999      42.668 130.385  24.194  1.00  0.00     0.272 C 
HETATM    2  N1  LIG X 999      43.453 131.268  23.302  1.00  0.00    -0.067 N 
HETATM    3  C2  LIG X 999      43.960 132.419  24.088  1.00  0.00     0.272 C 
HETATM    4  C3  LIG X 999      44.599 130.521  22.693  1.00  0.00     0.276 C 
HETATM    5  C4  LIG X 999      44.535 130.806  21.244  1.00  0.00    -0.024 A 
HETATM    6  C5  LIG X 999      45.443 130.422  20.255  1.00  0.00     0.021 A 
HETATM    7  C6  LIG X 999      45.177 130.783  18.919  1.00  0.00    -0.025 A 
HETATM    8  C7  LIG X 999      46.062 130.423  17.893  1.00  0.00     0.014 A 
HETATM    9  C8  LIG X 999      45.788 130.784  16.571  1.00  0.00     0.030 A 
HETATM   10  C9  LIG X 999      44.627 131.506  16.255  1.00  0.00     0.026 A 
HETATM   11  C10 LIG X 999      43.734 131.870  17.273  1.00  0.00     0.041 A 
HETATM   12  C11 LIG X 999      43.997 131.516  18.604  1.00  0.00    -0.023 A 
HETATM   13  C12 LIG X 999      43.103 131.877  19.633  1.00  0.00     0.021 A 
HETATM   14  C13 LIG X 999      43.407 131.507  20.943  1.00  0.00    -0.024 A 
HETATM   15  C14 LIG X 999      42.611 131.756  22.164  1.00  0.00     0.276 C 
ENDROOT
BRANCH  10  16
HETATM   16  N2  LIG X 999      44.356 131.869  14.899  1.00  0.00    -0.399 N 
HETATM   17  H12 LIG X 999      44.373 131.152  14.140  1.00  0.00     0.156 HD
HETATM   18  H13 LIG X 999      44.136 132.858  14.644  1.00  0.00     0.156 HD
ENDBRANCH  10  16
TORSDOF 1
ENDMDL
MODEL 5
REMARK VINA RESULT:      -7.0      1.436      2.020
REMARK  1 active torsions:
REMARK  status: ('A' for Active; 'I' for Inactive)
REMARK    1  A    between atoms: C9_10  and  N2_11 
ROOT
HETATM    1  C1  LIG X 999      46.809 129.208  14.162  1.00  0.00     0.272 C 
HETATM    2  N1  LIG X 999      46.512 130.464  14.889  1.00  0.00    -0.067 N 
HETATM    3  C2  LIG X 999      47.323 131.561  14.307  1.00  0.00     0.272 C 
HETATM    4  C3  LIG X 999      45.056 130.799  14.793  1.00  0.00     0.276 C 
HETATM    5  C4  LIG X 999      44.621 131.085  16.176  1.00  0.00    -0.024 A 
HETATM    6  C5  LIG X 999      43.373 131.542  16.605  1.00  0.00     0.021 A 
HETATM    7  C6  LIG X 999      43.162 131.729  17.985  1.00  0.00    -0.025 A 
HETATM    8  C7  LIG X 999      41.927 132.191  18.461  1.00  0.00     0.014 A 
HETATM    9  C8  LIG X 999      41.725 132.371  19.832  1.00  0.00     0.030 A 
HETATM   10  C9  LIG X 999      42.752 132.091  20.746  1.00  0.00     0.026 A 
HETATM   11  C10 LIG X 999      43.992 131.628  20.281  1.00  0.00     0.041 A 
HETATM   12  C11 LIG X 999      44.208 131.444  18.908  1.00  0.00    -0.023 A 
HETATM   13  C12 LIG X 999      45.451 130.977  18.433  1.00  0.00     0.021 A 
HETATM   14  C13 LIG X 999      45.622 130.812  17.058  1.00  0.00    -0.024 A 
HETATM   15  C14 LIG X 999      46.820 130.318  16.347  1.00  0.00     0.276 C 
ENDROOT
BRANCH  10  16
HETATM   16  N2  LIG X 999      42.536 132.278  22.147  1.00  0.00    -0.399 N 
HETATM   17  H12 LIG X 999      43.304 132.625  22.765  1.00  0.00     0.156 HD
HETATM   18  H13 LIG X 999      41.607 132.072  22.577  1.00  0.00     0.156 HD
ENDBRANCH  10  16
TORSDOF 1
ENDMDL
MODEL 6
REMARK VINA RESULT:      -6.1      1.966      6.509
REMARK  1 active torsions:
REMARK  status: ('A' for Active; 'I' for Inactive)
REMARK    1  A    between atoms: C9_10  and  N2_11 
ROOT
HETATM    1  C1  LIG X 999      43.205 131.368  20.805  1.00  0.00     0.272 C 
HETATM    2  N1  LIG X 999      44.526 131.581  20.169  1.00  0.00    -0.067 N 
HETATM    3  C2  LIG X 999      45.430 132.236  21.144  1.00  0.00     0.272 C 
HETATM    4  C3  LIG X 999      45.114 130.279  19.721  1.00  0.00     0.276 C 
HETATM    5  C4  LIG X 999      45.536 130.493  18.320  1.00  0.00    -0.024 A 
HETATM    6  C5  LIG X 999      46.230 129.611  17.491  1.00  0.00     0.021 A 
HETATM    7  C6  LIG X 999      46.514 130.010  16.170  1.00  0.00    -0.025 A 
HETATM    8  C7  LIG X 999      47.212 129.159  15.302  1.00  0.00     0.014 A 
HETATM    9  C8  LIG X 999      47.487 129.563  13.992  1.00  0.00     0.030 A 
HETATM   10  C9  LIG X 999      47.068 130.820  13.532  1.00  0.00     0.026 A 
HETATM   11  C10 LIG X 999      46.368 131.679  14.391  1.00  0.00     0.041 A 
HETATM   12  C11 LIG X 999      46.086 131.287  15.708  1.00  0.00    -0.023 A 
HETATM   13  C12 LIG X 999      45.381 132.145  16.576  1.00  0.00     0.021 A 
HETATM   14  C13 LIG X 999      45.126 131.715  17.879  1.00  0.00    -0.024 A 
HETATM   15  C14 LIG X 999      44.391 132.432  18.943  1.00  0.00     0.276 C 
ENDROOT
BRANCH  10  16
HETATM   16  N2  LIG X 999      47.354 131.224  12.191  1.00  0.00    -0.399 N 
HETATM   17  H12 LIG X 999      47.750 132.169  11.990  1.00  0.00     0.156 HD
HETATM   18  H13 LIG X 999      47.172 130.581  11.388  1.00  0.00     0.156 HD
ENDBRANCH  10  16
TORSDOF 1
ENDMDL
MODEL 7
REMARK VINA RESULT:      -5.8      2.108      6.406
REMARK  1 active torsions:
REMARK  status: ('A' for Active; 'I' for Inactive)
REMARK    1  A    between atoms: C9_10  and  N2_11 
ROOT
HETATM    1  C1  LIG X 999      44.516 132.254  20.910  1.00  0.00     0.272 C 
HETATM    2  N1  LIG X 999      44.165 131.611  19.622  1.00  0.00    -0.067 N 
HETATM    3  C2  LIG X 999      42.756 131.155  19.680  1.00  0.00     0.272 C 
HETATM    4  C3  LIG X 999      44.347 132.569  18.486  1.00  0.00     0.276 C 
HETATM    5  C4  LIG X 999      45.140 131.841  17.473  1.00  0.00    -0.024 A 
HETATM    6  C5  LIG X 999      45.489 132.266  16.191  1.00  0.00     0.021 A 
HETATM    7  C6  LIG X 999      46.277 131.417  15.390  1.00  0.00    -0.025 A 
HETATM    8  C7  LIG X 999      46.648 131.800  14.093  1.00  0.00     0.014 A 
HETATM    9  C8  LIG X 999      47.433 130.951  13.307  1.00  0.00     0.030 A 
HETATM   10  C9  LIG X 999      47.858 129.710  13.805  1.00  0.00     0.026 A 
HETATM   11  C10 LIG X 999      47.493 129.317  15.101  1.00  0.00     0.041 A 
HETATM   12  C11 LIG X 999      46.706 130.158  15.900  1.00  0.00    -0.023 A 
HETATM   13  C12 LIG X 999      46.337 129.770  17.204  1.00  0.00     0.021 A 
HETATM   14  C13 LIG X 999      45.550 130.638  17.962  1.00  0.00    -0.024 A 
HETATM   15  C14 LIG X 999      45.069 130.449  19.348  1.00  0.00     0.276 C 
ENDROOT
BRANCH  10  16
HETATM   16  N2  LIG X 999      48.660 128.849  12.993  1.00  0.00    -0.399 N 
HETATM   17  H12 LIG X 999      48.253 127.990  12.560  1.00  0.00     0.156 HD
HETATM   18  H13 LIG X 999      49.667 129.064  12.819  1.00  0.00     0.156 HD
ENDBRANCH  10  16
TORSDOF 1
ENDMDL
