REMARK VINA RESULT:      -6.5      2.690      6.452
REMARK  4 active torsions:
REMARK  status: ('A' for Active; 'I' for Inactive)
REMARK    1  A    between atoms: C3_3  and  O1_4 
REMARK    2  A    between atoms: O1_4  and  C4_5 
REMARK    3  A    between atoms: C4_5  and  O2_6 
REMARK    4  A    between atoms: C5_8  and  C6_9 
ROOT
HETATM    1  C1  LIG X 999      43.115 131.496  13.851  1.00  0.00     0.014 C 
HETATM    2  C2  LIG X 999      44.313 131.402  13.950  1.00  0.00    -0.091 C 
HETATM    3  C3  LIG X 999      45.767 131.291  14.073  1.00  0.00     0.266 C 
ENDROOT
BRANCH   3   4
HETATM    4  O1  LIG X 999      46.121 131.432  15.429  1.00  0.00    -0.319 OA
BRANCH   4   5
HETATM    5  C4  LIG X 999      46.740 130.243  15.865  1.00  0.00     0.314 A 
HETATM    6  O3  LIG X 999      45.803 129.194  15.902  1.00  0.00    -0.312 OA
HETATM    7  C5  LIG X 999      46.341 129.596  17.143  1.00  0.00     0.254 A 
BRANCH   5   8
HETATM    8  O2  LIG X 999      47.902 129.828  15.204  1.00  0.00    -0.341 OA
HETATM    9  H4  LIG X 999      47.789 130.124  14.264  1.00  0.00     0.215 HD
ENDBRANCH   5   8
BRANCH   7  10
HETATM   10  C6  LIG X 999      45.347 130.346  17.986  1.00  0.00    -0.021 A 
HETATM   11  C7  LIG X 999      44.270 131.030  17.398  1.00  0.00     0.011 A 
HETATM   12  C8  LIG X 999      43.350 131.717  18.194  1.00  0.00     0.013 A 
HETATM   13  C9  LIG X 999      43.487 131.720  19.590  1.00  0.00    -0.026 A 
HETATM   14  C10 LIG X 999      42.571 132.411  20.399  1.00  0.00     0.012 A 
HETATM   15  C14 LIG X 999      44.557 131.012  20.190  1.00  0.00    -0.025 A 
HETATM   16  C11 LIG X 999      42.716 132.401  21.789  1.00  0.00     0.001 A 
HETATM   17  C12 LIG X 999      43.772 131.702  22.381  1.00  0.00     0.001 A 
HETATM   18  C13 LIG X 999      44.690 131.009  21.586  1.00  0.00     0.012 A 
HETATM   19  C15 LIG X 999      45.473 130.321  19.382  1.00  0.00     0.022 A 
ENDBRANCH   7  10
ENDBRANCH   4   5
ENDBRANCH   3   4
TORSDOF 4
