REMARK VINA RESULT:      -7.3      0.000      0.000
REMARK  6 active torsions:
REMARK  status: ('A' for Active; 'I' for Inactive)
REMARK    1  A    between atoms: N1_1  and  C1_2 
REMARK    2  A    between atoms: C1_2  and  C2_3 
REMARK    3  A    between atoms: C2_3  and  O1_4 
REMARK    4  A    between atoms: C2_3  and  C3_5 
REMARK    5  A    between atoms: C3_5  and  O2_6 
REMARK    6  A    between atoms: O2_6  and  C4_7 
ROOT
HETATM    1  C4  LIG X 999      44.505 131.494  17.911  1.00  0.00     0.080 A 
HETATM    2  C5  LIG X 999      43.371 131.819  17.140  1.00  0.00     0.037 A 
HETATM    3  C6  LIG X 999      42.149 132.095  17.756  1.00  0.00     0.004 A 
HETATM    4  C7  LIG X 999      42.033 132.056  19.144  1.00  0.00     0.012 A 
HETATM    5  C8  LIG X 999      43.146 131.736  19.935  1.00  0.00    -0.023 A 
HETATM    6  C9  LIG X 999      43.032 131.693  21.334  1.00  0.00     0.012 A 
HETATM    7  C10 LIG X 999      44.142 131.375  22.119  1.00  0.00     0.001 A 
HETATM    8  C11 LIG X 999      45.370 131.095  21.518  1.00  0.00     0.001 A 
HETATM    9  C12 LIG X 999      45.499 131.132  20.127  1.00  0.00     0.015 A 
HETATM   10  C13 LIG X 999      44.391 131.452  19.318  1.00  0.00     0.007 A 
ENDROOT
BRANCH   1  11
HETATM   11  O2  LIG X 999      45.745 131.211  17.315  1.00  0.00    -0.348 OA
BRANCH  11  12
HETATM   12  C3  LIG X 999      46.154 129.922  16.861  1.00  0.00     0.209 C 
BRANCH  12  13
HETATM   13  C2  LIG X 999      45.567 129.661  15.471  1.00  0.00     0.170 C 
BRANCH  13  14
HETATM   14  C1  LIG X 999      46.495 130.192  14.364  1.00  0.00     0.300 C 
BRANCH  14  15
HETATM   15  N1  LIG X 999      46.635 131.643  14.453  1.00  0.00     0.080 N 
HETATM   16  H1  LIG X 999      46.481 132.037  13.497  1.00  0.00     0.312 HD
HETATM   17  H2  LIG X 999      45.861 132.011  15.054  1.00  0.00     0.312 HD
ENDBRANCH  14  15
ENDBRANCH  13  14
BRANCH  13  18
HETATM   18  O1  LIG X 999      45.386 128.278  15.306  1.00  0.00    -0.392 OA
HETATM   19  H6  LIG X 999      45.544 127.859  16.193  1.00  0.00     0.210 HD
ENDBRANCH  13  18
ENDBRANCH  12  13
ENDBRANCH  11  12
ENDBRANCH   1  11
TORSDOF 6
