MODEL 1
REMARK VINA RESULT:      -7.7      0.000      0.000
REMARK  1 active torsions:
REMARK  status: ('A' for Active; 'I' for Inactive)
REMARK    1  A    between atoms: C10_11  and  N2_12 
ROOT
HETATM    1  N2  LIG X 999      42.758 131.584  23.505  1.00  0.00    -0.052 NA
HETATM    2  N3  LIG X 999      42.388 130.551  24.065  1.00  0.00    -0.160 NA
HETATM    3  N4  LIG X 999      42.018 129.521  24.625  1.00  0.00     0.068 N 
ENDROOT
BRANCH   1   4
HETATM    4  C10 LIG X 999      43.270 131.564  22.170  1.00  0.00     0.186 C 
HETATM    5  N1  LIG X 999      42.454 131.805  21.115  1.00  0.00    -0.226 NA
HETATM    6  C9  LIG X 999      42.899 131.775  19.832  1.00  0.00     0.071 C 
HETATM    7  C8  LIG X 999      42.005 132.100  18.813  1.00  0.00     0.033 C 
HETATM    8  C14 LIG X 999      44.252 131.442  19.539  1.00  0.00     0.010 C 
HETATM    9  C7  LIG X 999      42.412 132.093  17.486  1.00  0.00     0.014 C 
HETATM   10  C5  LIG X 999      43.694 131.652  17.145  1.00  0.00    -0.025 C 
HETATM   11  C4  LIG X 999      44.612 131.254  18.162  1.00  0.00    -0.013 C 
HETATM   12  C6  LIG X 999      44.045 131.553  15.790  1.00  0.00     0.012 C 
HETATM   13  C3  LIG X 999      45.793 130.596  17.745  1.00  0.00     0.013 C 
HETATM   14  C2  LIG X 999      46.123 130.490  16.392  1.00  0.00     0.001 C 
HETATM   15  C1  LIG X 999      45.265 130.993  15.418  1.00  0.00     0.001 C 
HETATM   16  C12 LIG X 999      45.150 131.361  20.653  1.00  0.00    -0.045 C 
HETATM   17  C11 LIG X 999      44.627 131.356  21.957  1.00  0.00     0.063 C 
HETATM   18  C13 LIG X 999      46.654 131.430  20.542  1.00  0.00     0.049 C 
ENDBRANCH   1   4
TORSDOF 1
ENDMDL
MODEL 2
REMARK VINA RESULT:      -7.3      4.212      6.693
REMARK  1 active torsions:
REMARK  status: ('A' for Active; 'I' for Inactive)
REMARK    1  A    between atoms: C10_11  and  N2_12 
ROOT
HETATM    1  N2  LIG X 999      47.105 129.029  14.533  1.00  0.00    -0.052 NA
HETATM    2  N3  LIG X 999      47.791 129.612  13.693  1.00  0.00    -0.160 NA
HETATM    3  N4  LIG X 999      48.477 130.192  12.853  1.00  0.00     0.068 N 
ENDROOT
BRANCH   1   4
HETATM    4  C10 LIG X 999      46.253 129.750  15.426  1.00  0.00     0.186 C 
HETATM    5  N1  LIG X 999      46.538 129.817  16.749  1.00  0.00    -0.226 NA
HETATM    6  C9  LIG X 999      45.742 130.476  17.632  1.00  0.00     0.071 C 
HETATM    7  C8  LIG X 999      46.148 130.549  18.963  1.00  0.00     0.033 C 
HETATM    8  C14 LIG X 999      44.536 131.097  17.199  1.00  0.00     0.010 C 
HETATM    9  C7  LIG X 999      45.375 131.218  19.901  1.00  0.00     0.014 C 
HETATM   10  C5  LIG X 999      44.125 131.733  19.547  1.00  0.00    -0.025 C 
HETATM   11  C4  LIG X 999      43.655 131.621  18.205  1.00  0.00    -0.013 C 
HETATM   12  C6  LIG X 999      43.316 132.311  20.538  1.00  0.00     0.012 C 
HETATM   13  C3  LIG X 999      42.297 131.940  17.966  1.00  0.00     0.013 C 
HETATM   14  C2  LIG X 999      41.499 132.500  18.966  1.00  0.00     0.001 C 
HETATM   15  C1  LIG X 999      42.016 132.711  20.241  1.00  0.00     0.001 C 
HETATM   16  C12 LIG X 999      44.325 131.178  15.784  1.00  0.00    -0.045 C 
HETATM   17  C11 LIG X 999      45.157 130.441  14.923  1.00  0.00     0.063 C 
HETATM   18  C13 LIG X 999      43.357 132.126  15.119  1.00  0.00     0.049 C 
ENDBRANCH   1   4
TORSDOF 1
ENDMDL
MODEL 3
REMARK VINA RESULT:      -7.2      3.566      5.959
REMARK  1 active torsions:
REMARK  status: ('A' for Active; 'I' for Inactive)
REMARK    1  A    between atoms: C10_11  and  N2_12 
ROOT
HETATM    1  N2  LIG X 999      44.903 131.441  14.401  1.00  0.00    -0.052 NA
HETATM    2  N3  LIG X 999      46.003 131.162  13.921  1.00  0.00    -0.160 NA
HETATM    3  N4  LIG X 999      47.100 130.884  13.439  1.00  0.00     0.068 N 
ENDROOT
BRANCH   1   4
HETATM    4  C10 LIG X 999      44.676 131.399  15.812  1.00  0.00     0.186 C 
HETATM    5  N1  LIG X 999      43.512 131.852  16.337  1.00  0.00    -0.226 NA
HETATM    6  C9  LIG X 999      43.267 131.847  17.673  1.00  0.00     0.071 C 
HETATM    7  C8  LIG X 999      42.016 132.270  18.120  1.00  0.00     0.033 C 
HETATM    8  C14 LIG X 999      44.258 131.397  18.592  1.00  0.00     0.010 C 
HETATM    9  C7  LIG X 999      41.714 132.275  19.474  1.00  0.00     0.014 C 
HETATM   10  C5  LIG X 999      42.697 131.962  20.417  1.00  0.00    -0.025 C 
HETATM   11  C4  LIG X 999      44.005 131.583  19.993  1.00  0.00    -0.013 C 
HETATM   12  C6  LIG X 999      42.397 132.078  21.783  1.00  0.00     0.012 C 
HETATM   13  C3  LIG X 999      45.012 131.515  20.985  1.00  0.00     0.013 C 
HETATM   14  C2  LIG X 999      44.702 131.648  22.341  1.00  0.00     0.001 C 
HETATM   15  C1  LIG X 999      43.393 131.900  22.740  1.00  0.00     0.001 C 
HETATM   16  C12 LIG X 999      45.412 130.758  18.032  1.00  0.00    -0.045 C 
HETATM   17  C11 LIG X 999      45.632 130.832  16.646  1.00  0.00     0.063 C 
HETATM   18  C13 LIG X 999      46.354 129.868  18.806  1.00  0.00     0.049 C 
ENDBRANCH   1   4
TORSDOF 1
ENDMDL
MODEL 4
REMARK VINA RESULT:      -6.5      1.234      2.910
REMARK  1 active torsions:
REMARK  status: ('A' for Active; 'I' for Inactive)
REMARK    1  A    between atoms: C10_11  and  N2_12 
ROOT
HETATM    1  N2  LIG X 999      44.366 131.830  22.488  1.00  0.00    -0.052 NA
HETATM    2  N3  LIG X 999      43.364 131.708  23.194  1.00  0.00    -0.160 NA
HETATM    3  N4  LIG X 999      42.365 131.586  23.901  1.00  0.00     0.068 N 
ENDROOT
BRANCH   1   4
HETATM    4  C10 LIG X 999      44.308 131.625  21.075  1.00  0.00     0.186 C 
HETATM    5  N1  LIG X 999      45.316 130.992  20.427  1.00  0.00    -0.226 NA
HETATM    6  C9  LIG X 999      45.307 130.795  19.083  1.00  0.00     0.071 C 
HETATM    7  C8  LIG X 999      46.355 130.075  18.511  1.00  0.00     0.033 C 
HETATM    8  C14 LIG X 999      44.239 131.293  18.284  1.00  0.00     0.010 C 
HETATM    9  C7  LIG X 999      46.387 129.840  17.144  1.00  0.00     0.014 C 
HETATM   10  C5  LIG X 999      45.427 130.416  16.307  1.00  0.00    -0.025 C 
HETATM   11  C4  LIG X 999      44.376 131.209  16.857  1.00  0.00    -0.013 C 
HETATM   12  C6  LIG X 999      45.543 130.252  14.918  1.00  0.00     0.012 C 
HETATM   13  C3  LIG X 999      43.587 131.956  15.950  1.00  0.00     0.013 C 
HETATM   14  C2  LIG X 999      43.723 131.793  14.569  1.00  0.00     0.001 C 
HETATM   15  C1  LIG X 999      44.680 130.922  14.055  1.00  0.00     0.001 C 
HETATM   16  C12 LIG X 999      43.096 131.803  18.982  1.00  0.00    -0.045 C 
HETATM   17  C11 LIG X 999      43.180 132.023  20.367  1.00  0.00     0.063 C 
HETATM   18  C13 LIG X 999      41.732 131.989  18.362  1.00  0.00     0.049 C 
ENDBRANCH   1   4
TORSDOF 1
ENDMDL
MODEL 5
REMARK VINA RESULT:      -6.4      3.361      6.339
REMARK  1 active torsions:
REMARK  status: ('A' for Active; 'I' for Inactive)
REMARK    1  A    between atoms: C10_11  and  N2_12 
ROOT
HETATM    1  N2  LIG X 999      44.898 130.828  15.138  1.00  0.00    -0.052 NA
HETATM    2  N3  LIG X 999      45.974 131.161  14.639  1.00  0.00    -0.160 NA
HETATM    3  N4  LIG X 999      47.047 131.493  14.140  1.00  0.00     0.068 N 
ENDROOT
BRANCH   1   4
HETATM    4  C10 LIG X 999      44.604 131.088  16.513  1.00  0.00     0.186 C 
HETATM    5  N1  LIG X 999      45.554 130.923  17.465  1.00  0.00    -0.226 NA
HETATM    6  C9  LIG X 999      45.309 131.141  18.783  1.00  0.00     0.071 C 
HETATM    7  C8  LIG X 999      46.364 131.011  19.684  1.00  0.00     0.033 C 
HETATM    8  C14 LIG X 999      44.009 131.518  19.227  1.00  0.00     0.010 C 
HETATM    9  C7  LIG X 999      46.166 131.232  21.040  1.00  0.00     0.014 C 
HETATM   10  C5  LIG X 999      44.882 131.480  21.534  1.00  0.00    -0.025 C 
HETATM   11  C4  LIG X 999      43.771 131.559  20.642  1.00  0.00    -0.013 C 
HETATM   12  C6  LIG X 999      44.692 131.594  22.920  1.00  0.00     0.012 C 
HETATM   13  C3  LIG X 999      42.479 131.570  21.218  1.00  0.00     0.013 C 
HETATM   14  C2  LIG X 999      42.304 131.668  22.601  1.00  0.00     0.001 C 
HETATM   15  C1  LIG X 999      43.408 131.709  23.447  1.00  0.00     0.001 C 
HETATM   16  C12 LIG X 999      43.057 131.862  18.212  1.00  0.00    -0.045 C 
HETATM   17  C11 LIG X 999      43.352 131.574  16.869  1.00  0.00     0.063 C 
HETATM   18  C13 LIG X 999      41.799 132.658  18.459  1.00  0.00     0.049 C 
ENDBRANCH   1   4
TORSDOF 1
ENDMDL
MODEL 6
REMARK VINA RESULT:      -6.3      1.685      3.069
REMARK  1 active torsions:
REMARK  status: ('A' for Active; 'I' for Inactive)
REMARK    1  A    between atoms: C10_11  and  N2_12 
ROOT
HETATM    1  N2  LIG X 999      42.002 131.976  19.905  1.00  0.00    -0.052 NA
HETATM    2  N3  LIG X 999      42.292 132.091  21.097  1.00  0.00    -0.160 NA
HETATM    3  N4  LIG X 999      42.579 132.206  22.287  1.00  0.00     0.068 N 
ENDROOT
BRANCH   1   4
HETATM    4  C10 LIG X 999      42.999 131.684  18.923  1.00  0.00     0.186 C 
HETATM    5  N1  LIG X 999      42.766 131.926  17.610  1.00  0.00    -0.226 NA
HETATM    6  C9  LIG X 999      43.680 131.643  16.646  1.00  0.00     0.071 C 
HETATM    7  C8  LIG X 999      43.382 131.986  15.328  1.00  0.00     0.033 C 
HETATM    8  C14 LIG X 999      44.923 131.033  16.979  1.00  0.00     0.010 C 
HETATM    9  C7  LIG X 999      44.286 131.727  14.308  1.00  0.00     0.014 C 
HETATM   10  C5  LIG X 999      45.462 131.018  14.572  1.00  0.00    -0.025 C 
HETATM   11  C4  LIG X 999      45.766 130.600  15.901  1.00  0.00    -0.013 C 
HETATM   12  C6  LIG X 999      46.308 130.675  13.506  1.00  0.00     0.012 C 
HETATM   13  C3  LIG X 999      46.836 129.687  16.063  1.00  0.00     0.013 C 
HETATM   14  C2  LIG X 999      47.661 129.343  14.990  1.00  0.00     0.001 C 
HETATM   15  C1  LIG X 999      47.414 129.858  13.720  1.00  0.00     0.001 C 
HETATM   16  C12 LIG X 999      45.241 130.940  18.374  1.00  0.00    -0.045 C 
HETATM   17  C11 LIG X 999      44.241 131.206  19.324  1.00  0.00     0.063 C 
HETATM   18  C13 LIG X 999      46.631 130.718  18.918  1.00  0.00     0.049 C 
ENDBRANCH   1   4
TORSDOF 1
ENDMDL
MODEL 7
REMARK VINA RESULT:      -5.4      7.519      9.246
REMARK  1 active torsions:
REMARK  status: ('A' for Active; 'I' for Inactive)
REMARK    1  A    between atoms: C10_11  and  N2_12 
ROOT
HETATM    1  N2  LIG X 999      45.957 126.104  22.402  1.00  0.00    -0.052 NA
HETATM    2  N3  LIG X 999      46.852 125.352  22.015  1.00  0.00    -0.160 NA
HETATM    3  N4  LIG X 999      47.746 124.602  21.628  1.00  0.00     0.068 N 
ENDROOT
BRANCH   1   4
HETATM    4  C10 LIG X 999      44.636 125.619  22.655  1.00  0.00     0.186 C 
HETATM    5  N1  LIG X 999      43.715 126.409  23.259  1.00  0.00    -0.226 NA
HETATM    6  C9  LIG X 999      42.456 125.978  23.534  1.00  0.00     0.071 C 
HETATM    7  C8  LIG X 999      41.555 126.879  24.097  1.00  0.00     0.033 C 
HETATM    8  C14 LIG X 999      42.063 124.643  23.230  1.00  0.00     0.010 C 
HETATM    9  C7  LIG X 999      40.255 126.490  24.388  1.00  0.00     0.014 C 
HETATM   10  C5  LIG X 999      39.864 125.158  24.223  1.00  0.00    -0.025 C 
HETATM   11  C4  LIG X 999      40.783 124.198  23.705  1.00  0.00    -0.013 C 
HETATM   12  C6  LIG X 999      38.577 124.768  24.625  1.00  0.00     0.012 C 
HETATM   13  C3  LIG X 999      40.410 122.836  23.789  1.00  0.00     0.013 C 
HETATM   14  C2  LIG X 999      39.131 122.460  24.206  1.00  0.00     0.001 C 
HETATM   15  C1  LIG X 999      38.207 123.426  24.596  1.00  0.00     0.001 C 
HETATM   16  C12 LIG X 999      42.972 123.869  22.438  1.00  0.00    -0.045 C 
HETATM   17  C11 LIG X 999      44.274 124.349  22.222  1.00  0.00     0.063 C 
HETATM   18  C13 LIG X 999      42.590 122.622  21.677  1.00  0.00     0.049 C 
ENDBRANCH   1   4
TORSDOF 1
ENDMDL
MODEL 8
REMARK VINA RESULT:      -5.1      6.677      8.461
REMARK  1 active torsions:
REMARK  status: ('A' for Active; 'I' for Inactive)
REMARK    1  A    between atoms: C10_11  and  N2_12 
ROOT
HETATM    1  N2  LIG X 999      46.845 125.823  22.157  1.00  0.00    -0.052 NA
HETATM    2  N3  LIG X 999      47.338 124.784  21.716  1.00  0.00    -0.160 NA
HETATM    3  N4  LIG X 999      47.832 123.747  21.275  1.00  0.00     0.068 N 
ENDROOT
BRANCH   1   4
HETATM    4  C10 LIG X 999      45.475 125.882  22.560  1.00  0.00     0.186 C 
HETATM    5  N1  LIG X 999      44.669 124.801  22.425  1.00  0.00    -0.226 NA
HETATM    6  C9  LIG X 999      43.357 124.824  22.778  1.00  0.00     0.071 C 
HETATM    7  C8  LIG X 999      42.620 123.646  22.666  1.00  0.00     0.033 C 
HETATM    8  C14 LIG X 999      42.759 126.017  23.272  1.00  0.00     0.010 C 
HETATM    9  C7  LIG X 999      41.279 123.615  23.022  1.00  0.00     0.014 C 
HETATM   10  C5  LIG X 999      40.621 124.791  23.393  1.00  0.00    -0.025 C 
HETATM   11  C4  LIG X 999      41.335 126.024  23.458  1.00  0.00    -0.013 C 
HETATM   12  C6  LIG X 999      39.241 124.753  23.645  1.00  0.00     0.012 C 
HETATM   13  C3  LIG X 999      40.571 127.207  23.601  1.00  0.00     0.013 C 
HETATM   14  C2  LIG X 999      39.195 127.155  23.836  1.00  0.00     0.001 C 
HETATM   15  C1  LIG X 999      38.536 125.929  23.886  1.00  0.00     0.001 C 
HETATM   16  C12 LIG X 999      43.644 127.102  23.579  1.00  0.00    -0.045 C 
HETATM   17  C11 LIG X 999      44.981 127.038  23.152  1.00  0.00     0.063 C 
HETATM   18  C13 LIG X 999      43.287 128.267  24.471  1.00  0.00     0.049 C 
ENDBRANCH   1   4
TORSDOF 1
ENDMDL
MODEL 9
REMARK VINA RESULT:      -5.0      6.426      8.292
REMARK  1 active torsions:
REMARK  status: ('A' for Active; 'I' for Inactive)
REMARK    1  A    between atoms: C10_11  and  N2_12 
ROOT
HETATM    1  N2  LIG X 999      46.823 125.854  22.746  1.00  0.00    -0.052 NA
HETATM    2  N3  LIG X 999      47.414 125.051  22.022  1.00  0.00    -0.160 NA
HETATM    3  N4  LIG X 999      48.005 124.251  21.300  1.00  0.00     0.068 N 
ENDROOT
BRANCH   1   4
HETATM    4  C10 LIG X 999      45.397 125.860  22.839  1.00  0.00     0.186 C 
HETATM    5  N1  LIG X 999      44.739 126.957  23.288  1.00  0.00    -0.226 NA
HETATM    6  C9  LIG X 999      43.387 126.995  23.409  1.00  0.00     0.071 C 
HETATM    7  C8  LIG X 999      42.791 128.187  23.816  1.00  0.00     0.033 C 
HETATM    8  C14 LIG X 999      42.598 125.849  23.104  1.00  0.00     0.010 C 
HETATM    9  C7  LIG X 999      41.412 128.279  23.947  1.00  0.00     0.014 C 
HETATM   10  C5  LIG X 999      40.611 127.146  23.779  1.00  0.00    -0.025 C 
HETATM   11  C4  LIG X 999      41.198 125.897  23.422  1.00  0.00    -0.013 C 
HETATM   12  C6  LIG X 999      39.232 127.242  24.021  1.00  0.00     0.012 C 
HETATM   13  C3  LIG X 999      40.375 124.748  23.504  1.00  0.00     0.013 C 
HETATM   14  C2  LIG X 999      39.007 124.856  23.761  1.00  0.00     0.001 C 
HETATM   15  C1  LIG X 999      38.431 126.103  23.991  1.00  0.00     0.001 C 
HETATM   16  C12 LIG X 999      43.270 124.756  22.466  1.00  0.00    -0.045 C 
HETATM   17  C11 LIG X 999      44.674 124.754  22.407  1.00  0.00     0.063 C 
HETATM   18  C13 LIG X 999      42.573 123.653  21.707  1.00  0.00     0.049 C 
ENDBRANCH   1   4
TORSDOF 1
ENDMDL
