REMARK VINA RESULT:      -5.3      1.858      3.673
REMARK  3 active torsions:
REMARK  status: ('A' for Active; 'I' for Inactive)
REMARK    1  A    between atoms: C1_2  and  C2_4 
REMARK       I    between atoms: N1_6  and  C4_7 
REMARK    2  A    between atoms: C4_7  and  C5_9 
REMARK    3  A    between atoms: C6_10  and  C7_11 
ROOT
HETATM    1  C5  LIG X 999      45.506 129.761  19.953  1.00  0.00     0.000 C 
HETATM    2  C6  LIG X 999      45.723 130.101  18.818  1.00  0.00    -0.057 C 
ENDROOT
BRANCH   1   3
HETATM    3  C4  LIG X 999      45.255 129.357  21.311  1.00  0.00     0.300 C 
HETATM    4  N1  LIG X 999      44.472 130.179  22.189  1.00  0.00    -0.317 N 
HETATM    5  C3  LIG X 999      43.883 131.438  21.835  1.00  0.00     0.172 C 
HETATM    6  C17 LIG X 999      44.154 129.845  23.558  1.00  0.00     0.298 C 
HETATM    7  C2  LIG X 999      43.281 131.912  23.151  1.00  0.00     0.242 C 
HETATM    8  O4  LIG X 999      43.295 130.839  24.073  1.00  0.00    -0.354 OA
HETATM    9  O3  LIG X 999      45.733 128.267  21.724  1.00  0.00    -0.258 OA
BRANCH   7  10
HETATM   10  C1  LIG X 999      41.877 132.406  22.966  1.00  0.00     0.204 C 
HETATM   11  O1  LIG X 999      41.061 132.363  23.922  1.00  0.00    -0.646 OA
HETATM   12  O2  LIG X 999      41.485 132.959  21.752  1.00  0.00    -0.646 OA
ENDBRANCH   7  10
ENDBRANCH   1   3
BRANCH   2  13
HETATM   13  C7  LIG X 999      45.990 130.507  17.463  1.00  0.00     0.019 A 
HETATM   14  C8  LIG X 999      45.478 131.719  16.984  1.00  0.00     0.021 A 
HETATM   15  C9  LIG X 999      45.732 132.120  15.669  1.00  0.00     0.013 A 
HETATM   16  C10 LIG X 999      46.502 131.311  14.821  1.00  0.00    -0.026 A 
HETATM   17  C11 LIG X 999      46.764 131.704  13.499  1.00  0.00     0.012 A 
HETATM   18  C15 LIG X 999      47.022 130.084  15.303  1.00  0.00    -0.025 A 
HETATM   19  C12 LIG X 999      47.533 130.888  12.664  1.00  0.00     0.001 A 
HETATM   20  C13 LIG X 999      48.046 129.678  13.140  1.00  0.00     0.001 A 
HETATM   21  C14 LIG X 999      47.792 129.275  14.455  1.00  0.00     0.012 A 
HETATM   22  C16 LIG X 999      46.761 129.691  16.625  1.00  0.00     0.032 A 
ENDBRANCH   2  13
TORSDOF 3
