REMARK VINA RESULT:      -6.4      4.124      7.338
REMARK  4 active torsions:
REMARK  status: ('A' for Active; 'I' for Inactive)
REMARK    1  A    between atoms: O1_2  and  C1_3 
REMARK    2  A    between atoms: C1_3  and  N1_6 
REMARK    3  A    between atoms: N1_6  and  C4_8 
REMARK    4  A    between atoms: C4_8  and  C5_9 
ROOT
HETATM    1  C5  LIG X 999      43.857 131.539  21.815  1.00  0.00    -0.035 A 
HETATM    2  C6  LIG X 999      42.678 132.045  21.241  1.00  0.00     0.010 A 
HETATM    3  C7  LIG X 999      42.532 132.108  19.854  1.00  0.00     0.013 A 
HETATM    4  C8  LIG X 999      43.568 131.676  19.015  1.00  0.00    -0.026 A 
HETATM    5  C9  LIG X 999      43.431 131.734  17.619  1.00  0.00     0.012 A 
HETATM    6  C10 LIG X 999      44.474 131.303  16.794  1.00  0.00     0.001 A 
HETATM    7  C11 LIG X 999      45.656 130.812  17.353  1.00  0.00     0.001 A 
HETATM    8  C12 LIG X 999      45.805 130.749  18.742  1.00  0.00     0.012 A 
HETATM    9  C13 LIG X 999      44.766 131.178  19.582  1.00  0.00    -0.025 A 
HETATM   10  C14 LIG X 999      44.904 131.119  20.977  1.00  0.00     0.021 A 
ENDROOT
BRANCH   1  11
HETATM   11  C4  LIG X 999      44.025 131.490  23.320  1.00  0.00     0.113 C 
HETATM   12  C15 LIG X 999      42.667 131.690  24.001  1.00  0.00     0.037 C 
BRANCH  11  13
HETATM   13  N1  LIG X 999      44.627 130.216  23.733  1.00  0.00    -0.363 N 
HETATM   14  H6  LIG X 999      45.525 130.240  24.270  1.00  0.00     0.162 HD
BRANCH  13  15
HETATM   15  C1  LIG X 999      44.027 128.934  23.462  1.00  0.00     0.131 C 
HETATM   16  C2  LIG X 999      42.898 128.587  24.089  1.00  0.00     0.024 C 
HETATM   17  C3  LIG X 999      42.228 127.271  23.848  1.00  0.00     0.040 C 
BRANCH  15  18
HETATM   18  O1  LIG X 999      44.605 128.042  22.553  1.00  0.00    -0.347 OA
HETATM   19  H1  LIG X 999      44.120 127.232  22.193  1.00  0.00     0.219 HD
ENDBRANCH  15  18
ENDBRANCH  13  15
ENDBRANCH  11  13
ENDBRANCH   1  11
TORSDOF 4
