REMARK VINA RESULT:      -3.8      6.246      7.579
REMARK  6 active torsions:
REMARK  status: ('A' for Active; 'I' for Inactive)
REMARK    1  A    between atoms: C8_8  and  O1_9 
REMARK    2  A    between atoms: O1_9  and  C9_10 
REMARK    3  A    between atoms: C9_10  and  C10_11 
REMARK    4  A    between atoms: C10_11  and  C11_12 
REMARK    5  A    between atoms: C11_12  and  N1_13 
REMARK    6  A    between atoms: C13_18  and  N4_19 
ROOT
HETATM    1  N1  LIG X 999      49.038 135.476  21.618  1.00  0.00    -0.116 NA
HETATM    2  N2  LIG X 999      48.896 136.480  20.919  1.00  0.00    -0.168 NA
HETATM    3  N3  LIG X 999      48.756 137.482  20.219  1.00  0.00     0.068 N 
ENDROOT
BRANCH   1   4
HETATM    4  C11 LIG X 999      47.885 134.717  22.092  1.00  0.00     0.191 C 
BRANCH   4   5
HETATM    5  C10 LIG X 999      47.998 133.225  21.740  1.00  0.00     0.051 C 
BRANCH   5   6
HETATM    6  C9  LIG X 999      46.636 132.535  21.637  1.00  0.00     0.170 C 
BRANCH   6   7
HETATM    7  O1  LIG X 999      46.400 132.152  20.299  1.00  0.00    -0.384 OA
BRANCH   7   8
HETATM    8  C8  LIG X 999      45.836 130.852  20.230  1.00  0.00     0.146 C 
HETATM    9  C7  LIG X 999      44.791 130.682  21.340  1.00  0.00     0.072 C 
HETATM   10  C5  LIG X 999      43.583 131.561  21.127  1.00  0.00    -0.047 A 
HETATM   11  C4  LIG X 999      43.216 132.017  19.835  1.00  0.00    -0.023 A 
HETATM   12  C6  LIG X 999      42.770 131.871  22.229  1.00  0.00     0.008 A 
HETATM   13  C3  LIG X 999      42.081 132.839  19.700  1.00  0.00     0.010 A 
HETATM   14  C13 LIG X 999      44.085 131.750  18.617  1.00  0.00     0.199 C 
HETATM   15  C2  LIG X 999      41.292 133.151  20.809  1.00  0.00     0.001 A 
HETATM   16  C1  LIG X 999      41.632 132.663  22.070  1.00  0.00     0.001 A 
HETATM   17  C12 LIG X 999      45.154 130.666  18.867  1.00  0.00     0.143 C 
HETATM   18 CL1  LIG X 999      46.381 130.702  17.566  1.00  0.00    -0.120 Cl
BRANCH  14  19
HETATM   19  N4  LIG X 999      43.246 131.334  17.494  1.00  0.00    -0.104 NA
HETATM   20  N5  LIG X 999      43.612 131.502  16.330  1.00  0.00    -0.167 NA
HETATM   21  N6  LIG X 999      43.977 131.670  15.167  1.00  0.00     0.068 N 
ENDBRANCH  14  19
ENDBRANCH   7   8
ENDBRANCH   6   7
ENDBRANCH   5   6
ENDBRANCH   4   5
ENDBRANCH   1   4
TORSDOF 6
