REMARK VINA RESULT:      -5.1      7.971      9.770
REMARK  5 active torsions:
REMARK  status: ('A' for Active; 'I' for Inactive)
REMARK    1  A    between atoms: O1_2  and  C1_3 
REMARK    2  A    between atoms: C1_3  and  C13_17 
REMARK    3  A    between atoms: N1_4  and  C2_5 
REMARK    4  A    between atoms: C3_6  and  O2_7 
REMARK    5  A    between atoms: C13_17  and  C15_19 
ROOT
HETATM    1  C2  LIG X 999      41.821 125.611  24.077  1.00  0.00     0.103 A 
HETATM    2  C3  LIG X 999      41.737 127.000  23.840  1.00  0.00     0.097 A 
HETATM    3  C5  LIG X 999      40.479 127.629  23.838  1.00  0.00     0.040 A 
HETATM    4  C6  LIG X 999      39.314 126.887  24.036  1.00  0.00     0.015 A 
HETATM    5  C7  LIG X 999      39.381 125.504  24.231  1.00  0.00    -0.024 A 
HETATM    6  C8  LIG X 999      38.205 124.758  24.412  1.00  0.00     0.012 A 
HETATM    7  C9  LIG X 999      38.272 123.377  24.607  1.00  0.00     0.001 A 
HETATM    8  C10 LIG X 999      39.509 122.729  24.624  1.00  0.00     0.001 A 
HETATM    9  C11 LIG X 999      40.687 123.459  24.447  1.00  0.00     0.014 A 
HETATM   10  C12 LIG X 999      40.640 124.853  24.246  1.00  0.00     0.006 A 
ENDROOT
BRANCH   1  11
HETATM   11  N1  LIG X 999      43.097 124.950  24.076  1.00  0.00    -0.225 NA
HETATM   12  C1  LIG X 999      43.679 124.460  23.021  1.00  0.00     0.142 C 
BRANCH  12  13
HETATM   13  O1  LIG X 999      43.099 124.615  21.760  1.00  0.00    -0.348 OA
HETATM   14  H1  LIG X 999      42.287 125.202  21.617  1.00  0.00     0.219 HD
ENDBRANCH  12  13
BRANCH  12  15
HETATM   15  C13 LIG X 999      45.003 123.750  23.162  1.00  0.00     0.058 C 
HETATM   16  C14 LIG X 999      45.194 122.765  22.000  1.00  0.00     0.018 C 
BRANCH  15  17
HETATM   17  C15 LIG X 999      46.148 124.783  23.247  1.00  0.00     0.008 C 
HETATM   18  C16 LIG X 999      47.033 124.790  22.000  1.00  0.00     0.006 C 
ENDBRANCH  15  17
ENDBRANCH  12  15
ENDBRANCH   1  11
BRANCH   2  19
HETATM   19  O2  LIG X 999      42.918 127.717  23.587  1.00  0.00    -0.354 OA
HETATM   20  C4  LIG X 999      43.364 128.839  24.341  1.00  0.00     0.210 C 
ENDBRANCH   2  19
TORSDOF 5
