REMARK VINA RESULT:      -6.3      2.730      7.791
REMARK  3 active torsions:
REMARK  status: ('A' for Active; 'I' for Inactive)
REMARK    1  A    between atoms: C2_2  and  N1_3 
REMARK    2  A    between atoms: C3_6  and  O1_7 
REMARK    3  A    between atoms: O1_7  and  C4_8 
REMARK       I    between atoms: C4_8  and  N4_10 
ROOT
HETATM    1  N1  LIG X 999      43.019 131.830  22.746  1.00  0.00    -0.070 NA
HETATM    2  N2  LIG X 999      43.532 132.441  23.685  1.00  0.00    -0.162 NA
HETATM    3  N3  LIG X 999      44.044 133.051  24.624  1.00  0.00     0.068 N 
ENDROOT
BRANCH   1   4
HETATM    4  C2  LIG X 999      43.784 131.336  21.637  1.00  0.00     0.128 A 
HETATM    5  C1  LIG X 999      43.711 131.944  20.369  1.00  0.00     0.049 A 
HETATM    6  C13 LIG X 999      44.468 131.449  19.300  1.00  0.00    -0.023 A 
HETATM    7  C8  LIG X 999      45.322 130.330  19.501  1.00  0.00    -0.022 A 
HETATM    8  C12 LIG X 999      44.399 132.058  18.030  1.00  0.00     0.021 A 
HETATM    9  C7  LIG X 999      45.391 129.731  20.765  1.00  0.00     0.052 A 
HETATM   10  C9  LIG X 999      46.097 129.840  18.431  1.00  0.00     0.021 A 
HETATM   11  C3  LIG X 999      44.613 130.219  21.831  1.00  0.00     0.113 A 
HETATM   12  C10 LIG X 999      45.994 130.466  17.188  1.00  0.00    -0.024 A 
HETATM   13  C11 LIG X 999      45.174 131.535  16.995  1.00  0.00    -0.024 A 
HETATM   14  C17 LIG X 999      46.722 130.138  15.944  1.00  0.00     0.276 C 
HETATM   15  C14 LIG X 999      45.276 132.024  15.603  1.00  0.00     0.276 C 
HETATM   16  N5  LIG X 999      46.142 131.029  14.890  1.00  0.00    -0.067 N 
HETATM   17  C15 LIG X 999      45.324 130.232  13.945  1.00  0.00     0.272 C 
HETATM   18  C16 LIG X 999      47.216 131.717  14.137  1.00  0.00     0.272 C 
BRANCH  11  19
HETATM   19  O1  LIG X 999      44.671 129.641  23.109  1.00  0.00    -0.259 OA
BRANCH  19  20
HETATM   20  C4  LIG X 999      44.484 128.280  23.395  1.00  0.00     0.367 C 
HETATM   21  O2  LIG X 999      45.451 127.472  23.316  1.00  0.00    -0.238 OA
HETATM   22  N4  LIG X 999      43.171 127.797  23.727  1.00  0.00    -0.336 N 
HETATM   23  C5  LIG X 999      42.054 128.742  23.786  1.00  0.00     0.154 C 
HETATM   24  C6  LIG X 999      42.967 126.373  24.007  1.00  0.00     0.154 C 
ENDBRANCH  19  20
ENDBRANCH  11  19
ENDBRANCH   1   4
TORSDOF 3
