REMARK VINA RESULT:      -4.5      2.908      4.997
REMARK  4 active torsions:
REMARK  status: ('A' for Active; 'I' for Inactive)
REMARK    1  A    between atoms: C4_4  and  N1_5 
REMARK    2  A    between atoms: C7_10  and  S1_11 
REMARK    3  A    between atoms: S1_11  and  C8_12 
REMARK    4  A    between atoms: C8_12  and  C9_13 
ROOT
HETATM    1  N1  LIG X 999      44.446 123.366  22.553  1.00  0.00    -0.071 NA
HETATM    2  N2  LIG X 999      45.133 122.877  23.451  1.00  0.00    -0.162 NA
HETATM    3  N3  LIG X 999      45.818 122.380  24.344  1.00  0.00     0.068 N 
ENDROOT
BRANCH   1   4
HETATM    4  C4  LIG X 999      43.537 124.460  22.763  1.00  0.00     0.108 A 
HETATM    5  C3  LIG X 999      42.181 124.161  22.932  1.00  0.00     0.008 A 
HETATM    6  C2  LIG X 999      41.257 125.127  23.163  1.00  0.00    -0.021 A 
HETATM    7  C15 LIG X 999      41.530 122.830  22.884  1.00  0.00     0.278 C 
HETATM    8  C1  LIG X 999      41.611 126.467  23.249  1.00  0.00     0.018 A 
HETATM    9  C18 LIG X 999      39.903 124.544  23.279  1.00  0.00     0.276 C 
HETATM   10  C6  LIG X 999      42.964 126.835  23.100  1.00  0.00    -0.035 A 
HETATM   11  C5  LIG X 999      43.936 125.832  22.787  1.00  0.00    -0.018 A 
HETATM   12  C7  LIG X 999      43.325 128.314  23.166  1.00  0.00     0.081 C 
HETATM   13  C14 LIG X 999      45.366 126.229  22.481  1.00  0.00     0.042 C 
HETATM   14  C13 LIG X 999      45.500 127.695  22.067  1.00  0.00     0.006 C 
HETATM   15  C12 LIG X 999      44.836 128.586  23.109  1.00  0.00     0.020 C 
HETATM   16  N4  LIG X 999      40.103 123.061  23.272  1.00  0.00    -0.067 N 
HETATM   17  C16 LIG X 999      39.848 122.507  24.625  1.00  0.00     0.272 C 
HETATM   18  C17 LIG X 999      39.186 122.414  22.305  1.00  0.00     0.272 C 
BRANCH  12  19
HETATM   19  S1  LIG X 999      42.580 129.159  24.623  1.00  0.00    -0.147 SA
BRANCH  19  20
HETATM   20  C8  LIG X 999      43.334 130.814  24.420  1.00  0.00     0.168 C 
BRANCH  20  21
HETATM   21  C9  LIG X 999      43.091 131.294  23.058  1.00  0.00    -0.097 C 
HETATM   22  C10 LIG X 999      42.896 131.689  21.936  1.00  0.00    -0.110 C 
HETATM   23  C11 LIG X 999      42.663 132.168  20.573  1.00  0.00     0.112 C 
ENDBRANCH  20  21
ENDBRANCH  19  20
ENDBRANCH  12  19
ENDBRANCH   1   4
TORSDOF 4
