REMARK VINA RESULT:      -6.5      2.037      3.191
REMARK  2 active torsions:
REMARK  status: ('A' for Active; 'I' for Inactive)
REMARK    1  A    between atoms: C1_1  and  N1_2 
REMARK    2  A    between atoms: C2_5  and  C3_7 
ROOT
HETATM    1  N1  LIG X 999      44.952 131.815  15.301  1.00  0.00    -0.082 NA
HETATM    2  N2  LIG X 999      44.064 131.635  14.468  1.00  0.00    -0.163 NA
HETATM    3  N3  LIG X 999      43.178 131.456  13.635  1.00  0.00     0.068 N 
ENDROOT
BRANCH   1   4
HETATM    4  C1  LIG X 999      44.645 131.843  16.695  1.00  0.00     0.196 C 
HETATM    5  C2  LIG X 999      45.268 131.012  17.540  1.00  0.00     0.137 C 
HETATM    6  O1  LIG X 999      46.236 130.144  17.041  1.00  0.00    -0.190 OA
BRANCH   5   7
HETATM    7  C3  LIG X 999      44.980 131.001  18.998  1.00  0.00     0.003 A 
HETATM    8  C4  LIG X 999      45.854 130.321  19.864  1.00  0.00     0.015 A 
HETATM    9  C5  LIG X 999      45.611 130.281  21.239  1.00  0.00     0.013 A 
HETATM   10  C6  LIG X 999      44.481 130.913  21.774  1.00  0.00    -0.026 A 
HETATM   11  C7  LIG X 999      44.227 130.877  23.155  1.00  0.00     0.012 A 
HETATM   12  C11 LIG X 999      43.583 131.588  20.914  1.00  0.00    -0.025 A 
HETATM   13  C8  LIG X 999      43.092 131.505  23.675  1.00  0.00     0.001 A 
HETATM   14  C9  LIG X 999      42.204 132.170  22.826  1.00  0.00     0.001 A 
HETATM   15  C10 LIG X 999      42.446 132.212  21.450  1.00  0.00     0.012 A 
HETATM   16  C12 LIG X 999      43.836 131.625  19.533  1.00  0.00     0.026 A 
ENDBRANCH   5   7
ENDBRANCH   1   4
TORSDOF 2
