REMARK VINA RESULT:      -7.1      2.911      6.176
REMARK  3 active torsions:
REMARK  status: ('A' for Active; 'I' for Inactive)
REMARK       I    between atoms: N1_2  and  C3_4 
REMARK    1  A    between atoms: C3_4  and  O2_6 
REMARK    2  A    between atoms: O2_6  and  C4_7 
REMARK    3  A    between atoms: C13_16  and  N2_17 
ROOT
HETATM    1  C4  LIG X 999      44.224 131.557  20.193  1.00  0.00     0.108 A 
HETATM    2  C5  LIG X 999      43.076 132.083  19.600  1.00  0.00     0.040 A 
HETATM    3  C6  LIG X 999      42.904 132.038  18.220  1.00  0.00     0.015 A 
HETATM    4  C7  LIG X 999      43.897 131.488  17.402  1.00  0.00    -0.024 A 
HETATM    5  C8  LIG X 999      43.716 131.456  16.011  1.00  0.00     0.012 A 
HETATM    6  C9  LIG X 999      44.711 130.941  15.182  1.00  0.00     0.001 A 
HETATM    7  C10 LIG X 999      45.900 130.463  15.731  1.00  0.00     0.001 A 
HETATM    8  C11 LIG X 999      46.097 130.486  17.114  1.00  0.00     0.014 A 
HETATM    9  C12 LIG X 999      45.095 130.981  17.977  1.00  0.00     0.003 A 
HETATM   10  C13 LIG X 999      45.258 131.019  19.390  1.00  0.00     0.071 A 
ENDROOT
BRANCH   1  11
HETATM   11  O2  LIG X 999      44.315 131.588  21.589  1.00  0.00    -0.259 OA
BRANCH  11  12
HETATM   12  C3  LIG X 999      43.292 131.154  22.442  1.00  0.00     0.367 C 
HETATM   13  N1  LIG X 999      43.356 129.842  23.026  1.00  0.00    -0.336 N 
HETATM   14  C1  LIG X 999      44.487 128.969  22.704  1.00  0.00     0.154 C 
HETATM   15  C2  LIG X 999      42.290 129.391  23.926  1.00  0.00     0.154 C 
HETATM   16  O1  LIG X 999      42.325 131.921  22.713  1.00  0.00    -0.238 OA
ENDBRANCH  11  12
ENDBRANCH   1  11
BRANCH  10  17
HETATM   17  N2  LIG X 999      46.466 130.558  20.017  1.00  0.00    -0.396 N 
HETATM   18  H13 LIG X 999      46.942 131.095  20.772  1.00  0.00     0.156 HD
HETATM   19  H14 LIG X 999      46.953 129.701  19.673  1.00  0.00     0.156 HD
ENDBRANCH  10  17
TORSDOF 3
