REMARK VINA RESULT:      -6.8      1.688      3.240
REMARK  3 active torsions:
REMARK  status: ('A' for Active; 'I' for Inactive)
REMARK    1  A    between atoms: C3_3  and  O1_4 
REMARK    2  A    between atoms: O1_4  and  C4_5 
REMARK    3  A    between atoms: C13_14  and  C14_15 
ROOT
HETATM    1  C1  LIG X 999      46.795 130.993  13.478  1.00  0.00     0.014 C 
HETATM    2  C2  LIG X 999      45.744 130.813  14.039  1.00  0.00    -0.091 C 
HETATM    3  C3  LIG X 999      44.466 130.595  14.719  1.00  0.00     0.268 C 
ENDROOT
BRANCH   3   4
HETATM    4  O1  LIG X 999      44.163 131.733  15.519  1.00  0.00    -0.339 OA
BRANCH   4   5
HETATM    5  C4  LIG X 999      43.841 131.693  16.887  1.00  0.00     0.084 A 
HETATM    6  C5  LIG X 999      42.566 132.074  17.341  1.00  0.00     0.039 A 
HETATM    7  C6  LIG X 999      42.261 132.065  18.697  1.00  0.00     0.015 A 
HETATM    8  C7  LIG X 999      43.215 131.661  19.635  1.00  0.00    -0.025 A 
HETATM    9  C8  LIG X 999      42.885 131.648  21.001  1.00  0.00     0.012 A 
HETATM   10  C12 LIG X 999      44.508 131.256  19.208  1.00  0.00    -0.010 A 
HETATM   11  C9  LIG X 999      43.816 131.225  21.947  1.00  0.00     0.001 A 
HETATM   12  C10 LIG X 999      45.080 130.801  21.541  1.00  0.00     0.001 A 
HETATM   13  C11 LIG X 999      45.426 130.809  20.187  1.00  0.00     0.013 A 
HETATM   14  C13 LIG X 999      44.825 131.283  17.819  1.00  0.00     0.046 A 
BRANCH  14  15
HETATM   15  C14 LIG X 999      46.183 130.922  17.332  1.00  0.00     0.273 C 
HETATM   16  O2  LIG X 999      46.491 129.725  17.089  1.00  0.00    -0.301 OA
ENDBRANCH  14  15
ENDBRANCH   4   5
ENDBRANCH   3   4
TORSDOF 3
