REMARK VINA RESULT:      -6.2      2.680      6.365
REMARK  5 active torsions:
REMARK  status: ('A' for Active; 'I' for Inactive)
REMARK    1  A    between atoms: C6_6  and  C7_7 
REMARK    2  A    between atoms: C7_7  and  N3_15 
REMARK    3  A    between atoms: N1_8  and  C8_9 
REMARK    4  A    between atoms: C8_9  and  C9_10 
REMARK    5  A    between atoms: C9_10  and  N2_11 
ROOT
HETATM    1  N3  LIG X 999      42.956 131.849  17.878  1.00  0.00    -0.052 NA
HETATM    2  N4  LIG X 999      42.226 132.352  18.733  1.00  0.00    -0.160 NA
HETATM    3  N5  LIG X 999      41.494 132.852  19.586  1.00  0.00     0.068 N 
ENDROOT
BRANCH   1   4
HETATM    4  C7  LIG X 999      44.331 131.520  18.138  1.00  0.00     0.191 C 
HETATM    5  N1  LIG X 999      44.842 131.750  19.313  1.00  0.00    -0.267 NA
BRANCH   4   6
HETATM    6  C6  LIG X 999      45.196 130.923  17.094  1.00  0.00     0.015 A 
HETATM    7  C5  LIG X 999      45.648 131.709  16.020  1.00  0.00     0.027 A 
HETATM    8  C4  LIG X 999      46.478 131.158  15.033  1.00  0.00    -0.025 A 
HETATM    9  C3  LIG X 999      46.922 131.938  13.954  1.00  0.00     0.012 A 
HETATM   10  C12 LIG X 999      46.873 129.801  15.125  1.00  0.00    -0.026 A 
HETATM   11  C2  LIG X 999      47.749 131.378  12.975  1.00  0.00     0.001 A 
HETATM   12  C1  LIG X 999      48.138 130.039  13.067  1.00  0.00     0.001 A 
HETATM   13  C13 LIG X 999      47.704 129.251  14.137  1.00  0.00     0.012 A 
HETATM   14  C11 LIG X 999      46.434 129.024  16.204  1.00  0.00     0.013 A 
HETATM   15  C10 LIG X 999      45.607 129.581  17.183  1.00  0.00     0.016 A 
ENDBRANCH   4   6
BRANCH   5  16
HETATM   16  C8  LIG X 999      44.128 132.358  20.435  1.00  0.00     0.178 C 
BRANCH  16  17
HETATM   17  C9  LIG X 999      44.094 131.418  21.649  1.00  0.00     0.251 C 
BRANCH  17  18
HETATM   18  N2  LIG X 999      45.161 130.418  21.584  1.00  0.00    -0.078 N 
HETATM   19  H9  LIG X 999      44.795 129.560  21.112  1.00  0.00     0.274 HD
HETATM   20  H10 LIG X 999      45.474 130.161  22.548  1.00  0.00     0.274 HD
HETATM   21  H11 LIG X 999      45.970 130.787  21.035  1.00  0.00     0.274 HD
ENDBRANCH  17  18
ENDBRANCH  16  17
ENDBRANCH   5  16
ENDBRANCH   1   4
TORSDOF 5
