REMARK VINA RESULT:      -5.6      2.715      5.094
REMARK  2 active torsions:
REMARK  status: ('A' for Active; 'I' for Inactive)
REMARK    1  A    between atoms: N1_1  and  C1_2 
REMARK    2  A    between atoms: C2_5  and  C3_6 
ROOT
HETATM    1  C3  LIG X 999      44.810 131.183  16.972  1.00  0.00     0.030 A 
HETATM    2  C4  LIG X 999      43.583 131.798  16.668  1.00  0.00     0.017 A 
HETATM    3  C5  LIG X 999      43.176 131.978  15.348  1.00  0.00     0.002 A 
HETATM    4  C6  LIG X 999      43.986 131.549  14.300  1.00  0.00     0.012 A 
HETATM    5  C7  LIG X 999      45.227 130.957  14.563  1.00  0.00    -0.025 A 
HETATM    6  C8  LIG X 999      46.045 130.552  13.495  1.00  0.00     0.012 A 
HETATM    7  C9  LIG X 999      47.300 129.996  13.741  1.00  0.00     0.001 A 
HETATM    8  C10 LIG X 999      47.755 129.850  15.050  1.00  0.00     0.001 A 
HETATM    9  C11 LIG X 999      46.953 130.243  16.125  1.00  0.00     0.013 A 
HETATM   10  C12 LIG X 999      45.665 130.780  15.906  1.00  0.00    -0.011 A 
ENDROOT
BRANCH   1  11
HETATM   11  C2  LIG X 999      45.128 130.953  18.401  1.00  0.00     0.205 A 
HETATM   12  N3  LIG X 999      45.895 129.936  18.849  1.00  0.00    -0.119 NA
HETATM   13  N2  LIG X 999      45.983 130.076  20.162  1.00  0.00    -0.103 NA
HETATM   14  C1  LIG X 999      45.270 131.177  20.460  1.00  0.00     0.265 A 
HETATM   15  O1  LIG X 999      44.747 131.725  19.392  1.00  0.00    -0.255 OA
BRANCH  14  16
HETATM   16  N1  LIG X 999      45.108 131.685  21.780  1.00  0.00    -0.362 N 
HETATM   17  H1  LIG X 999      44.153 131.794  22.187  1.00  0.00     0.159 HD
HETATM   18  H2  LIG X 999      45.942 131.951  22.349  1.00  0.00     0.159 HD
ENDBRANCH  14  16
ENDBRANCH   1  11
TORSDOF 2
