REMARK VINA RESULT:      -7.3      1.736      2.660
REMARK  5 active torsions:
REMARK  status: ('A' for Active; 'I' for Inactive)
REMARK    1  A    between atoms: C6_6  and  C7_7 
REMARK    2  A    between atoms: C7_7  and  N1_8 
REMARK    3  A    between atoms: N4_11  and  C8_12 
REMARK    4  A    between atoms: C8_12  and  C9_13 
REMARK    5  A    between atoms: C9_13  and  N5_14 
ROOT
HETATM    1  N1  LIG X 999      45.815 131.276  20.857  1.00  0.00    -0.052 NA
HETATM    2  N2  LIG X 999      46.436 132.286  21.190  1.00  0.00    -0.160 NA
HETATM    3  N3  LIG X 999      47.058 133.293  21.525  1.00  0.00     0.068 N 
ENDROOT
BRANCH   1   4
HETATM    4  C7  LIG X 999      44.619 131.337  20.062  1.00  0.00     0.191 C 
HETATM    5  N4  LIG X 999      43.456 131.424  20.641  1.00  0.00    -0.267 NA
BRANCH   4   6
HETATM    6  C6  LIG X 999      44.671 131.304  18.580  1.00  0.00     0.015 A 
HETATM    7  C5  LIG X 999      45.775 130.745  17.913  1.00  0.00     0.027 A 
HETATM    8  C4  LIG X 999      45.814 130.707  16.511  1.00  0.00    -0.025 A 
HETATM    9  C3  LIG X 999      46.918 130.156  15.840  1.00  0.00     0.012 A 
HETATM   10  C12 LIG X 999      44.730 131.227  15.764  1.00  0.00    -0.026 A 
HETATM   11  C2  LIG X 999      46.946 130.124  14.443  1.00  0.00     0.001 A 
HETATM   12  C1  LIG X 999      45.876 130.639  13.706  1.00  0.00     0.001 A 
HETATM   13  C13 LIG X 999      44.771 131.189  14.361  1.00  0.00     0.012 A 
HETATM   14  C11 LIG X 999      43.624 131.770  16.432  1.00  0.00     0.013 A 
HETATM   15  C10 LIG X 999      43.594 131.802  17.829  1.00  0.00     0.016 A 
ENDBRANCH   4   6
BRANCH   5  16
HETATM   16  C8  LIG X 999      43.231 131.492  22.085  1.00  0.00     0.181 C 
BRANCH  16  17
HETATM   17  C9  LIG X 999      43.209 130.093  22.707  1.00  0.00     0.288 C 
BRANCH  17  18
HETATM   18  N5  LIG X 999      44.524 129.729  23.227  1.00  0.00     0.079 N 
HETATM   19  H9  LIG X 999      44.489 128.720  23.501  1.00  0.00     0.312 HD
HETATM   20  H10 LIG X 999      44.687 130.263  24.111  1.00  0.00     0.312 HD
ENDBRANCH  17  18
ENDBRANCH  16  17
ENDBRANCH   5  16
ENDBRANCH   1   4
TORSDOF 5
