REMARK VINA RESULT:      -7.8      2.254      6.211
REMARK  5 active torsions:
REMARK  status: ('A' for Active; 'I' for Inactive)
REMARK    1  A    between atoms: N1_1  and  C1_2 
REMARK    2  A    between atoms: C1_2  and  C2_3 
REMARK    3  A    between atoms: C2_3  and  C3_4 
REMARK    4  A    between atoms: C3_4  and  O1_5 
REMARK    5  A    between atoms: O1_5  and  C4_6 
ROOT
HETATM    1  C4  LIG X 999      44.339 131.549  16.985  1.00  0.00     0.069 A 
HETATM    2  C5  LIG X 999      42.992 131.855  17.208  1.00  0.00     0.037 A 
HETATM    3  C6  LIG X 999      42.480 131.925  18.506  1.00  0.00     0.015 A 
HETATM    4  C7  LIG X 999      43.316 131.687  19.606  1.00  0.00    -0.026 A 
HETATM    5  C8  LIG X 999      42.813 131.755  20.915  1.00  0.00     0.012 A 
HETATM    6  C9  LIG X 999      43.656 131.516  22.004  1.00  0.00     0.001 A 
HETATM    7  C10 LIG X 999      45.004 131.208  21.795  1.00  0.00     0.001 A 
HETATM    8  C11 LIG X 999      45.517 131.138  20.497  1.00  0.00     0.012 A 
HETATM    9  C12 LIG X 999      44.680 131.377  19.395  1.00  0.00    -0.023 A 
HETATM   10  C13 LIG X 999      45.184 131.308  18.086  1.00  0.00     0.049 A 
ENDROOT
BRANCH   1  11
HETATM   11  O1  LIG X 999      44.796 131.494  15.660  1.00  0.00    -0.351 OA
BRANCH  11  12
HETATM   12  C3  LIG X 999      46.118 131.829  15.246  1.00  0.00     0.177 C 
BRANCH  12  13
HETATM   13  C2  LIG X 999      46.528 130.972  14.045  1.00  0.00     0.054 C 
BRANCH  13  14
HETATM   14  C1  LIG X 999      47.000 129.560  14.434  1.00  0.00     0.231 C 
BRANCH  14  15
HETATM   15  N1  LIG X 999      45.980 128.821  15.180  1.00  0.00    -0.079 N 
HETATM   16  H1  LIG X 999      45.251 129.475  15.550  1.00  0.00     0.274 HD
HETATM   17  H2  LIG X 999      45.521 128.135  14.539  1.00  0.00     0.274 HD
HETATM   18  H3  LIG X 999      46.417 128.291  15.968  1.00  0.00     0.274 HD
ENDBRANCH  14  15
ENDBRANCH  13  14
ENDBRANCH  12  13
ENDBRANCH  11  12
ENDBRANCH   1  11
TORSDOF 5
