MODEL 1
REMARK VINA RESULT:      -7.9      0.000      0.000
REMARK  1 active torsions:
REMARK  status: ('A' for Active; 'I' for Inactive)
REMARK    1  A    between atoms: C3_3  and  N1_4 
ROOT
HETATM    1  N1  LIG X 999      47.194 129.550  15.206  1.00  0.00    -0.072 NA
HETATM    2  N2  LIG X 999      47.881 129.530  14.184  1.00  0.00    -0.162 NA
HETATM    3  N3  LIG X 999      48.570 129.511  13.165  1.00  0.00     0.068 N 
ENDROOT
BRANCH   1   4
HETATM    4  C3  LIG X 999      46.003 130.343  15.312  1.00  0.00     0.104 A 
HETATM    5  C2  LIG X 999      45.413 130.780  14.120  1.00  0.00     0.035 A 
HETATM    6  C1  LIG X 999      44.212 131.491  14.133  1.00  0.00     0.003 A 
HETATM    7  C10 LIG X 999      43.584 131.790  15.339  1.00  0.00     0.012 A 
HETATM    8  C9  LIG X 999      44.168 131.408  16.553  1.00  0.00    -0.023 A 
HETATM    9  C4  LIG X 999      45.407 130.691  16.555  1.00  0.00     0.006 A 
HETATM   10  C8  LIG X 999      43.544 131.748  17.769  1.00  0.00     0.021 A 
HETATM   11  C5  LIG X 999      46.016 130.392  17.798  1.00  0.00     0.024 A 
HETATM   12  C6  LIG X 999      45.367 130.757  18.978  1.00  0.00    -0.023 A 
HETATM   13  C7  LIG X 999      44.171 131.402  18.964  1.00  0.00    -0.024 A 
HETATM   14  C14 LIG X 999      45.816 130.525  20.367  1.00  0.00     0.276 C 
HETATM   15  C11 LIG X 999      43.702 131.661  20.342  1.00  0.00     0.276 C 
HETATM   16  N4  LIG X 999      44.823 131.232  21.238  1.00  0.00    -0.067 N 
HETATM   17  C12 LIG X 999      44.326 130.330  22.301  1.00  0.00     0.272 C 
HETATM   18  C13 LIG X 999      45.453 132.418  21.866  1.00  0.00     0.272 C 
ENDBRANCH   1   4
TORSDOF 1
ENDMDL
MODEL 2
REMARK VINA RESULT:      -7.2      1.573      6.064
REMARK  1 active torsions:
REMARK  status: ('A' for Active; 'I' for Inactive)
REMARK    1  A    between atoms: C3_3  and  N1_4 
ROOT
HETATM    1  N1  LIG X 999      44.791 131.080  22.077  1.00  0.00    -0.072 NA
HETATM    2  N2  LIG X 999      44.664 130.014  22.680  1.00  0.00    -0.162 NA
HETATM    3  N3  LIG X 999      44.542 128.947  23.282  1.00  0.00     0.068 N 
ENDROOT
BRANCH   1   4
HETATM    4  C3  LIG X 999      43.807 131.552  21.145  1.00  0.00     0.104 A 
HETATM    5  C2  LIG X 999      42.629 132.095  21.672  1.00  0.00     0.035 A 
HETATM    6  C1  LIG X 999      41.656 132.644  20.837  1.00  0.00     0.003 A 
HETATM    7  C10 LIG X 999      41.836 132.650  19.456  1.00  0.00     0.012 A 
HETATM    8  C9  LIG X 999      42.981 132.076  18.890  1.00  0.00    -0.023 A 
HETATM    9  C4  LIG X 999      43.980 131.496  19.735  1.00  0.00     0.006 A 
HETATM   10  C8  LIG X 999      43.136 132.054  17.491  1.00  0.00     0.021 A 
HETATM   11  C5  LIG X 999      45.086 130.847  19.132  1.00  0.00     0.024 A 
HETATM   12  C6  LIG X 999      45.193 130.841  17.741  1.00  0.00    -0.023 A 
HETATM   13  C7  LIG X 999      44.258 131.431  16.950  1.00  0.00    -0.024 A 
HETATM   14  C14 LIG X 999      46.267 130.243  16.919  1.00  0.00     0.276 C 
HETATM   15  C11 LIG X 999      44.617 131.288  15.523  1.00  0.00     0.276 C 
HETATM   16  N4  LIG X 999      45.823 130.401  15.496  1.00  0.00    -0.067 N 
HETATM   17  C12 LIG X 999      46.899 131.008  14.679  1.00  0.00     0.272 C 
HETATM   18  C13 LIG X 999      45.470 129.080  14.925  1.00  0.00     0.272 C 
ENDBRANCH   1   4
TORSDOF 1
ENDMDL
MODEL 3
REMARK VINA RESULT:      -5.9      2.073      6.658
REMARK  1 active torsions:
REMARK  status: ('A' for Active; 'I' for Inactive)
REMARK    1  A    between atoms: C3_3  and  N1_4 
ROOT
HETATM    1  N1  LIG X 999      41.793 132.896  20.081  1.00  0.00    -0.072 NA
HETATM    2  N2  LIG X 999      41.024 133.320  20.945  1.00  0.00    -0.162 NA
HETATM    3  N3  LIG X 999      40.256 133.748  21.805  1.00  0.00     0.068 N 
ENDROOT
BRANCH   1   4
HETATM    4  C3  LIG X 999      42.989 132.174  20.410  1.00  0.00     0.104 A 
HETATM    5  C2  LIG X 999      43.272 131.983  21.768  1.00  0.00     0.035 A 
HETATM    6  C1  LIG X 999      44.374 131.228  22.171  1.00  0.00     0.003 A 
HETATM    7  C10 LIG X 999      45.222 130.659  21.224  1.00  0.00     0.012 A 
HETATM    8  C9  LIG X 999      44.994 130.866  19.857  1.00  0.00    -0.023 A 
HETATM    9  C4  LIG X 999      43.876 131.651  19.431  1.00  0.00     0.006 A 
HETATM   10  C8  LIG X 999      45.879 130.317  18.909  1.00  0.00     0.021 A 
HETATM   11  C5  LIG X 999      43.720 131.913  18.048  1.00  0.00     0.024 A 
HETATM   12  C6  LIG X 999      44.626 131.357  17.144  1.00  0.00    -0.023 A 
HETATM   13  C7  LIG X 999      45.661 130.580  17.559  1.00  0.00    -0.024 A 
HETATM   14  C14 LIG X 999      44.632 131.489  15.672  1.00  0.00     0.276 C 
HETATM   15  C11 LIG X 999      46.458 130.114  16.404  1.00  0.00     0.276 C 
HETATM   16  N4  LIG X 999      45.888 130.816  15.210  1.00  0.00    -0.067 N 
HETATM   17  C12 LIG X 999      45.594 129.848  14.128  1.00  0.00     0.272 C 
HETATM   18  C13 LIG X 999      46.850 131.825  14.706  1.00  0.00     0.272 C 
ENDBRANCH   1   4
TORSDOF 1
ENDMDL
MODEL 4
REMARK VINA RESULT:      -5.6      1.785      6.206
REMARK  1 active torsions:
REMARK  status: ('A' for Active; 'I' for Inactive)
REMARK    1  A    between atoms: C3_3  and  N1_4 
ROOT
HETATM    1  N1  LIG X 999      45.474 129.405  22.311  1.00  0.00    -0.072 NA
HETATM    2  N2  LIG X 999      45.129 128.399  22.934  1.00  0.00    -0.162 NA
HETATM    3  N3  LIG X 999      44.788 127.392  23.553  1.00  0.00     0.068 N 
ENDROOT
BRANCH   1   4
HETATM    4  C3  LIG X 999      44.521 130.323  21.756  1.00  0.00     0.104 A 
HETATM    5  C2  LIG X 999      43.552 130.846  22.620  1.00  0.00     0.035 A 
HETATM    6  C1  LIG X 999      42.637 131.801  22.177  1.00  0.00     0.003 A 
HETATM    7  C10 LIG X 999      42.665 132.244  20.857  1.00  0.00     0.012 A 
HETATM    8  C9  LIG X 999      43.592 131.710  19.953  1.00  0.00    -0.023 A 
HETATM    9  C4  LIG X 999      44.527 130.719  20.391  1.00  0.00     0.006 A 
HETATM   10  C8  LIG X 999      43.588 132.138  18.611  1.00  0.00     0.021 A 
HETATM   11  C5  LIG X 999      45.396 130.137  19.435  1.00  0.00     0.024 A 
HETATM   12  C6  LIG X 999      45.351 130.584  18.115  1.00  0.00    -0.023 A 
HETATM   13  C7  LIG X 999      44.486 131.554  17.719  1.00  0.00    -0.024 A 
HETATM   14  C14 LIG X 999      46.176 130.127  16.976  1.00  0.00     0.276 C 
HETATM   15  C11 LIG X 999      44.651 131.845  16.279  1.00  0.00     0.276 C 
HETATM   16  N4  LIG X 999      45.628 130.829  15.771  1.00  0.00    -0.067 N 
HETATM   17  C12 LIG X 999      46.716 131.486  15.011  1.00  0.00     0.272 C 
HETATM   18  C13 LIG X 999      44.939 129.859  14.887  1.00  0.00     0.272 C 
ENDBRANCH   1   4
TORSDOF 1
ENDMDL
MODEL 5
REMARK VINA RESULT:      -5.4      5.351      7.293
REMARK  1 active torsions:
REMARK  status: ('A' for Active; 'I' for Inactive)
REMARK    1  A    between atoms: C3_3  and  N1_4 
ROOT
HETATM    1  N1  LIG X 999      45.028 131.203  21.224  1.00  0.00    -0.072 NA
HETATM    2  N2  LIG X 999      44.605 131.448  20.093  1.00  0.00    -0.162 NA
HETATM    3  N3  LIG X 999      44.185 131.697  18.964  1.00  0.00     0.068 N 
ENDROOT
BRANCH   1   4
HETATM    4  C3  LIG X 999      44.173 130.723  22.272  1.00  0.00     0.104 A 
HETATM    5  C2  LIG X 999      43.309 131.646  22.872  1.00  0.00     0.035 A 
HETATM    6  C1  LIG X 999      42.395 131.244  23.846  1.00  0.00     0.003 A 
HETATM    7  C10 LIG X 999      42.334 129.912  24.248  1.00  0.00     0.012 A 
HETATM    8  C9  LIG X 999      43.214 128.969  23.701  1.00  0.00    -0.023 A 
HETATM    9  C4  LIG X 999      44.167 129.371  22.712  1.00  0.00     0.006 A 
HETATM   10  C8  LIG X 999      43.170 127.632  24.141  1.00  0.00     0.021 A 
HETATM   11  C5  LIG X 999      45.099 128.415  22.240  1.00  0.00     0.024 A 
HETATM   12  C6  LIG X 999      45.025 127.104  22.711  1.00  0.00    -0.023 A 
HETATM   13  C7  LIG X 999      44.090 126.725  23.621  1.00  0.00    -0.024 A 
HETATM   14  C14 LIG X 999      45.881 125.958  22.337  1.00  0.00     0.276 C 
HETATM   15  C11 LIG X 999      44.226 125.288  23.940  1.00  0.00     0.276 C 
HETATM   16  N4  LIG X 999      45.464 124.831  23.231  1.00  0.00    -0.067 N 
HETATM   17  C12 LIG X 999      45.192 123.610  22.440  1.00  0.00     0.272 C 
HETATM   18  C13 LIG X 999      46.535 124.541  24.215  1.00  0.00     0.272 C 
ENDBRANCH   1   4
TORSDOF 1
ENDMDL
MODEL 6
REMARK VINA RESULT:      -5.0      6.561      8.330
REMARK  1 active torsions:
REMARK  status: ('A' for Active; 'I' for Inactive)
REMARK    1  A    between atoms: C3_3  and  N1_4 
ROOT
HETATM    1  N1  LIG X 999      44.268 130.246  22.560  1.00  0.00    -0.072 NA
HETATM    2  N2  LIG X 999      43.761 130.996  21.724  1.00  0.00    -0.162 NA
HETATM    3  N3  LIG X 999      43.257 131.748  20.892  1.00  0.00     0.068 N 
ENDROOT
BRANCH   1   4
HETATM    4  C3  LIG X 999      43.549 129.144  23.133  1.00  0.00     0.104 A 
HETATM    5  C2  LIG X 999      42.325 129.426  23.752  1.00  0.00     0.035 A 
HETATM    6  C1  LIG X 999      41.530 128.403  24.268  1.00  0.00     0.003 A 
HETATM    7  C10 LIG X 999      41.948 127.077  24.186  1.00  0.00     0.012 A 
HETATM    8  C9  LIG X 999      43.187 126.762  23.614  1.00  0.00    -0.023 A 
HETATM    9  C4  LIG X 999      44.020 127.804  23.094  1.00  0.00     0.006 A 
HETATM   10  C8  LIG X 999      43.618 125.421  23.570  1.00  0.00     0.021 A 
HETATM   11  C5  LIG X 999      45.302 127.464  22.599  1.00  0.00     0.024 A 
HETATM   12  C6  LIG X 999      45.692 126.124  22.584  1.00  0.00    -0.023 A 
HETATM   13  C7  LIG X 999      44.876 125.139  23.044  1.00  0.00    -0.024 A 
HETATM   14  C14 LIG X 999      46.967 125.558  22.097  1.00  0.00     0.276 C 
HETATM   15  C11 LIG X 999      45.525 123.818  22.905  1.00  0.00     0.276 C 
HETATM   16  N4  LIG X 999      46.920 124.099  22.437  1.00  0.00    -0.067 N 
HETATM   17  C12 LIG X 999      47.248 123.276  21.250  1.00  0.00     0.272 C 
HETATM   18  C13 LIG X 999      47.889 123.798  23.517  1.00  0.00     0.272 C 
ENDBRANCH   1   4
TORSDOF 1
ENDMDL
