REMARK VINA RESULT:      -8.3      0.000      0.000
REMARK  1 active torsions:
REMARK  status: ('A' for Active; 'I' for Inactive)
REMARK    1  A    between atoms: N1_2  and  C1_3 
ROOT
HETATM    1  C1  LIG X 999      46.553 129.659  15.268  1.00  0.00     0.120 C 
HETATM    2  C2  LIG X 999      45.464 130.341  14.736  1.00  0.00     0.057 C 
HETATM    3  C3  LIG X 999      44.607 131.073  15.570  1.00  0.00    -0.045 C 
HETATM    4  C4  LIG X 999      43.656 132.019  14.878  1.00  0.00     0.049 C 
HETATM    5  C5  LIG X 999      44.778 130.994  16.990  1.00  0.00     0.008 C 
HETATM    6  C6  LIG X 999      43.856 131.508  17.963  1.00  0.00    -0.013 C 
HETATM    7  C7  LIG X 999      42.500 131.795  17.677  1.00  0.00     0.013 C 
HETATM    8  C8  LIG X 999      41.659 132.348  18.646  1.00  0.00     0.001 C 
HETATM    9  C9  LIG X 999      42.130 132.582  19.935  1.00  0.00     0.001 C 
HETATM   10  C10 LIG X 999      43.428 132.210  20.277  1.00  0.00     0.012 C 
HETATM   11  C11 LIG X 999      44.279 131.640  19.317  1.00  0.00    -0.025 C 
HETATM   12  C12 LIG X 999      45.524 131.151  19.716  1.00  0.00     0.014 C 
HETATM   13  C13 LIG X 999      46.338 130.484  18.811  1.00  0.00     0.031 C 
HETATM   14  C14 LIG X 999      45.980 130.388  17.461  1.00  0.00     0.045 C 
HETATM   15  N2  LIG X 999      46.808 129.727  16.602  1.00  0.00    -0.341 N 
HETATM   16  H12 LIG X 999      47.666 129.258  16.976  1.00  0.00     0.167 HD
ENDROOT
BRANCH   1  17
HETATM   17  N1  LIG X 999      47.340 128.997  14.478  1.00  0.00    -0.284 NA
HETATM   18  H1  LIG X 999      47.774 128.089  14.757  1.00  0.00     0.188 HD
ENDBRANCH   1  17
TORSDOF 1
