REMARK VINA RESULT:      -7.4      1.011      6.056
REMARK  1 active torsions:
REMARK  status: ('A' for Active; 'I' for Inactive)
REMARK    1  A    between atoms: C9_10  and  N2_11 
ROOT
HETATM    1  C1  LIG X 999      43.741 132.189  23.936  1.00  0.00     0.272 C 
HETATM    2  N1  LIG X 999      43.508 131.227  22.834  1.00  0.00    -0.067 N 
HETATM    3  C2  LIG X 999      42.766 130.058  23.365  1.00  0.00     0.272 C 
HETATM    4  C3  LIG X 999      44.809 130.781  22.239  1.00  0.00     0.276 C 
HETATM    5  C4  LIG X 999      44.651 130.940  20.777  1.00  0.00    -0.024 A 
HETATM    6  C5  LIG X 999      45.547 130.565  19.774  1.00  0.00     0.021 A 
HETATM    7  C6  LIG X 999      45.207 130.832  18.434  1.00  0.00    -0.025 A 
HETATM    8  C7  LIG X 999      46.073 130.470  17.392  1.00  0.00     0.014 A 
HETATM    9  C8  LIG X 999      45.729 130.741  16.065  1.00  0.00     0.030 A 
HETATM   10  C9  LIG X 999      44.516 131.375  15.760  1.00  0.00     0.026 A 
HETATM   11  C10 LIG X 999      43.642 131.742  16.793  1.00  0.00     0.041 A 
HETATM   12  C11 LIG X 999      43.975 131.476  18.130  1.00  0.00    -0.023 A 
HETATM   13  C12 LIG X 999      43.102 131.845  19.172  1.00  0.00     0.021 A 
HETATM   14  C13 LIG X 999      43.472 131.557  20.487  1.00  0.00    -0.024 A 
HETATM   15  C14 LIG X 999      42.731 131.869  21.727  1.00  0.00     0.276 C 
ENDROOT
BRANCH  10  16
HETATM   16  N2  LIG X 999      44.173 131.648  14.399  1.00  0.00    -0.399 N 
HETATM   17  H12 LIG X 999      44.873 132.061  13.743  1.00  0.00     0.156 HD
HETATM   18  H13 LIG X 999      43.216 131.439  14.036  1.00  0.00     0.156 HD
ENDBRANCH  10  16
TORSDOF 1
