REMARK VINA RESULT:      -5.3      1.098      2.361
REMARK  0 active torsions:
REMARK  status: ('A' for Active; 'I' for Inactive)
ROOT
HETATM    1  C1  LIG X 999      46.241 132.052  15.214  1.00  0.00     0.000 A 
HETATM    2  C2  LIG X 999      45.541 131.338  16.192  1.00  0.00     0.000 A 
HETATM    3  C3  LIG X 999      45.483 129.942  16.132  1.00  0.00     0.000 A 
HETATM    4  C4  LIG X 999      46.124 129.259  15.091  1.00  0.00     0.000 A 
HETATM    5  C5  LIG X 999      46.824 129.974  14.113  1.00  0.00     0.000 A 
HETATM    6  C6  LIG X 999      46.882 131.369  14.174  1.00  0.00     0.000 A 
ENDROOT
TORSDOF 0
