REMARK VINA RESULT:      -5.2      1.501      2.314
REMARK  5 active torsions:
REMARK  status: ('A' for Active; 'I' for Inactive)
REMARK    1  A    between atoms: C6_6  and  C7_7 
REMARK       I    between atoms: C7_7  and  N1_9 
REMARK    2  A    between atoms: N1_9  and  C8_11 
REMARK    3  A    between atoms: C8_11  and  C9_12 
REMARK    4  A    between atoms: C9_12  and  N2_13 
REMARK    5  A    between atoms: C13_19  and  N5_20 
ROOT
HETATM    1  N2  LIG X 999      43.481 129.682  23.638  1.00  0.00    -0.114 NA
HETATM    2  N3  LIG X 999      42.408 129.078  23.599  1.00  0.00    -0.168 NA
HETATM    3  N4  LIG X 999      41.338 128.473  23.561  1.00  0.00     0.068 N 
ENDROOT
BRANCH   1   4
HETATM    4  C9  LIG X 999      43.535 131.093  23.998  1.00  0.00     0.208 C 
BRANCH   4   5
HETATM    5  C8  LIG X 999      42.900 131.933  22.891  1.00  0.00     0.147 C 
BRANCH   5   6
HETATM    6  N1  LIG X 999      43.484 131.612  21.589  1.00  0.00    -0.355 N 
HETATM    7  C7  LIG X 999      42.952 132.171  20.377  1.00  0.00     0.251 C 
HETATM    8  O1  LIG X 999      42.068 133.070  20.444  1.00  0.00    -0.268 OA
HETATM    9  H4  LIG X 999      44.329 130.999  21.544  1.00  0.00     0.162 HD
BRANCH   7  10
HETATM   10  C6  LIG X 999      43.436 131.726  19.048  1.00  0.00     0.032 A 
HETATM   11  C1  LIG X 999      42.741 132.059  17.874  1.00  0.00     0.017 A 
HETATM   12  C2  LIG X 999      43.206 131.634  16.630  1.00  0.00     0.011 A 
HETATM   13  C3  LIG X 999      44.377 130.867  16.526  1.00  0.00    -0.024 A 
HETATM   14  C4  LIG X 999      45.105 130.555  17.699  1.00  0.00    -0.049 A 
HETATM   15  C13 LIG X 999      44.880 130.487  15.150  1.00  0.00     0.179 C 
HETATM   16  C5  LIG X 999      44.621 130.976  18.946  1.00  0.00     0.024 A 
HETATM   17  C10 LIG X 999      46.333 129.675  17.658  1.00  0.00     0.039 C 
HETATM   18  C11 LIG X 999      46.964 129.598  16.265  1.00  0.00     0.007 C 
HETATM   19  C12 LIG X 999      45.893 129.329  15.209  1.00  0.00     0.035 C 
BRANCH  15  20
HETATM   20  N5  LIG X 999      45.481 131.665  14.528  1.00  0.00    -0.105 NA
HETATM   21  N6  LIG X 999      46.524 131.582  13.878  1.00  0.00    -0.167 NA
HETATM   22  N7  LIG X 999      47.566 131.499  13.231  1.00  0.00     0.068 N 
ENDBRANCH  15  20
ENDBRANCH   7  10
ENDBRANCH   5   6
ENDBRANCH   4   5
ENDBRANCH   1   4
TORSDOF 5
