REMARK VINA RESULT:      -6.4      4.406      5.818
REMARK  1 active torsions:
REMARK  status: ('A' for Active; 'I' for Inactive)
REMARK    1  A    between atoms: C2_5  and  C3_6 
ROOT
HETATM    1  C3  LIG X 999      43.457 131.474  21.133  1.00  0.00     0.030 A 
HETATM    2  C4  LIG X 999      42.228 132.164  21.144  1.00  0.00     0.017 A 
HETATM    3  C5  LIG X 999      41.665 132.670  19.977  1.00  0.00     0.002 A 
HETATM    4  C6  LIG X 999      42.309 132.503  18.760  1.00  0.00     0.012 A 
HETATM    5  C7  LIG X 999      43.533 131.826  18.694  1.00  0.00    -0.025 A 
HETATM    6  C8  LIG X 999      44.159 131.673  17.447  1.00  0.00     0.012 A 
HETATM    7  C9  LIG X 999      45.375 131.004  17.346  1.00  0.00     0.001 A 
HETATM    8  C10 LIG X 999      45.976 130.481  18.486  1.00  0.00     0.001 A 
HETATM    9  C11 LIG X 999      45.369 130.622  19.737  1.00  0.00     0.013 A 
HETATM   10  C12 LIG X 999      44.132 131.296  19.878  1.00  0.00    -0.011 A 
ENDROOT
BRANCH   1  11
HETATM   11  C2  LIG X 999      43.941 130.986  22.463  1.00  0.00     0.203 A 
HETATM   12  O1  LIG X 999      44.134 129.709  22.735  1.00  0.00    -0.255 OA
HETATM   13  C1  LIG X 999      44.551 129.685  23.975  1.00  0.00     0.262 A 
HETATM   14  N1  LIG X 999      44.855 128.609  24.625  1.00  0.00    -0.260 NA
HETATM   15  N3  LIG X 999      44.623 130.917  24.491  1.00  0.00    -0.238 N 
HETATM   16  H1  LIG X 999      44.779 127.671  24.171  1.00  0.00     0.190 HD
HETATM   17  N2  LIG X 999      44.238 131.749  23.538  1.00  0.00    -0.145 NA
HETATM   18  H9  LIG X 999      44.921 131.197  25.451  1.00  0.00     0.193 HD
ENDBRANCH   1  11
TORSDOF 1
