REMARK VINA RESULT:      -5.6      1.165      2.313
REMARK  2 active torsions:
REMARK  status: ('A' for Active; 'I' for Inactive)
REMARK    1  A    between atoms: O1_2  and  C2_3 
REMARK    2  A    between atoms: C11_12  and  N1_13 
ROOT
HETATM    1  C2  LIG X 999      43.149 131.392  22.434  1.00  0.00     0.095 A 
HETATM    2  C3  LIG X 999      42.859 131.774  21.109  1.00  0.00     0.051 A 
HETATM    3  C4  LIG X 999      43.710 131.405  20.059  1.00  0.00    -0.023 A 
HETATM    4  C5  LIG X 999      43.419 131.785  18.733  1.00  0.00     0.021 A 
HETATM    5  C6  LIG X 999      44.297 131.399  17.719  1.00  0.00    -0.024 A 
HETATM    6  C7  LIG X 999      45.413 130.666  17.983  1.00  0.00    -0.024 A 
HETATM    7  C8  LIG X 999      45.734 130.264  19.280  1.00  0.00     0.021 A 
HETATM    8  C9  LIG X 999      44.876 130.639  20.334  1.00  0.00    -0.023 A 
HETATM    9  C10 LIG X 999      45.160 130.262  21.652  1.00  0.00     0.044 A 
HETATM   10  C11 LIG X 999      44.306 130.633  22.700  1.00  0.00     0.060 A 
HETATM   11  C12 LIG X 999      46.147 130.370  16.735  1.00  0.00     0.276 C 
HETATM   12  N2  LIG X 999      45.447 131.145  15.661  1.00  0.00    -0.067 N 
HETATM   13  C13 LIG X 999      45.152 130.278  14.498  1.00  0.00     0.272 C 
HETATM   14  C14 LIG X 999      46.295 132.276  15.216  1.00  0.00     0.272 C 
HETATM   15  C15 LIG X 999      44.180 131.663  16.268  1.00  0.00     0.276 C 
ENDROOT
BRANCH  10  16
HETATM   16  N1  LIG X 999      44.622 130.233  24.039  1.00  0.00    -0.397 N 
HETATM   17  H8  LIG X 999      44.083 129.473  24.510  1.00  0.00     0.156 HD
HETATM   18  H9  LIG X 999      45.394 130.687  24.576  1.00  0.00     0.156 HD
ENDBRANCH  10  16
BRANCH   1  19
HETATM   19  O1  LIG X 999      42.313 131.749  23.506  1.00  0.00    -0.354 OA
HETATM   20  C1  LIG X 999      42.721 132.530  24.625  1.00  0.00     0.210 C 
ENDBRANCH   1  19
TORSDOF 2
