REMARK VINA RESULT:      -6.9      2.241      7.950
REMARK  7 active torsions:
REMARK  status: ('A' for Active; 'I' for Inactive)
REMARK    1  A    between atoms: N1_2  and  C2_3 
REMARK    2  A    between atoms: C2_3  and  C4_5 
REMARK    3  A    between atoms: C4_5  and  C5_6 
REMARK    4  A    between atoms: C5_6  and  C6_7 
REMARK    5  A    between atoms: C6_7  and  C7_8 
REMARK    6  A    between atoms: C7_8  and  N2_9 
REMARK    7  A    between atoms: N2_9  and  C8_10 
ROOT
HETATM    1  C8  LIG X 999      43.224 131.267  22.903  1.00  0.00     0.226 C 
HETATM    2  C9  LIG X 999      42.340 131.990  22.101  1.00  0.00     0.065 C 
HETATM    3  C10 LIG X 999      42.619 132.195  20.740  1.00  0.00    -0.045 C 
HETATM    4  C11 LIG X 999      41.773 133.229  20.039  1.00  0.00     0.049 C 
HETATM    5  C12 LIG X 999      43.747 131.537  20.150  1.00  0.00     0.010 C 
HETATM    6  C13 LIG X 999      44.667 130.920  21.044  1.00  0.00     0.070 C 
HETATM    7  C14 LIG X 999      45.902 130.454  20.593  1.00  0.00     0.033 C 
HETATM    8  C15 LIG X 999      46.254 130.570  19.256  1.00  0.00     0.014 C 
HETATM    9  C16 LIG X 999      45.332 131.054  18.324  1.00  0.00    -0.025 C 
HETATM   10  C17 LIG X 999      45.676 131.060  16.962  1.00  0.00     0.012 C 
HETATM   11  C18 LIG X 999      44.731 131.410  16.000  1.00  0.00     0.001 C 
HETATM   12  C19 LIG X 999      43.430 131.715  16.385  1.00  0.00     0.001 C 
HETATM   13  C20 LIG X 999      43.077 131.727  17.737  1.00  0.00     0.013 C 
HETATM   14  C21 LIG X 999      44.039 131.481  18.745  1.00  0.00    -0.013 C 
HETATM   15  N3  LIG X 999      44.372 130.788  22.363  1.00  0.00    -0.224 NA
ENDROOT
BRANCH   1  16
HETATM   16  N2  LIG X 999      42.945 131.051  24.300  1.00  0.00    -0.028 N 
HETATM   17  H17 LIG X 999      42.017 131.474  24.533  1.00  0.00     0.285 HD
HETATM   18  H18 LIG X 999      43.667 131.532  24.888  1.00  0.00     0.285 HD
BRANCH  16  19
HETATM   19  C7  LIG X 999      42.910 129.616  24.625  1.00  0.00     0.240 C 
BRANCH  19  20
HETATM   20  C6  LIG X 999      41.595 128.952  24.176  1.00  0.00     0.028 C 
BRANCH  20  21
HETATM   21  C5  LIG X 999      41.606 127.449  24.475  1.00  0.00     0.004 C 
BRANCH  21  22
HETATM   22  C4  LIG X 999      40.603 126.702  23.578  1.00  0.00     0.035 C 
BRANCH  22  23
HETATM   23  C2  LIG X 999      40.755 125.163  23.624  1.00  0.00     0.216 C 
HETATM   24  C3  LIG X 999      39.715 124.533  24.568  1.00  0.00     0.042 C 
BRANCH  23  25
HETATM   25  N1  LIG X 999      40.655 124.590  22.267  1.00  0.00     0.083 N 
HETATM   26  C1  LIG X 999      41.970 124.252  21.714  1.00  0.00     0.307 C 
HETATM   27  H4  LIG X 999      40.247 125.316  21.631  1.00  0.00     0.315 HD
ENDBRANCH  23  25
ENDBRANCH  22  23
ENDBRANCH  21  22
ENDBRANCH  20  21
ENDBRANCH  19  20
ENDBRANCH  16  19
ENDBRANCH   1  16
TORSDOF 7
