MODEL 1
REMARK VINA RESULT:      -5.3      0.000      0.000
REMARK  4 active torsions:
REMARK  status: ('A' for Active; 'I' for Inactive)
REMARK    1  A    between atoms: C3_3  and  O1_4 
REMARK    2  A    between atoms: O1_4  and  C4_5 
REMARK    3  A    between atoms: C9_12  and  N2_13 
REMARK    4  A    between atoms: C11_17  and  C12_18 
ROOT
HETATM    1  C1  LIG X 999      44.983 130.987  21.147  1.00  0.00     0.014 C 
HETATM    2  C2  LIG X 999      44.076 130.888  21.935  1.00  0.00    -0.091 C 
HETATM    3  C3  LIG X 999      42.974 130.765  22.890  1.00  0.00     0.268 C 
ENDROOT
BRANCH   3   4
HETATM    4  O1  LIG X 999      43.253 129.699  23.791  1.00  0.00    -0.339 OA
BRANCH   4   5
HETATM    5  C4  LIG X 999      42.678 128.419  23.719  1.00  0.00     0.085 A 
HETATM    6  C5  LIG X 999      41.276 128.226  23.917  1.00  0.00     0.052 A 
HETATM    7  C6  LIG X 999      40.721 126.937  23.830  1.00  0.00     0.008 A 
HETATM    8  C7  LIG X 999      41.580 125.901  23.553  1.00  0.00     0.018 A 
HETATM    9  C15 LIG X 999      39.295 126.572  24.047  1.00  0.00     0.059 A 
HETATM   10  C8  LIG X 999      41.229 124.593  23.497  1.00  0.00     0.046 A 
HETATM   11  C10 LIG X 999      42.922 126.028  23.371  1.00  0.00     0.042 A 
HETATM   12  N1  LIG X 999      42.324 123.836  23.289  1.00  0.00    -0.337 N 
HETATM   13  C13 LIG X 999      39.835 124.171  23.716  1.00  0.00     0.033 A 
HETATM   14  H5  LIG X 999      42.361 122.794  23.237  1.00  0.00     0.167 HD
HETATM   15  C9  LIG X 999      43.369 124.709  23.216  1.00  0.00     0.176 A 
HETATM   16  C14 LIG X 999      38.910 125.122  23.974  1.00  0.00     0.034 A 
HETATM   17  C11 LIG X 999      43.524 127.304  23.432  1.00  0.00     0.050 A 
HETATM   18  N5  LIG X 999      38.410 127.484  24.299  1.00  0.00    -0.300 NA
HETATM   19  H9  LIG X 999      37.406 127.247  24.458  1.00  0.00     0.187 HD
BRANCH  15  20
HETATM   20  N2  LIG X 999      44.732 124.299  23.094  1.00  0.00    -0.053 NA
HETATM   21  N3  LIG X 999      45.054 123.352  22.376  1.00  0.00    -0.160 NA
HETATM   22  N4  LIG X 999      45.376 122.407  21.658  1.00  0.00     0.068 N 
ENDBRANCH  15  20
BRANCH  17  23
HETATM   23  C12 LIG X 999      44.967 127.528  23.199  1.00  0.00     0.273 C 
HETATM   24  O2  LIG X 999      45.462 127.500  22.043  1.00  0.00    -0.301 OA
ENDBRANCH  17  23
ENDBRANCH   4   5
ENDBRANCH   3   4
TORSDOF 4
ENDMDL
MODEL 2
REMARK VINA RESULT:      -5.0      2.940      5.009
REMARK  4 active torsions:
REMARK  status: ('A' for Active; 'I' for Inactive)
REMARK    1  A    between atoms: C3_3  and  O1_4 
REMARK    2  A    between atoms: O1_4  and  C4_5 
REMARK    3  A    between atoms: C9_12  and  N2_13 
REMARK    4  A    between atoms: C11_17  and  C12_18 
ROOT
HETATM    1  C1  LIG X 999      48.671 123.139  20.733  1.00  0.00     0.014 C 
HETATM    2  C2  LIG X 999      48.009 123.960  21.316  1.00  0.00    -0.091 C 
HETATM    3  C3  LIG X 999      47.205 124.957  22.022  1.00  0.00     0.268 C 
ENDROOT
BRANCH   3   4
HETATM    4  O1  LIG X 999      46.073 124.318  22.604  1.00  0.00    -0.339 OA
BRANCH   4   5
HETATM    5  C4  LIG X 999      44.833 124.938  22.831  1.00  0.00     0.085 A 
HETATM    6  C5  LIG X 999      44.751 126.322  23.179  1.00  0.00     0.052 A 
HETATM    7  C6  LIG X 999      43.499 126.924  23.392  1.00  0.00     0.008 A 
HETATM    8  C7  LIG X 999      42.388 126.128  23.253  1.00  0.00     0.018 A 
HETATM    9  C15 LIG X 999      43.253 128.336  23.794  1.00  0.00     0.059 A 
HETATM   10  C8  LIG X 999      41.112 126.524  23.483  1.00  0.00     0.046 A 
HETATM   11  C10 LIG X 999      42.410 124.805  22.939  1.00  0.00     0.042 A 
HETATM   12  N1  LIG X 999      40.276 125.478  23.338  1.00  0.00    -0.337 N 
HETATM   13  C13 LIG X 999      40.809 127.906  23.895  1.00  0.00     0.033 A 
HETATM   14  H5  LIG X 999      39.243 125.480  23.487  1.00  0.00     0.167 HD
HETATM   15  C9  LIG X 999      41.066 124.416  23.009  1.00  0.00     0.176 A 
HETATM   16  C14 LIG X 999      41.837 128.773  24.038  1.00  0.00     0.034 A 
HETATM   17  C11 LIG X 999      43.643 124.158  22.699  1.00  0.00     0.050 A 
HETATM   18  N5  LIG X 999      44.238 129.164  23.935  1.00  0.00    -0.300 NA
HETATM   19  H9  LIG X 999      44.087 130.157  24.219  1.00  0.00     0.187 HD
BRANCH  15  20
HETATM   20  N2  LIG X 999      40.573 123.084  22.856  1.00  0.00    -0.053 NA
HETATM   21  N3  LIG X 999      39.508 122.733  23.364  1.00  0.00    -0.160 NA
HETATM   22  N4  LIG X 999      38.444 122.382  23.870  1.00  0.00     0.068 N 
ENDBRANCH  15  20
BRANCH  17  23
HETATM   23  C12 LIG X 999      43.747 122.736  22.308  1.00  0.00     0.273 C 
HETATM   24  O2  LIG X 999      43.939 122.391  21.114  1.00  0.00    -0.301 OA
ENDBRANCH  17  23
ENDBRANCH   4   5
ENDBRANCH   3   4
TORSDOF 4
ENDMDL
MODEL 3
REMARK VINA RESULT:      -4.9      2.739      4.830
REMARK  4 active torsions:
REMARK  status: ('A' for Active; 'I' for Inactive)
REMARK    1  A    between atoms: C3_3  and  O1_4 
REMARK    2  A    between atoms: O1_4  and  C4_5 
REMARK    3  A    between atoms: C9_12  and  N2_13 
REMARK    4  A    between atoms: C11_17  and  C12_18 
ROOT
HETATM    1  C1  LIG X 999      47.797 123.051  21.167  1.00  0.00     0.014 C 
HETATM    2  C2  LIG X 999      46.705 123.169  21.665  1.00  0.00    -0.091 C 
HETATM    3  C3  LIG X 999      45.381 123.312  22.269  1.00  0.00     0.268 C 
ENDROOT
BRANCH   3   4
HETATM    4  O1  LIG X 999      45.090 124.696  22.436  1.00  0.00    -0.339 OA
BRANCH   4   5
HETATM    5  C4  LIG X 999      43.834 125.212  22.796  1.00  0.00     0.085 A 
HETATM    6  C5  LIG X 999      42.664 124.392  22.773  1.00  0.00     0.052 A 
HETATM    7  C6  LIG X 999      41.419 124.928  23.146  1.00  0.00     0.008 A 
HETATM    8  C7  LIG X 999      41.391 126.249  23.522  1.00  0.00     0.018 A 
HETATM    9  C15 LIG X 999      40.112 124.216  23.139  1.00  0.00     0.059 A 
HETATM   10  C8  LIG X 999      40.273 126.942  23.849  1.00  0.00     0.046 A 
HETATM   11  C10 LIG X 999      42.470 127.076  23.548  1.00  0.00     0.042 A 
HETATM   12  N1  LIG X 999      40.588 128.231  24.084  1.00  0.00    -0.337 N 
HETATM   13  C13 LIG X 999      38.950 126.293  23.847  1.00  0.00     0.033 A 
HETATM   14  H5  LIG X 999      39.924 129.001  24.321  1.00  0.00     0.167 HD
HETATM   15  C9  LIG X 999      41.935 128.323  23.895  1.00  0.00     0.176 A 
HETATM   16  C14 LIG X 999      38.877 124.986  23.511  1.00  0.00     0.034 A 
HETATM   17  C11 LIG X 999      43.746 126.581  23.197  1.00  0.00     0.050 A 
HETATM   18  N5  LIG X 999      40.043 122.965  22.812  1.00  0.00    -0.300 NA
HETATM   19  H9  LIG X 999      39.136 122.449  22.798  1.00  0.00     0.187 HD
BRANCH  15  20
HETATM   20  N2  LIG X 999      42.657 129.554  23.957  1.00  0.00    -0.053 NA
HETATM   21  N3  LIG X 999      42.854 130.233  22.949  1.00  0.00    -0.160 NA
HETATM   22  N4  LIG X 999      43.051 130.911  21.943  1.00  0.00     0.068 N 
ENDBRANCH  15  20
BRANCH  17  23
HETATM   23  C12 LIG X 999      44.973 127.405  23.244  1.00  0.00     0.273 C 
HETATM   24  O2  LIG X 999      45.347 128.089  22.257  1.00  0.00    -0.301 OA
ENDBRANCH  17  23
ENDBRANCH   4   5
ENDBRANCH   3   4
TORSDOF 4
ENDMDL
MODEL 4
REMARK VINA RESULT:      -4.4      2.897      4.914
REMARK  4 active torsions:
REMARK  status: ('A' for Active; 'I' for Inactive)
REMARK    1  A    between atoms: C3_3  and  O1_4 
REMARK    2  A    between atoms: O1_4  and  C4_5 
REMARK    3  A    between atoms: C9_12  and  N2_13 
REMARK    4  A    between atoms: C11_17  and  C12_18 
ROOT
HETATM    1  C1  LIG X 999      42.862 122.376  20.901  1.00  0.00     0.014 C 
HETATM    2  C2  LIG X 999      42.107 122.376  21.841  1.00  0.00    -0.091 C 
HETATM    3  C3  LIG X 999      41.192 122.375  22.982  1.00  0.00     0.268 C 
ENDROOT
BRANCH   3   4
HETATM    4  O1  LIG X 999      41.831 122.991  24.095  1.00  0.00    -0.339 OA
BRANCH   4   5
HETATM    5  C4  LIG X 999      42.353 124.295  24.098  1.00  0.00     0.085 A 
HETATM    6  C5  LIG X 999      41.505 125.431  23.914  1.00  0.00     0.052 A 
HETATM    7  C6  LIG X 999      42.048 126.727  23.931  1.00  0.00     0.008 A 
HETATM    8  C7  LIG X 999      43.404 126.838  24.127  1.00  0.00     0.018 A 
HETATM    9  C15 LIG X 999      41.306 128.000  23.718  1.00  0.00     0.059 A 
HETATM   10  C8  LIG X 999      44.101 128.000  24.108  1.00  0.00     0.046 A 
HETATM   11  C10 LIG X 999      44.256 125.791  24.292  1.00  0.00     0.042 A 
HETATM   12  N1  LIG X 999      45.416 127.745  24.248  1.00  0.00    -0.337 N 
HETATM   13  C13 LIG X 999      43.421 129.289  23.888  1.00  0.00     0.033 A 
HETATM   14  H5  LIG X 999      46.192 128.444  24.234  1.00  0.00     0.167 HD
HETATM   15  C9  LIG X 999      45.521 126.390  24.356  1.00  0.00     0.176 A 
HETATM   16  C14 LIG X 999      42.082 129.286  23.708  1.00  0.00     0.034 A 
HETATM   17  C11 LIG X 999      43.757 124.470  24.299  1.00  0.00     0.050 A 
HETATM   18  N5  LIG X 999      40.024 127.995  23.540  1.00  0.00    -0.300 NA
HETATM   19  H9  LIG X 999      39.486 128.876  23.385  1.00  0.00     0.187 HD
BRANCH  15  20
HETATM   20  N2  LIG X 999      46.769 125.699  24.427  1.00  0.00    -0.053 NA
HETATM   21  N3  LIG X 999      47.460 125.519  23.425  1.00  0.00    -0.160 NA
HETATM   22  N4  LIG X 999      48.151 125.340  22.423  1.00  0.00     0.068 N 
ENDBRANCH  15  20
BRANCH  17  23
HETATM   23  C12 LIG X 999      44.612 123.284  24.519  1.00  0.00     0.273 C 
HETATM   24  O2  LIG X 999      45.208 122.714  23.568  1.00  0.00    -0.301 OA
ENDBRANCH  17  23
ENDBRANCH   4   5
ENDBRANCH   3   4
TORSDOF 4
ENDMDL
MODEL 5
REMARK VINA RESULT:      -4.3      3.062      6.147
REMARK  4 active torsions:
REMARK  status: ('A' for Active; 'I' for Inactive)
REMARK    1  A    between atoms: C3_3  and  O1_4 
REMARK    2  A    between atoms: O1_4  and  C4_5 
REMARK    3  A    between atoms: C9_12  and  N2_13 
REMARK    4  A    between atoms: C11_17  and  C12_18 
ROOT
HETATM    1  C1  LIG X 999      45.060 122.376  21.636  1.00  0.00     0.014 C 
HETATM    2  C2  LIG X 999      44.779 122.393  22.808  1.00  0.00    -0.091 C 
HETATM    3  C3  LIG X 999      44.437 122.415  24.230  1.00  0.00     0.268 C 
ENDROOT
BRANCH   3   4
HETATM    4  O1  LIG X 999      43.108 122.900  24.385  1.00  0.00    -0.339 OA
BRANCH   4   5
HETATM    5  C4  LIG X 999      42.720 124.240  24.222  1.00  0.00     0.085 A 
HETATM    6  C5  LIG X 999      43.687 125.292  24.205  1.00  0.00     0.052 A 
HETATM    7  C6  LIG X 999      43.278 126.625  24.030  1.00  0.00     0.008 A 
HETATM    8  C7  LIG X 999      41.931 126.854  23.882  1.00  0.00     0.018 A 
HETATM    9  C15 LIG X 999      44.155 127.827  24.026  1.00  0.00     0.059 A 
HETATM   10  C8  LIG X 999      41.357 128.077  23.769  1.00  0.00     0.046 A 
HETATM   11  C10 LIG X 999      40.969 125.893  23.906  1.00  0.00     0.042 A 
HETATM   12  N1  LIG X 999      40.016 127.948  23.727  1.00  0.00    -0.337 N 
HETATM   13  C13 LIG X 999      42.174 129.302  23.772  1.00  0.00     0.033 A 
HETATM   14  H5  LIG X 999      39.317 128.723  23.677  1.00  0.00     0.167 HD
HETATM   15  C9  LIG X 999      39.770 126.610  23.816  1.00  0.00     0.176 A 
HETATM   16  C14 LIG X 999      43.515 129.179  23.890  1.00  0.00     0.034 A 
HETATM   17  C11 LIG X 999      41.331 124.536  24.063  1.00  0.00     0.050 A 
HETATM   18  N5  LIG X 999      45.439 127.708  24.144  1.00  0.00    -0.300 NA
HETATM   19  H9  LIG X 999      46.072 128.538  24.148  1.00  0.00     0.187 HD
BRANCH  15  20
HETATM   20  N2  LIG X 999      38.456 126.055  23.901  1.00  0.00    -0.053 NA
HETATM   21  N3  LIG X 999      37.469 126.683  23.518  1.00  0.00    -0.160 NA
HETATM   22  N4  LIG X 999      36.483 127.311  23.136  1.00  0.00     0.068 N 
ENDBRANCH  15  20
BRANCH  17  23
HETATM   23  C12 LIG X 999      40.349 123.431  24.053  1.00  0.00     0.273 C 
HETATM   24  O2  LIG X 999      39.732 123.106  23.006  1.00  0.00    -0.301 OA
ENDBRANCH  17  23
ENDBRANCH   4   5
ENDBRANCH   3   4
TORSDOF 4
ENDMDL
MODEL 6
REMARK VINA RESULT:      -3.9      2.817      5.421
REMARK  4 active torsions:
REMARK  status: ('A' for Active; 'I' for Inactive)
REMARK    1  A    between atoms: C3_3  and  O1_4 
REMARK    2  A    between atoms: O1_4  and  C4_5 
REMARK    3  A    between atoms: C9_12  and  N2_13 
REMARK    4  A    between atoms: C11_17  and  C12_18 
ROOT
HETATM    1  C1  LIG X 999      47.311 122.518  22.166  1.00  0.00     0.014 C 
HETATM    2  C2  LIG X 999      47.110 123.637  22.567  1.00  0.00    -0.091 C 
HETATM    3  C3  LIG X 999      46.867 124.995  23.052  1.00  0.00     0.268 C 
ENDROOT
BRANCH   3   4
HETATM    4  O1  LIG X 999      45.997 125.667  22.146  1.00  0.00    -0.339 OA
BRANCH   4   5
HETATM    5  C4  LIG X 999      44.999 126.581  22.523  1.00  0.00     0.085 A 
HETATM    6  C5  LIG X 999      45.182 127.988  22.348  1.00  0.00     0.052 A 
HETATM    7  C6  LIG X 999      44.166 128.884  22.723  1.00  0.00     0.008 A 
HETATM    8  C7  LIG X 999      43.019 128.346  23.256  1.00  0.00     0.018 A 
HETATM    9  C15 LIG X 999      44.221 130.369  22.637  1.00  0.00     0.059 A 
HETATM   10  C8  LIG X 999      41.970 129.062  23.729  1.00  0.00     0.046 A 
HETATM   11  C10 LIG X 999      42.801 127.019  23.458  1.00  0.00     0.042 A 
HETATM   12  N1  LIG X 999      41.052 128.230  24.257  1.00  0.00    -0.337 N 
HETATM   13  C13 LIG X 999      41.974 130.535  23.682  1.00  0.00     0.033 A 
HETATM   14  H5  LIG X 999      40.159 128.504  24.725  1.00  0.00     0.167 HD
HETATM   15  C9  LIG X 999      41.557 126.974  24.100  1.00  0.00     0.176 A 
HETATM   16  C14 LIG X 999      43.051 131.158  23.154  1.00  0.00     0.034 A 
HETATM   17  C11 LIG X 999      43.785 126.077  23.082  1.00  0.00     0.050 A 
HETATM   18  N5  LIG X 999      45.256 130.964  22.136  1.00  0.00    -0.300 NA
HETATM   19  H9  LIG X 999      45.314 132.004  22.071  1.00  0.00     0.187 HD
BRANCH  15  20
HETATM   20  N2  LIG X 999      40.926 125.800  24.615  1.00  0.00    -0.053 NA
HETATM   21  N3  LIG X 999      40.141 125.143  23.931  1.00  0.00    -0.160 NA
HETATM   22  N4  LIG X 999      39.357 124.485  23.249  1.00  0.00     0.068 N 
ENDBRANCH  15  20
BRANCH  17  23
HETATM   23  C12 LIG X 999      43.603 124.617  23.227  1.00  0.00     0.273 C 
HETATM   24  O2  LIG X 999      43.202 123.903  22.272  1.00  0.00    -0.301 OA
ENDBRANCH  17  23
ENDBRANCH   4   5
ENDBRANCH   3   4
TORSDOF 4
ENDMDL
MODEL 7
REMARK VINA RESULT:      -3.8      3.098      6.322
REMARK  4 active torsions:
REMARK  status: ('A' for Active; 'I' for Inactive)
REMARK    1  A    between atoms: C3_3  and  O1_4 
REMARK    2  A    between atoms: O1_4  and  C4_5 
REMARK    3  A    between atoms: C9_12  and  N2_13 
REMARK    4  A    between atoms: C11_17  and  C12_18 
ROOT
HETATM    1  C1  LIG X 999      40.123 123.872  21.616  1.00  0.00     0.014 C 
HETATM    2  C2  LIG X 999      40.404 123.295  22.637  1.00  0.00    -0.091 C 
HETATM    3  C3  LIG X 999      40.747 122.595  23.874  1.00  0.00     0.268 C 
ENDROOT
BRANCH   3   4
HETATM    4  O1  LIG X 999      41.659 123.390  24.625  1.00  0.00    -0.339 OA
BRANCH   4   5
HETATM    5  C4  LIG X 999      42.729 124.115  24.075  1.00  0.00     0.085 A 
HETATM    6  C5  LIG X 999      43.872 123.450  23.534  1.00  0.00     0.052 A 
HETATM    7  C6  LIG X 999      44.926 124.195  22.980  1.00  0.00     0.008 A 
HETATM    8  C7  LIG X 999      44.801 125.564  22.989  1.00  0.00     0.018 A 
HETATM    9  C15 LIG X 999      46.192 123.653  22.414  1.00  0.00     0.059 A 
HETATM   10  C8  LIG X 999      45.745 126.435  22.557  1.00  0.00     0.046 A 
HETATM   11  C10 LIG X 999      43.744 126.247  23.504  1.00  0.00     0.042 A 
HETATM   12  N1  LIG X 999      45.338 127.699  22.786  1.00  0.00    -0.337 N 
HETATM   13  C13 LIG X 999      47.022 125.956  22.000  1.00  0.00     0.033 A 
HETATM   14  H5  LIG X 999      45.875 128.572  22.589  1.00  0.00     0.167 HD
HETATM   15  C9  LIG X 999      44.112 127.592  23.372  1.00  0.00     0.176 A 
HETATM   16  C14 LIG X 999      47.231 124.623  21.928  1.00  0.00     0.034 A 
HETATM   17  C11 LIG X 999      42.651 125.542  24.057  1.00  0.00     0.050 A 
HETATM   18  N5  LIG X 999      46.393 122.375  22.351  1.00  0.00    -0.300 NA
HETATM   19  H9  LIG X 999      47.275 121.975  21.961  1.00  0.00     0.187 HD
BRANCH  15  20
HETATM   20  N2  LIG X 999      43.371 128.711  23.861  1.00  0.00    -0.053 NA
HETATM   21  N3  LIG X 999      43.171 129.703  23.159  1.00  0.00    -0.160 NA
HETATM   22  N4  LIG X 999      42.970 130.693  22.459  1.00  0.00     0.068 N 
ENDBRANCH  15  20
BRANCH  17  23
HETATM   23  C12 LIG X 999      41.447 126.211  24.594  1.00  0.00     0.273 C 
HETATM   24  O2  LIG X 999      40.537 126.640  23.838  1.00  0.00    -0.301 OA
ENDBRANCH  17  23
ENDBRANCH   4   5
ENDBRANCH   3   4
TORSDOF 4
ENDMDL
MODEL 8
REMARK VINA RESULT:      -3.7      6.197      9.285
REMARK  4 active torsions:
REMARK  status: ('A' for Active; 'I' for Inactive)
REMARK    1  A    between atoms: C3_3  and  O1_4 
REMARK    2  A    between atoms: O1_4  and  C4_5 
REMARK    3  A    between atoms: C9_12  and  N2_13 
REMARK    4  A    between atoms: C11_17  and  C12_18 
ROOT
HETATM    1  C1  LIG X 999      43.587 124.341  22.504  1.00  0.00     0.014 C 
HETATM    2  C2  LIG X 999      44.632 123.773  22.308  1.00  0.00    -0.091 C 
HETATM    3  C3  LIG X 999      45.901 123.085  22.071  1.00  0.00     0.268 C 
ENDROOT
BRANCH   3   4
HETATM    4  O1  LIG X 999      46.891 123.613  22.948  1.00  0.00    -0.339 OA
BRANCH   4   5
HETATM    5  C4  LIG X 999      48.170 124.035  22.549  1.00  0.00     0.085 A 
HETATM    6  C5  LIG X 999      48.834 123.432  21.437  1.00  0.00     0.052 A 
HETATM    7  C6  LIG X 999      50.110 123.877  21.050  1.00  0.00     0.008 A 
HETATM    8  C7  LIG X 999      50.668 124.896  21.783  1.00  0.00     0.018 A 
HETATM    9  C15 LIG X 999      50.940 123.328  19.944  1.00  0.00     0.059 A 
HETATM   10  C8  LIG X 999      51.911 125.402  21.591  1.00  0.00     0.046 A 
HETATM   11  C10 LIG X 999      50.087 125.494  22.857  1.00  0.00     0.042 A 
HETATM   12  N1  LIG X 999      52.176 126.328  22.533  1.00  0.00    -0.337 N 
HETATM   13  C13 LIG X 999      52.783 124.889  20.520  1.00  0.00     0.033 A 
HETATM   14  H5  LIG X 999      53.068 126.858  22.653  1.00  0.00     0.167 HD
HETATM   15  C9  LIG X 999      51.063 126.387  23.318  1.00  0.00     0.176 A 
HETATM   16  C14 LIG X 999      52.313 123.899  19.729  1.00  0.00     0.034 A 
HETATM   17  C11 LIG X 999      48.799 125.094  23.275  1.00  0.00     0.050 A 
HETATM   18  N5  LIG X 999      50.490 122.375  19.190  1.00  0.00    -0.300 NA
HETATM   19  H9  LIG X 999      51.059 121.975  18.411  1.00  0.00     0.187 HD
BRANCH  15  20
HETATM   20  N2  LIG X 999      50.971 127.188  24.497  1.00  0.00    -0.053 NA
HETATM   21  N3  LIG X 999      51.396 128.343  24.522  1.00  0.00    -0.160 NA
HETATM   22  N4  LIG X 999      51.819 129.497  24.546  1.00  0.00     0.068 N 
ENDBRANCH  15  20
BRANCH  17  23
HETATM   23  C12 LIG X 999      48.082 125.726  24.404  1.00  0.00     0.273 C 
HETATM   24  O2  LIG X 999      47.055 126.428  24.223  1.00  0.00    -0.301 OA
ENDBRANCH  17  23
ENDBRANCH   4   5
ENDBRANCH   3   4
TORSDOF 4
ENDMDL
MODEL 9
REMARK VINA RESULT:      -3.7      3.291      5.935
REMARK  4 active torsions:
REMARK  status: ('A' for Active; 'I' for Inactive)
REMARK    1  A    between atoms: C3_3  and  O1_4 
REMARK    2  A    between atoms: O1_4  and  C4_5 
REMARK    3  A    between atoms: C9_12  and  N2_13 
REMARK    4  A    between atoms: C11_17  and  C12_18 
ROOT
HETATM    1  C1  LIG X 999      46.090 129.739  16.617  1.00  0.00     0.014 C 
HETATM    2  C2  LIG X 999      45.665 130.366  17.554  1.00  0.00    -0.091 C 
HETATM    3  C3  LIG X 999      45.148 131.125  18.693  1.00  0.00     0.268 C 
ENDROOT
BRANCH   3   4
HETATM    4  O1  LIG X 999      45.899 130.794  19.856  1.00  0.00    -0.339 OA
BRANCH   4   5
HETATM    5  C4  LIG X 999      45.450 129.949  20.885  1.00  0.00     0.085 A 
HETATM    6  C5  LIG X 999      46.004 128.643  21.063  1.00  0.00     0.052 A 
HETATM    7  C6  LIG X 999      45.547 127.819  22.106  1.00  0.00     0.008 A 
HETATM    8  C7  LIG X 999      44.563 128.325  22.921  1.00  0.00     0.018 A 
HETATM    9  C15 LIG X 999      45.995 126.430  22.397  1.00  0.00     0.059 A 
HETATM   10  C8  LIG X 999      43.963 127.646  23.930  1.00  0.00     0.046 A 
HETATM   11  C10 LIG X 999      43.992 129.552  22.786  1.00  0.00     0.042 A 
HETATM   12  N1  LIG X 999      42.986 128.402  24.469  1.00  0.00    -0.337 N 
HETATM   13  C13 LIG X 999      44.356 126.264  24.255  1.00  0.00     0.033 A 
HETATM   14  H5  LIG X 999      42.336 128.124  25.237  1.00  0.00     0.167 HD
HETATM   15  C9  LIG X 999      42.994 129.571  23.768  1.00  0.00     0.176 A 
HETATM   16  C14 LIG X 999      45.334 125.686  23.522  1.00  0.00     0.034 A 
HETATM   17  C11 LIG X 999      44.429 130.424  21.764  1.00  0.00     0.050 A 
HETATM   18  N5  LIG X 999      46.928 125.876  21.690  1.00  0.00    -0.300 NA
HETATM   19  H9  LIG X 999      47.254 124.901  21.876  1.00  0.00     0.187 HD
BRANCH  15  20
HETATM   20  N2  LIG X 999      42.040 130.616  23.968  1.00  0.00    -0.053 NA
HETATM   21  N3  LIG X 999      42.392 131.750  24.297  1.00  0.00    -0.160 NA
HETATM   22  N4  LIG X 999      42.742 132.882  24.625  1.00  0.00     0.068 N 
ENDBRANCH  15  20
BRANCH  17  23
HETATM   23  C12 LIG X 999      43.890 131.789  21.582  1.00  0.00     0.273 C 
HETATM   24  O2  LIG X 999      42.867 132.008  20.884  1.00  0.00    -0.301 OA
ENDBRANCH  17  23
ENDBRANCH   4   5
ENDBRANCH   3   4
TORSDOF 4
ENDMDL
