REMARK VINA RESULT:      -4.3      5.510      7.897
REMARK  5 active torsions:
REMARK  status: ('A' for Active; 'I' for Inactive)
REMARK    1  A    between atoms: C3_3  and  C4_4 
REMARK    2  A    between atoms: C4_4  and  S1_5 
REMARK    3  A    between atoms: S1_5  and  C5_6 
REMARK    4  A    between atoms: C6_7  and  N1_8 
REMARK    5  A    between atoms: C10_12  and  N2_13 
ROOT
HETATM    1  C1  LIG X 999      44.338 132.282  24.243  1.00  0.00     0.112 C 
HETATM    2  C2  LIG X 999      43.657 131.045  23.860  1.00  0.00    -0.110 C 
HETATM    3  C3  LIG X 999      43.100 130.018  23.562  1.00  0.00    -0.097 C 
ENDROOT
BRANCH   3   4
HETATM    4  C4  LIG X 999      42.426 128.762  23.224  1.00  0.00     0.173 C 
BRANCH   4   5
HETATM    5  S1  LIG X 999      42.537 127.582  24.613  1.00  0.00    -0.115 SA
BRANCH   5   6
HETATM    6  C5  LIG X 999      42.581 126.101  23.565  1.00  0.00     0.038 A 
HETATM    7  C6  LIG X 999      41.371 125.544  23.096  1.00  0.00     0.043 A 
HETATM    8  C7  LIG X 999      41.398 124.381  22.324  1.00  0.00     0.031 A 
HETATM    9  C8  LIG X 999      42.599 123.750  22.016  1.00  0.00     0.017 A 
HETATM   10  C9  LIG X 999      43.825 124.271  22.469  1.00  0.00     0.002 A 
HETATM   11  C10 LIG X 999      45.066 123.629  22.174  1.00  0.00     0.045 A 
HETATM   12  C14 LIG X 999      43.816 125.490  23.221  1.00  0.00    -0.004 A 
HETATM   13  C11 LIG X 999      46.249 124.244  22.610  1.00  0.00     0.003 A 
HETATM   14  C12 LIG X 999      46.234 125.418  23.294  1.00  0.00    -0.021 A 
HETATM   15  C18 LIG X 999      47.648 123.781  22.432  1.00  0.00     0.278 C 
HETATM   16  C13 LIG X 999      45.047 126.066  23.609  1.00  0.00     0.023 A 
HETATM   17  C15 LIG X 999      47.607 125.856  23.624  1.00  0.00     0.276 C 
HETATM   18  N3  LIG X 999      48.494 124.717  23.238  1.00  0.00    -0.067 N 
HETATM   19  C16 LIG X 999      49.647 125.197  22.443  1.00  0.00     0.272 C 
HETATM   20  C17 LIG X 999      48.997 124.030  24.452  1.00  0.00     0.272 C 
BRANCH   7  21
HETATM   21  N1  LIG X 999      40.100 126.143  23.392  1.00  0.00    -0.398 N 
HETATM   22  H6  LIG X 999      40.048 127.023  23.952  1.00  0.00     0.156 HD
HETATM   23  H7  LIG X 999      39.197 125.729  23.077  1.00  0.00     0.156 HD
ENDBRANCH   7  21
BRANCH  11  24
HETATM   24  N2  LIG X 999      45.142 122.376  21.475  1.00  0.00    -0.398 N 
HETATM   25  H10 LIG X 999      45.933 122.129  20.844  1.00  0.00     0.156 HD
HETATM   26  H11 LIG X 999      44.340 121.708  21.489  1.00  0.00     0.156 HD
ENDBRANCH  11  24
ENDBRANCH   5   6
ENDBRANCH   4   5
ENDBRANCH   3   4
TORSDOF 5
