REMARK VINA RESULT:      -7.7      1.466      2.685
REMARK  1 active torsions:
REMARK  status: ('A' for Active; 'I' for Inactive)
REMARK    1  A    between atoms: N1_1  and  C1_2 
ROOT
HETATM    1  C1  LIG X 999      44.837 131.118  15.604  1.00  0.00     0.103 A 
HETATM    2  C2  LIG X 999      43.640 131.644  16.100  1.00  0.00     0.049 A 
HETATM    3  C3  LIG X 999      43.432 131.710  17.481  1.00  0.00     0.001 A 
HETATM    4  C4  LIG X 999      42.244 132.231  18.010  1.00  0.00     0.015 A 
HETATM    5  C5  LIG X 999      42.058 132.287  19.392  1.00  0.00     0.013 A 
HETATM    6  C6  LIG X 999      43.055 131.824  20.263  1.00  0.00    -0.023 A 
HETATM    7  C7  LIG X 999      42.865 131.881  21.653  1.00  0.00     0.012 A 
HETATM    8  C8  LIG X 999      43.858 131.419  22.518  1.00  0.00     0.001 A 
HETATM    9  C9  LIG X 999      45.048 130.896  22.006  1.00  0.00     0.001 A 
HETATM   10  C10 LIG X 999      45.252 130.832  20.626  1.00  0.00     0.015 A 
HETATM   11  C11 LIG X 999      44.262 131.294  19.739  1.00  0.00     0.009 A 
HETATM   12  C12 LIG X 999      44.447 131.238  18.342  1.00  0.00     0.101 A 
HETATM   13  O1  LIG X 999      45.573 130.744  17.828  1.00  0.00    -0.272 OA
HETATM   14  C13 LIG X 999      45.801 130.668  16.521  1.00  0.00     0.314 A 
HETATM   15  O2  LIG X 999      46.892 130.188  16.114  1.00  0.00    -0.257 OA
ENDROOT
BRANCH   1  16
HETATM   16  N1  LIG X 999      45.060 131.046  14.191  1.00  0.00    -0.394 N 
HETATM   17  H1  LIG X 999      46.025 130.977  13.798  1.00  0.00     0.156 HD
HETATM   18  H2  LIG X 999      44.257 131.063  13.523  1.00  0.00     0.156 HD
ENDBRANCH   1  16
TORSDOF 1
