REMARK VINA RESULT:      -7.1      2.446      5.868
REMARK  3 active torsions:
REMARK  status: ('A' for Active; 'I' for Inactive)
REMARK    1  A    between atoms: C3_3  and  O1_4 
REMARK    2  A    between atoms: O1_4  and  C4_5 
REMARK    3  A    between atoms: C5_7  and  C6_8 
ROOT
HETATM    1  C1  LIG X 999      44.254 129.224  22.800  1.00  0.00     0.014 C 
HETATM    2  C2  LIG X 999      43.715 130.272  22.546  1.00  0.00    -0.091 C 
HETATM    3  C3  LIG X 999      43.060 131.544  22.235  1.00  0.00     0.270 C 
ENDROOT
BRANCH   3   4
HETATM    4  O1  LIG X 999      43.479 131.981  20.950  1.00  0.00    -0.317 OA
BRANCH   4   5
HETATM    5  C4  LIG X 999      42.575 132.395  19.967  1.00  0.00     0.217 C 
HETATM    6  O2  LIG X 999      41.416 133.077  20.325  1.00  0.00    -0.164 OA
HETATM    7  C5  LIG X 999      42.819 132.152  18.677  1.00  0.00     0.079 C 
BRANCH   7   8
HETATM    8  C6  LIG X 999      44.050 131.474  18.213  1.00  0.00    -0.020 A 
HETATM    9  C7  LIG X 999      44.940 131.009  19.193  1.00  0.00     0.012 A 
HETATM   10  C8  LIG X 999      46.096 130.317  18.835  1.00  0.00     0.002 A 
HETATM   11  C9  LIG X 999      46.391 130.086  17.493  1.00  0.00     0.012 A 
HETATM   12  C10 LIG X 999      45.539 130.569  16.489  1.00  0.00    -0.025 A 
HETATM   13  C11 LIG X 999      45.856 130.357  15.138  1.00  0.00     0.012 A 
HETATM   14  C15 LIG X 999      44.362 131.285  16.840  1.00  0.00    -0.015 A 
HETATM   15  C12 LIG X 999      45.030 130.863  14.134  1.00  0.00     0.001 A 
HETATM   16  C13 LIG X 999      43.889 131.593  14.467  1.00  0.00     0.001 A 
HETATM   17  C14 LIG X 999      43.559 131.813  15.806  1.00  0.00     0.013 A 
ENDBRANCH   7   8
ENDBRANCH   4   5
ENDBRANCH   3   4
TORSDOF 3
