REMARK VINA RESULT:      -6.0      2.116      5.860
REMARK  1 active torsions:
REMARK  status: ('A' for Active; 'I' for Inactive)
REMARK    1  A    between atoms: C12_13  and  N2_14 
ROOT
HETATM    1  C1  LIG X 999      42.997 130.596  24.624  1.00  0.00     0.272 C 
HETATM    2  N1  LIG X 999      43.456 131.580  23.617  1.00  0.00    -0.067 N 
HETATM    3  C2  LIG X 999      43.776 132.856  24.301  1.00  0.00     0.272 C 
HETATM    4  C3  LIG X 999      42.402 131.806  22.580  1.00  0.00     0.276 C 
HETATM    5  C4  LIG X 999      43.090 131.672  21.278  1.00  0.00    -0.021 A 
HETATM    6  C5  LIG X 999      42.557 131.912  20.017  1.00  0.00     0.022 A 
HETATM    7  C6  LIG X 999      43.367 131.707  18.887  1.00  0.00    -0.023 A 
HETATM    8  C7  LIG X 999      42.844 131.939  17.607  1.00  0.00     0.012 A 
HETATM    9  C8  LIG X 999      43.630 131.722  16.475  1.00  0.00     0.001 A 
HETATM   10  C9  LIG X 999      44.940 131.266  16.610  1.00  0.00     0.001 A 
HETATM   11  C10 LIG X 999      45.482 131.030  17.876  1.00  0.00     0.014 A 
HETATM   12  C11 LIG X 999      44.715 131.254  19.040  1.00  0.00     0.001 A 
HETATM   13  C12 LIG X 999      45.231 131.029  20.352  1.00  0.00     0.045 A 
HETATM   14  C13 LIG X 999      44.373 131.247  21.445  1.00  0.00     0.003 A 
HETATM   15  C14 LIG X 999      44.661 131.070  22.890  1.00  0.00     0.278 C 
ENDROOT
BRANCH  13  16
HETATM   16  N2  LIG X 999      46.580 130.597  20.591  1.00  0.00    -0.398 N 
HETATM   17  H14 LIG X 999      47.380 131.046  20.092  1.00  0.00     0.156 HD
HETATM   18  H15 LIG X 999      46.818 129.784  21.195  1.00  0.00     0.156 HD
ENDBRANCH  13  16
TORSDOF 1
