REMARK VINA RESULT:      -8.4      0.000      0.000
REMARK  2 active torsions:
REMARK  status: ('A' for Active; 'I' for Inactive)
REMARK    1  A    between atoms: C2_2  and  N1_3 
REMARK    2  A    between atoms: C3_6  and  O1_7 
ROOT
HETATM    1  N1  LIG X 999      46.870 129.988  15.072  1.00  0.00    -0.070 NA
HETATM    2  N2  LIG X 999      47.289 130.657  14.128  1.00  0.00    -0.162 NA
HETATM    3  N3  LIG X 999      47.713 131.320  13.181  1.00  0.00     0.068 N 
ENDROOT
BRANCH   1   4
HETATM    4  C2  LIG X 999      45.924 130.479  16.039  1.00  0.00     0.127 A 
HETATM    5  C1  LIG X 999      46.209 130.246  17.391  1.00  0.00     0.049 A 
HETATM    6  C11 LIG X 999      45.341 130.689  18.395  1.00  0.00    -0.023 A 
HETATM    7  C6  LIG X 999      44.155 131.386  18.040  1.00  0.00    -0.022 A 
HETATM    8  C10 LIG X 999      45.636 130.453  19.753  1.00  0.00     0.021 A 
HETATM    9  C5  LIG X 999      43.868 131.621  16.690  1.00  0.00     0.051 A 
HETATM   10  C7  LIG X 999      43.279 131.837  19.049  1.00  0.00     0.021 A 
HETATM   11  C3  LIG X 999      44.742 131.174  15.679  1.00  0.00     0.100 A 
HETATM   12  C8  LIG X 999      43.604 131.577  20.381  1.00  0.00    -0.024 A 
HETATM   13  C9  LIG X 999      44.740 130.909  20.721  1.00  0.00    -0.024 A 
HETATM   14  C15 LIG X 999      42.851 131.972  21.592  1.00  0.00     0.276 C 
HETATM   15  C12 LIG X 999      44.856 130.795  22.190  1.00  0.00     0.276 C 
HETATM   16  N4  LIG X 999      43.569 131.330  22.739  1.00  0.00    -0.067 N 
HETATM   17  C13 LIG X 999      42.753 130.223  23.293  1.00  0.00     0.272 C 
HETATM   18  C14 LIG X 999      43.830 132.318  23.811  1.00  0.00     0.272 C 
BRANCH  11  19
HETATM   19  O1  LIG X 999      44.460 131.405  14.322  1.00  0.00    -0.353 OA
HETATM   20  C4  LIG X 999      43.163 131.648  13.788  1.00  0.00     0.210 C 
ENDBRANCH  11  19
ENDBRANCH   1   4
TORSDOF 2
