REMARK VINA RESULT:      -6.4      4.495      5.777
REMARK  1 active torsions:
REMARK  status: ('A' for Active; 'I' for Inactive)
REMARK    1  A    between atoms: C2_5  and  C3_6 
ROOT
HETATM    1  C3  LIG X 999      43.382 131.573  21.283  1.00  0.00     0.030 A 
HETATM    2  C4  LIG X 999      42.187 132.310  21.310  1.00  0.00     0.017 A 
HETATM    3  C5  LIG X 999      41.616 132.794  20.134  1.00  0.00     0.002 A 
HETATM    4  C6  LIG X 999      42.228 132.558  18.906  1.00  0.00     0.012 A 
HETATM    5  C7  LIG X 999      43.438 131.855  18.845  1.00  0.00    -0.025 A 
HETATM    6  C8  LIG X 999      44.062 131.648  17.604  1.00  0.00     0.012 A 
HETATM    7  C9  LIG X 999      45.287 130.987  17.532  1.00  0.00     0.001 A 
HETATM    8  C10 LIG X 999      45.908 130.539  18.697  1.00  0.00     0.001 A 
HETATM    9  C11 LIG X 999      45.301 130.732  19.940  1.00  0.00     0.013 A 
HETATM   10  C12 LIG X 999      44.043 131.367  20.038  1.00  0.00    -0.011 A 
ENDROOT
BRANCH   1  11
HETATM   11  C2  LIG X 999      43.868 131.023  22.570  1.00  0.00     0.203 A 
HETATM   12  O1  LIG X 999      44.034 129.736  22.799  1.00  0.00    -0.255 OA
HETATM   13  C1  LIG X 999      44.513 129.677  24.016  1.00  0.00     0.262 A 
HETATM   14  N1  LIG X 999      44.812 128.575  24.625  1.00  0.00    -0.260 NA
HETATM   15  N3  LIG X 999      44.657 130.901  24.547  1.00  0.00    -0.238 N 
HETATM   16  H1  LIG X 999      45.192 128.581  25.597  1.00  0.00     0.190 HD
HETATM   17  N2  LIG X 999      44.255 131.766  23.631  1.00  0.00    -0.145 NA
HETATM   18  H9  LIG X 999      45.019 131.151  25.494  1.00  0.00     0.193 HD
ENDBRANCH   1  11
TORSDOF 1
