REMARK VINA RESULT:      -8.7      0.000      0.000
REMARK  1 active torsions:
REMARK  status: ('A' for Active; 'I' for Inactive)
REMARK    1  A    between atoms: C12_13  and  N2_14 
ROOT
HETATM    1  C1  LIG X 999      46.106 132.123  15.333  1.00  0.00     0.272 C 
HETATM    2  N1  LIG X 999      45.319 131.004  15.906  1.00  0.00    -0.067 N 
HETATM    3  C2  LIG X 999      45.148 129.958  14.871  1.00  0.00     0.272 C 
HETATM    4  C3  LIG X 999      46.018 130.450  17.107  1.00  0.00     0.276 C 
HETATM    5  C4  LIG X 999      45.202 130.866  18.267  1.00  0.00    -0.021 A 
HETATM    6  C5  LIG X 999      45.505 130.691  19.613  1.00  0.00     0.022 A 
HETATM    7  C6  LIG X 999      44.586 131.137  20.579  1.00  0.00    -0.023 A 
HETATM    8  C7  LIG X 999      44.873 130.964  21.941  1.00  0.00     0.012 A 
HETATM    9  C8  LIG X 999      43.964 131.385  22.910  1.00  0.00     0.001 A 
HETATM   10  C9  LIG X 999      42.759 131.974  22.531  1.00  0.00     0.001 A 
HETATM   11  C10 LIG X 999      42.453 132.156  21.180  1.00  0.00     0.014 A 
HETATM   12  C11 LIG X 999      43.361 131.755  20.176  1.00  0.00     0.001 A 
HETATM   13  C12 LIG X 999      43.091 131.925  18.784  1.00  0.00     0.045 A 
HETATM   14  C13 LIG X 999      44.044 131.457  17.865  1.00  0.00     0.003 A 
HETATM   15  C14 LIG X 999      43.990 131.501  16.381  1.00  0.00     0.278 C 
ENDROOT
BRANCH  13  16
HETATM   16  N2  LIG X 999      41.894 132.557  18.299  1.00  0.00    -0.398 N 
HETATM   17  H14 LIG X 999      41.946 133.419  17.711  1.00  0.00     0.156 HD
HETATM   18  H15 LIG X 999      40.938 132.246  18.568  1.00  0.00     0.156 HD
ENDBRANCH  13  16
TORSDOF 1
