REMARK VINA RESULT:      -5.3      3.544      6.119
REMARK  5 active torsions:
REMARK  status: ('A' for Active; 'I' for Inactive)
REMARK    1  A    between atoms: O1_2  and  C1_3 
REMARK    2  A    between atoms: C1_3  and  O4_19 
REMARK       I    between atoms: N1_4  and  C2_5 
REMARK    3  A    between atoms: C2_5  and  C3_7 
REMARK    4  A    between atoms: C4_8  and  O3_9 
REMARK    5  A    between atoms: O4_19  and  C13_20 
ROOT
HETATM    1  C3  LIG X 999      42.806 131.715  20.005  1.00  0.00     0.068 A 
HETATM    2  C4  LIG X 999      42.159 132.571  20.919  1.00  0.00     0.082 A 
HETATM    3  C5  LIG X 999      42.306 132.363  22.298  1.00  0.00     0.049 A 
HETATM    4  C6  LIG X 999      43.111 131.321  22.778  1.00  0.00    -0.023 A 
HETATM    5  C7  LIG X 999      43.263 131.112  24.158  1.00  0.00     0.012 A 
HETATM    6  C8  LIG X 999      44.073 130.073  24.624  1.00  0.00     0.001 A 
HETATM    7  C9  LIG X 999      44.736 129.238  23.721  1.00  0.00     0.001 A 
HETATM    8  C10 LIG X 999      44.594 129.437  22.345  1.00  0.00     0.012 A 
HETATM    9  C11 LIG X 999      43.782 130.477  21.864  1.00  0.00    -0.025 A 
HETATM   10  C12 LIG X 999      43.630 130.683  20.485  1.00  0.00     0.032 A 
ENDROOT
BRANCH   1  11
HETATM   11  C2  LIG X 999      42.663 131.905  18.541  1.00  0.00     0.283 C 
HETATM   12  N1  LIG X 999      43.693 131.534  17.614  1.00  0.00    -0.162 NA
HETATM   13  C1  LIG X 999      44.974 131.632  17.822  1.00  0.00     0.289 C 
HETATM   14  O2  LIG X 999      41.585 132.375  18.088  1.00  0.00    -0.265 OA
BRANCH  13  15
HETATM   15  O1  LIG X 999      45.459 132.209  18.994  1.00  0.00    -0.325 OA
HETATM   16  H1  LIG X 999      45.689 133.194  19.026  1.00  0.00     0.221 HD
ENDBRANCH  13  15
BRANCH  13  17
HETATM   17  O4  LIG X 999      45.893 131.186  16.861  1.00  0.00    -0.294 OA
BRANCH  17  18
HETATM   18  C13 LIG X 999      45.592 130.911  15.489  1.00  0.00     0.224 C 
HETATM   19 CL1  LIG X 999      45.243 129.177  15.235  1.00  0.00    -0.095 Cl
HETATM   20  C14 LIG X 999      46.713 131.387  14.566  1.00  0.00     0.057 C 
ENDBRANCH  17  18
ENDBRANCH  13  17
ENDBRANCH   1  11
BRANCH   2  21
HETATM   21  O3  LIG X 999      41.385 133.637  20.460  1.00  0.00    -0.360 OA
HETATM   22  H2  LIG X 999      41.786 134.551  20.287  1.00  0.00     0.217 HD
ENDBRANCH   2  21
TORSDOF 5
