REMARK VINA RESULT:      -7.1      2.298      3.300
REMARK  5 active torsions:
REMARK  status: ('A' for Active; 'I' for Inactive)
REMARK    1  A    between atoms: C6_6  and  O1_7 
REMARK    2  A    between atoms: O1_7  and  C7_8 
REMARK    3  A    between atoms: C7_8  and  O3_10 
REMARK    4  A    between atoms: O3_10  and  C8_11 
REMARK    5  A    between atoms: C8_11  and  N1_12 
ROOT
HETATM    1  N1  LIG X 999      43.223 129.941  22.822  1.00  0.00    -0.089 NA
HETATM    2  N2  LIG X 999      44.001 129.105  23.280  1.00  0.00    -0.165 NA
HETATM    3  N3  LIG X 999      44.778 128.268  23.738  1.00  0.00     0.068 N 
ENDROOT
BRANCH   1   4
HETATM    4  C8  LIG X 999      43.698 130.978  21.922  1.00  0.00     0.370 C 
BRANCH   4   5
HETATM    5  O3  LIG X 999      42.800 131.092  20.824  1.00  0.00    -0.273 OA
BRANCH   5   6
HETATM    6  C7  LIG X 999      42.961 132.044  19.815  1.00  0.00     0.413 C 
HETATM    7  O2  LIG X 999      41.952 132.604  19.301  1.00  0.00    -0.229 OA
BRANCH   6   8
HETATM    8  O1  LIG X 999      44.251 132.320  19.347  1.00  0.00    -0.256 OA
BRANCH   8   9
HETATM    9  C6  LIG X 999      44.908 131.624  18.321  1.00  0.00     0.082 A 
HETATM   10  C5  LIG X 999      44.928 132.087  16.992  1.00  0.00     0.049 A 
HETATM   11  C4  LIG X 999      45.607 131.364  15.999  1.00  0.00    -0.023 A 
HETATM   12  C3  LIG X 999      45.624 131.815  14.670  1.00  0.00     0.012 A 
HETATM   13  C11 LIG X 999      46.285 130.169  16.341  1.00  0.00    -0.026 A 
HETATM   14  C2  LIG X 999      46.304 131.087  13.690  1.00  0.00     0.001 A 
HETATM   15  C1  LIG X 999      46.971 129.907  14.027  1.00  0.00     0.001 A 
HETATM   16  C12 LIG X 999      46.965 129.447  15.347  1.00  0.00     0.012 A 
HETATM   17  C10 LIG X 999      46.279 129.724  17.670  1.00  0.00     0.015 A 
HETATM   18  C9  LIG X 999      45.600 130.452  18.650  1.00  0.00     0.038 A 
ENDBRANCH   8   9
ENDBRANCH   6   8
ENDBRANCH   5   6
ENDBRANCH   4   5
ENDBRANCH   1   4
TORSDOF 5
