MODEL 1
REMARK VINA RESULT:      -8.8      0.000      0.000
REMARK  1 active torsions:
REMARK  status: ('A' for Active; 'I' for Inactive)
REMARK    1  A    between atoms: C2_5  and  C3_6 
ROOT
HETATM    1  C3  LIG X 999      44.349 131.556  17.332  1.00  0.00     0.028 A 
HETATM    2  C4  LIG X 999      43.048 131.935  16.925  1.00  0.00     0.017 A 
HETATM    3  C5  LIG X 999      42.033 132.172  17.844  1.00  0.00     0.002 A 
HETATM    4  C6  LIG X 999      42.272 132.040  19.203  1.00  0.00     0.012 A 
HETATM    5  C7  LIG X 999      43.538 131.669  19.664  1.00  0.00    -0.025 A 
HETATM    6  C8  LIG X 999      43.746 131.546  21.047  1.00  0.00     0.012 A 
HETATM    7  C9  LIG X 999      44.993 131.177  21.542  1.00  0.00     0.001 A 
HETATM    8  C10 LIG X 999      46.043 130.930  20.665  1.00  0.00     0.001 A 
HETATM    9  C11 LIG X 999      45.856 131.047  19.286  1.00  0.00     0.013 A 
HETATM   10  C12 LIG X 999      44.601 131.419  18.741  1.00  0.00    -0.011 A 
ENDROOT
BRANCH   1  11
HETATM   11  C2  LIG X 999      45.377 131.324  16.258  1.00  0.00     0.177 A 
HETATM   12  O1  LIG X 999      45.942 130.165  15.983  1.00  0.00    -0.258 OA
HETATM   13  C1  LIG X 999      46.767 130.399  14.992  1.00  0.00     0.260 A 
HETATM   14  N1  LIG X 999      47.514 129.503  14.435  1.00  0.00    -0.261 NA
HETATM   15  N3  LIG X 999      46.742 131.687  14.626  1.00  0.00    -0.262 N 
HETATM   16  H1  LIG X 999      47.493 128.512  14.762  1.00  0.00     0.190 HD
HETATM   17  N2  LIG X 999      45.867 132.274  15.421  1.00  0.00    -0.276 N 
HETATM   18  H10 LIG X 999      47.292 132.155  13.871  1.00  0.00     0.190 HD
HETATM   19  H9  LIG X 999      45.636 133.289  15.367  1.00  0.00     0.189 HD
ENDBRANCH   1  11
TORSDOF 1
ENDMDL
MODEL 2
REMARK VINA RESULT:      -8.5      1.068      2.906
REMARK  1 active torsions:
REMARK  status: ('A' for Active; 'I' for Inactive)
REMARK    1  A    between atoms: C2_5  and  C3_6 
ROOT
HETATM    1  C3  LIG X 999      45.389 130.835  18.276  1.00  0.00     0.028 A 
HETATM    2  C4  LIG X 999      46.301 130.546  19.318  1.00  0.00     0.017 A 
HETATM    3  C5  LIG X 999      46.010 130.832  20.647  1.00  0.00     0.002 A 
HETATM    4  C6  LIG X 999      44.803 131.420  20.989  1.00  0.00     0.012 A 
HETATM    5  C7  LIG X 999      43.863 131.728  20.002  1.00  0.00    -0.025 A 
HETATM    6  C8  LIG X 999      42.650 132.322  20.386  1.00  0.00     0.012 A 
HETATM    7  C9  LIG X 999      41.690 132.644  19.431  1.00  0.00     0.001 A 
HETATM    8  C10 LIG X 999      41.931 132.376  18.087  1.00  0.00     0.001 A 
HETATM    9  C11 LIG X 999      43.131 131.787  17.686  1.00  0.00     0.013 A 
HETATM   10  C12 LIG X 999      44.134 131.444  18.628  1.00  0.00    -0.011 A 
ENDROOT
BRANCH   1  11
HETATM   11  C2  LIG X 999      45.798 130.485  16.871  1.00  0.00     0.177 A 
HETATM   12  O1  LIG X 999      46.189 131.347  15.954  1.00  0.00    -0.258 OA
HETATM   13  C1  LIG X 999      46.450 130.635  14.885  1.00  0.00     0.260 A 
HETATM   14  N1  LIG X 999      46.864 131.125  13.763  1.00  0.00    -0.261 NA
HETATM   15  N3  LIG X 999      46.235 129.331  15.100  1.00  0.00    -0.262 N 
HETATM   16  H1  LIG X 999      47.014 132.152  13.652  1.00  0.00     0.190 HD
HETATM   17  N2  LIG X 999      45.825 129.231  16.351  1.00  0.00    -0.276 N 
HETATM   18  H10 LIG X 999      46.359 128.537  14.433  1.00  0.00     0.190 HD
HETATM   19  H9  LIG X 999      45.579 128.324  16.802  1.00  0.00     0.189 HD
ENDBRANCH   1  11
TORSDOF 1
ENDMDL
MODEL 3
REMARK VINA RESULT:      -8.4      0.926      1.085
REMARK  1 active torsions:
REMARK  status: ('A' for Active; 'I' for Inactive)
REMARK    1  A    between atoms: C2_5  and  C3_6 
ROOT
HETATM    1  C3  LIG X 999      44.536 131.292  17.378  1.00  0.00     0.028 A 
HETATM    2  C4  LIG X 999      43.304 131.722  16.833  1.00  0.00     0.017 A 
HETATM    3  C5  LIG X 999      42.242 132.113  17.641  1.00  0.00     0.002 A 
HETATM    4  C6  LIG X 999      42.365 132.087  19.021  1.00  0.00     0.012 A 
HETATM    5  C7  LIG X 999      43.559 131.671  19.615  1.00  0.00    -0.025 A 
HETATM    6  C8  LIG X 999      43.649 131.658  21.017  1.00  0.00     0.012 A 
HETATM    7  C9  LIG X 999      44.822 131.250  21.644  1.00  0.00     0.001 A 
HETATM    8  C10 LIG X 999      45.914 130.851  20.881  1.00  0.00     0.001 A 
HETATM    9  C11 LIG X 999      45.844 130.856  19.487  1.00  0.00     0.013 A 
HETATM   10  C12 LIG X 999      44.667 131.265  18.810  1.00  0.00    -0.011 A 
ENDROOT
BRANCH   1  11
HETATM   11  C2  LIG X 999      45.623 130.892  16.417  1.00  0.00     0.177 A 
HETATM   12  O1  LIG X 999      45.882 131.485  15.270  1.00  0.00    -0.258 OA
HETATM   13  C1  LIG X 999      46.893 130.832  14.751  1.00  0.00     0.260 A 
HETATM   14  N1  LIG X 999      47.442 131.115  13.616  1.00  0.00    -0.261 NA
HETATM   15  N3  LIG X 999      47.288 129.830  15.546  1.00  0.00    -0.262 N 
HETATM   16  H1  LIG X 999      47.092 131.909  13.036  1.00  0.00     0.190 HD
HETATM   17  N2  LIG X 999      46.491 129.864  16.598  1.00  0.00    -0.276 N 
HETATM   18  H10 LIG X 999      48.064 129.147  15.389  1.00  0.00     0.190 HD
HETATM   19  H9  LIG X 999      46.564 129.193  17.393  1.00  0.00     0.189 HD
ENDBRANCH   1  11
TORSDOF 1
ENDMDL
MODEL 4
REMARK VINA RESULT:      -7.2      2.771      5.167
REMARK  1 active torsions:
REMARK  status: ('A' for Active; 'I' for Inactive)
REMARK    1  A    between atoms: C2_5  and  C3_6 
ROOT
HETATM    1  C3  LIG X 999      44.850 131.125  16.956  1.00  0.00     0.028 A 
HETATM    2  C4  LIG X 999      43.607 131.723  16.644  1.00  0.00     0.017 A 
HETATM    3  C5  LIG X 999      43.213 131.950  15.330  1.00  0.00     0.002 A 
HETATM    4  C6  LIG X 999      44.040 131.592  14.278  1.00  0.00     0.012 A 
HETATM    5  C7  LIG X 999      45.280 130.997  14.526  1.00  0.00    -0.025 A 
HETATM    6  C8  LIG X 999      46.093 130.647  13.436  1.00  0.00     0.012 A 
HETATM    7  C9  LIG X 999      47.333 130.052  13.644  1.00  0.00     0.001 A 
HETATM    8  C10 LIG X 999      47.775 129.802  14.939  1.00  0.00     0.001 A 
HETATM    9  C11 LIG X 999      46.981 130.144  16.036  1.00  0.00     0.013 A 
HETATM   10  C12 LIG X 999      45.711 130.751  15.866  1.00  0.00    -0.011 A 
ENDROOT
BRANCH   1  11
HETATM   11  C2  LIG X 999      45.183 130.922  18.409  1.00  0.00     0.177 A 
HETATM   12  O1  LIG X 999      44.662 131.600  19.411  1.00  0.00    -0.258 OA
HETATM   13  C1  LIG X 999      45.216 131.115  20.496  1.00  0.00     0.260 A 
HETATM   14  N1  LIG X 999      44.962 131.526  21.694  1.00  0.00    -0.261 NA
HETATM   15  N3  LIG X 999      46.083 130.137  20.207  1.00  0.00    -0.262 N 
HETATM   16  H1  LIG X 999      44.275 132.295  21.861  1.00  0.00     0.190 HD
HETATM   17  N2  LIG X 999      46.065 130.010  18.893  1.00  0.00    -0.276 N 
HETATM   18  H10 LIG X 999      46.666 129.573  20.867  1.00  0.00     0.190 HD
HETATM   19  H9  LIG X 999      46.648 129.317  18.377  1.00  0.00     0.189 HD
ENDBRANCH   1  11
TORSDOF 1
ENDMDL
MODEL 5
REMARK VINA RESULT:      -7.0      7.450      8.695
REMARK  1 active torsions:
REMARK  status: ('A' for Active; 'I' for Inactive)
REMARK    1  A    between atoms: C2_5  and  C3_6 
ROOT
HETATM    1  C3  LIG X 999      49.284 136.245  21.343  1.00  0.00     0.028 A 
HETATM    2  C4  LIG X 999      48.400 135.181  21.636  1.00  0.00     0.017 A 
HETATM    3  C5  LIG X 999      48.645 134.292  22.677  1.00  0.00     0.002 A 
HETATM    4  C6  LIG X 999      49.779 134.426  23.462  1.00  0.00     0.012 A 
HETATM    5  C7  LIG X 999      50.688 135.460  23.218  1.00  0.00    -0.025 A 
HETATM    6  C8  LIG X 999      51.825 135.567  24.034  1.00  0.00     0.012 A 
HETATM    7  C9  LIG X 999      52.752 136.583  23.821  1.00  0.00     0.001 A 
HETATM    8  C10 LIG X 999      52.553 137.499  22.794  1.00  0.00     0.001 A 
HETATM    9  C11 LIG X 999      51.429 137.409  21.971  1.00  0.00     0.013 A 
HETATM   10  C12 LIG X 999      50.461 136.389  22.156  1.00  0.00    -0.011 A 
ENDROOT
BRANCH   1  11
HETATM   11  C2  LIG X 999      48.928 137.153  20.196  1.00  0.00     0.177 A 
HETATM   12  O1  LIG X 999      49.608 137.265  19.074  1.00  0.00    -0.258 OA
HETATM   13  C1  LIG X 999      48.964 138.152  18.355  1.00  0.00     0.260 A 
HETATM   14  N1  LIG X 999      49.324 138.538  17.175  1.00  0.00    -0.261 NA
HETATM   15  N3  LIG X 999      47.881 138.609  18.995  1.00  0.00    -0.262 N 
HETATM   16  H1  LIG X 999      50.180 138.146  16.723  1.00  0.00     0.190 HD
HETATM   17  N2  LIG X 999      47.854 137.983  20.157  1.00  0.00    -0.276 N 
HETATM   18  H10 LIG X 999      47.186 139.317  18.666  1.00  0.00     0.190 HD
HETATM   19  H9  LIG X 999      47.114 138.140  20.875  1.00  0.00     0.189 HD
ENDBRANCH   1  11
TORSDOF 1
ENDMDL
MODEL 6
REMARK VINA RESULT:      -6.1      3.168      5.700
REMARK  1 active torsions:
REMARK  status: ('A' for Active; 'I' for Inactive)
REMARK    1  A    between atoms: C2_5  and  C3_6 
ROOT
HETATM    1  C3  LIG X 999      44.361 131.267  17.955  1.00  0.00     0.028 A 
HETATM    2  C4  LIG X 999      45.321 130.673  18.806  1.00  0.00     0.017 A 
HETATM    3  C5  LIG X 999      46.440 130.018  18.303  1.00  0.00     0.002 A 
HETATM    4  C6  LIG X 999      46.644 129.929  16.935  1.00  0.00     0.012 A 
HETATM    5  C7  LIG X 999      45.728 130.498  16.046  1.00  0.00    -0.025 A 
HETATM    6  C8  LIG X 999      45.967 130.389  14.667  1.00  0.00     0.012 A 
HETATM    7  C9  LIG X 999      45.077 130.943  13.752  1.00  0.00     0.001 A 
HETATM    8  C10 LIG X 999      43.943 131.609  14.203  1.00  0.00     0.001 A 
HETATM    9  C11 LIG X 999      43.687 131.728  15.571  1.00  0.00     0.013 A 
HETATM   10  C12 LIG X 999      44.570 131.177  16.535  1.00  0.00    -0.011 A 
ENDROOT
BRANCH   1  11
HETATM   11  C2  LIG X 999      43.186 131.952  18.599  1.00  0.00     0.177 A 
HETATM   12  O1  LIG X 999      43.027 132.136  19.894  1.00  0.00    -0.258 OA
HETATM   13  C1  LIG X 999      41.885 132.765  20.027  1.00  0.00     0.260 A 
HETATM   14  N1  LIG X 999      41.376 133.125  21.159  1.00  0.00    -0.261 NA
HETATM   15  N3  LIG X 999      41.308 132.989  18.840  1.00  0.00    -0.262 N 
HETATM   16  H1  LIG X 999      41.871 132.923  22.056  1.00  0.00     0.190 HD
HETATM   17  N2  LIG X 999      42.124 132.479  17.937  1.00  0.00    -0.276 N 
HETATM   18  H10 LIG X 999      40.400 133.466  18.643  1.00  0.00     0.190 HD
HETATM   19  H9  LIG X 999      41.933 132.506  16.912  1.00  0.00     0.189 HD
ENDBRANCH   1  11
TORSDOF 1
ENDMDL
