REMARK VINA RESULT:      -5.6      1.936      5.741
REMARK  3 active torsions:
REMARK  status: ('A' for Active; 'I' for Inactive)
REMARK    1  A    between atoms: C3_3  and  O1_4 
REMARK    2  A    between atoms: O1_4  and  C4_5 
REMARK    3  A    between atoms: C5_6  and  C6_7 
ROOT
HETATM    1  C1  LIG X 999      41.257 133.297  20.876  1.00  0.00     0.014 C 
HETATM    2  C2  LIG X 999      41.576 132.709  19.873  1.00  0.00    -0.091 C 
HETATM    3  C3  LIG X 999      41.964 131.994  18.657  1.00  0.00     0.268 C 
ENDROOT
BRANCH   3   4
HETATM    4  O1  LIG X 999      43.219 132.485  18.204  1.00  0.00    -0.338 OA
BRANCH   4   5
HETATM    5  C4  LIG X 999      44.293 131.622  17.967  1.00  0.00     0.094 A 
HETATM    6  C5  LIG X 999      45.030 131.100  19.052  1.00  0.00     0.036 A 
HETATM    7  C7  LIG X 999      46.120 130.249  18.801  1.00  0.00     0.018 A 
HETATM    8  C8  LIG X 999      46.472 129.909  17.495  1.00  0.00     0.013 A 
HETATM    9  C9  LIG X 999      45.739 130.408  16.412  1.00  0.00    -0.023 A 
HETATM   10  C10 LIG X 999      46.088 130.057  15.098  1.00  0.00     0.012 A 
HETATM   11  C14 LIG X 999      44.636 131.267  16.644  1.00  0.00     0.009 A 
HETATM   12  C11 LIG X 999      45.349 130.548  14.020  1.00  0.00     0.001 A 
HETATM   13  C12 LIG X 999      44.259 131.391  14.243  1.00  0.00     0.001 A 
HETATM   14  C13 LIG X 999      43.900 131.749  15.544  1.00  0.00     0.015 A 
BRANCH   6  15
HETATM   15  C6  LIG X 999      44.656 131.438  20.442  1.00  0.00     0.272 C 
HETATM   16  O2  LIG X 999      44.867 130.631  21.386  1.00  0.00    -0.301 OA
ENDBRANCH   6  15
ENDBRANCH   4   5
ENDBRANCH   3   4
TORSDOF 3
