REMARK VINA RESULT:      -4.9      6.439      7.888
REMARK  1 active torsions:
REMARK  status: ('A' for Active; 'I' for Inactive)
REMARK    1  A    between atoms: N1_2  and  C1_3 
ROOT
HETATM    1  C1  LIG X 999      39.546 123.427  23.685  1.00  0.00     0.143 C 
HETATM    2  N2  LIG X 999      39.504 124.652  24.259  1.00  0.00    -0.229 NA
HETATM    3  C2  LIG X 999      40.466 125.586  24.047  1.00  0.00     0.070 C 
HETATM    4  C3  LIG X 999      40.307 126.845  24.625  1.00  0.00     0.033 C 
HETATM    5  C4  LIG X 999      41.258 127.837  24.430  1.00  0.00     0.014 C 
HETATM    6  C5  LIG X 999      42.443 127.553  23.746  1.00  0.00    -0.025 C 
HETATM    7  C6  LIG X 999      43.436 128.542  23.656  1.00  0.00     0.012 C 
HETATM    8  C7  LIG X 999      44.676 128.245  23.097  1.00  0.00     0.001 C 
HETATM    9  C8  LIG X 999      44.950 126.952  22.663  1.00  0.00     0.001 C 
HETATM   10  C9  LIG X 999      43.967 125.961  22.733  1.00  0.00     0.013 C 
HETATM   11  C10 LIG X 999      42.663 126.256  23.196  1.00  0.00    -0.013 C 
HETATM   12  C11 LIG X 999      41.599 125.292  23.234  1.00  0.00     0.010 C 
HETATM   13  C12 LIG X 999      41.558 124.067  22.494  1.00  0.00    -0.045 C 
HETATM   14  C13 LIG X 999      42.427 123.765  21.296  1.00  0.00     0.049 C 
HETATM   15  C14 LIG X 999      40.562 123.120  22.785  1.00  0.00     0.059 C 
ENDROOT
BRANCH   1  16
HETATM   16  N1  LIG X 999      38.620 122.558  23.937  1.00  0.00    -0.282 NA
HETATM   17  H1  LIG X 999      38.587 122.043  24.846  1.00  0.00     0.188 HD
ENDBRANCH   1  16
TORSDOF 1
