REMARK VINA RESULT:      -6.3      4.709      7.262
REMARK  3 active torsions:
REMARK  status: ('A' for Active; 'I' for Inactive)
REMARK    1  A    between atoms: C3_3  and  O1_4 
REMARK    2  A    between atoms: O1_4  and  C4_5 
REMARK    3  A    between atoms: C5_7  and  C6_8 
ROOT
HETATM    1  C1  LIG X 999      41.986 124.012  21.448  1.00  0.00     0.014 C 
HETATM    2  C2  LIG X 999      42.157 124.755  22.382  1.00  0.00    -0.091 C 
HETATM    3  C3  LIG X 999      42.365 125.659  23.514  1.00  0.00     0.270 C 
ENDROOT
BRANCH   3   4
HETATM    4  O1  LIG X 999      43.139 126.771  23.086  1.00  0.00    -0.317 OA
BRANCH   4   5
HETATM    5  C4  LIG X 999      44.471 126.951  23.468  1.00  0.00     0.217 C 
HETATM    6  O2  LIG X 999      45.263 125.851  23.781  1.00  0.00    -0.164 OA
HETATM    7  C5  LIG X 999      45.000 128.175  23.525  1.00  0.00     0.079 C 
BRANCH   7   8
HETATM    8  C6  LIG X 999      44.236 129.391  23.164  1.00  0.00    -0.020 A 
HETATM    9  C7  LIG X 999      43.200 129.783  24.026  1.00  0.00     0.012 A 
HETATM   10  C8  LIG X 999      42.469 130.944  23.778  1.00  0.00     0.002 A 
HETATM   11  C9  LIG X 999      42.750 131.728  22.662  1.00  0.00     0.012 A 
HETATM   12  C10 LIG X 999      43.756 131.344  21.764  1.00  0.00    -0.025 A 
HETATM   13  C11 LIG X 999      44.016 132.125  20.626  1.00  0.00     0.012 A 
HETATM   14  C15 LIG X 999      44.503 130.158  21.998  1.00  0.00    -0.015 A 
HETATM   15  C12 LIG X 999      44.993 131.731  19.712  1.00  0.00     0.001 A 
HETATM   16  C13 LIG X 999      45.710 130.552  19.916  1.00  0.00     0.001 A 
HETATM   17  C14 LIG X 999      45.465 129.765  21.043  1.00  0.00     0.013 A 
ENDBRANCH   7   8
ENDBRANCH   4   5
ENDBRANCH   3   4
TORSDOF 3
