REMARK VINA RESULT:      -5.2      2.200      5.229
REMARK  1 active torsions:
REMARK  status: ('A' for Active; 'I' for Inactive)
REMARK    1  A    between atoms: C5_5  and  N1_6 
ROOT
HETATM    1  N1  LIG X 999      46.009 130.397  19.559  1.00  0.00    -0.070 NA
HETATM    2  N2  LIG X 999      45.834 129.603  20.485  1.00  0.00    -0.162 NA
HETATM    3  N3  LIG X 999      45.662 128.807  21.407  1.00  0.00     0.068 N 
ENDROOT
BRANCH   1   4
HETATM    4  C5  LIG X 999      44.911 130.992  18.847  1.00  0.00     0.124 A 
HETATM    5  C4  LIG X 999      43.816 131.608  19.514  1.00  0.00     0.007 A 
HETATM    6  C3  LIG X 999      43.792 131.796  20.912  1.00  0.00     0.015 A 
HETATM    7  C10 LIG X 999      42.722 132.095  18.746  1.00  0.00    -0.024 A 
HETATM    8  C2  LIG X 999      42.691 132.392  21.532  1.00  0.00     0.001 A 
HETATM    9  C1  LIG X 999      41.605 132.827  20.773  1.00  0.00     0.001 A 
HETATM   10  C11 LIG X 999      41.622 132.688  19.385  1.00  0.00     0.012 A 
HETATM   11  C9  LIG X 999      42.750 132.004  17.349  1.00  0.00     0.014 A 
HETATM   12  C8  LIG X 999      43.853 131.453  16.702  1.00  0.00     0.026 A 
HETATM   13  C6  LIG X 999      44.932 130.956  17.439  1.00  0.00     0.077 A 
HETATM   14  C7  LIG X 999      46.046 130.372  16.733  1.00  0.00     0.102 C 
HETATM   15  N4  LIG X 999      46.940 129.902  16.166  1.00  0.00    -0.191 NA
ENDBRANCH   1   4
TORSDOF 1
