REMARK VINA RESULT:      -7.1      2.544      7.052
REMARK  2 active torsions:
REMARK  status: ('A' for Active; 'I' for Inactive)
REMARK    1  A    between atoms: C2_2  and  N1_3 
REMARK    2  A    between atoms: C3_6  and  O1_7 
ROOT
HETATM    1  N1  LIG X 999      44.392 130.154  24.033  1.00  0.00    -0.070 NA
HETATM    2  N2  LIG X 999      44.602 128.976  24.326  1.00  0.00    -0.162 NA
HETATM    3  N3  LIG X 999      44.810 127.800  24.622  1.00  0.00     0.068 N 
ENDROOT
BRANCH   1   4
HETATM    4  C2  LIG X 999      44.204 130.588  22.677  1.00  0.00     0.127 A 
HETATM    5  C1  LIG X 999      45.069 130.168  21.649  1.00  0.00     0.049 A 
HETATM    6  C11 LIG X 999      44.869 130.601  20.332  1.00  0.00    -0.023 A 
HETATM    7  C6  LIG X 999      43.784 131.471  20.035  1.00  0.00    -0.022 A 
HETATM    8  C10 LIG X 999      45.736 130.184  19.302  1.00  0.00     0.021 A 
HETATM    9  C5  LIG X 999      42.928 131.886  21.062  1.00  0.00     0.051 A 
HETATM   10  C7  LIG X 999      43.583 131.911  18.711  1.00  0.00     0.021 A 
HETATM   11  C3  LIG X 999      43.131 131.447  22.385  1.00  0.00     0.100 A 
HETATM   12  C8  LIG X 999      44.459 131.469  17.718  1.00  0.00    -0.024 A 
HETATM   13  C9  LIG X 999      45.497 130.636  18.003  1.00  0.00    -0.024 A 
HETATM   14  C15 LIG X 999      44.451 131.817  16.281  1.00  0.00     0.276 C 
HETATM   15  C12 LIG X 999      46.282 130.349  16.783  1.00  0.00     0.276 C 
HETATM   16  N4  LIG X 999      45.518 130.972  15.656  1.00  0.00    -0.067 N 
HETATM   17  C13 LIG X 999      44.902 129.918  14.816  1.00  0.00     0.272 C 
HETATM   18  C14 LIG X 999      46.412 131.798  14.813  1.00  0.00     0.272 C 
BRANCH  11  19
HETATM   19  O1  LIG X 999      42.289 131.845  23.437  1.00  0.00    -0.353 OA
HETATM   20  C4  LIG X 999      42.724 132.531  24.606  1.00  0.00     0.210 C 
ENDBRANCH  11  19
ENDBRANCH   1   4
TORSDOF 2
