REMARK VINA RESULT:      -8.0      1.966      8.313
REMARK  7 active torsions:
REMARK  status: ('A' for Active; 'I' for Inactive)
REMARK    1  A    between atoms: C2_2  and  C4_4 
REMARK    2  A    between atoms: C4_4  and  C5_5 
REMARK       I    between atoms: C5_5  and  N1_7 
REMARK    3  A    between atoms: N1_7  and  C6_8 
REMARK    4  A    between atoms: C6_8  and  C7_9 
REMARK    5  A    between atoms: C7_9  and  C8_10 
REMARK    6  A    between atoms: C8_10  and  O2_11 
REMARK    7  A    between atoms: O2_11  and  C9_12 
ROOT
HETATM    1  O2  LIG X 999      44.950 131.771  20.948  1.00  0.00    -0.351 OA
ENDROOT
BRANCH   1   2
HETATM    2  C8  LIG X 999      44.912 131.752  19.520  1.00  0.00     0.177 C 
BRANCH   2   3
HETATM    3  C7  LIG X 999      43.473 131.730  18.979  1.00  0.00     0.048 C 
BRANCH   3   4
HETATM    4  C6  LIG X 999      43.406 131.599  17.450  1.00  0.00     0.154 C 
BRANCH   4   5
HETATM    5  N1  LIG X 999      44.731 131.721  16.848  1.00  0.00    -0.256 NA
HETATM    6  C5  LIG X 999      44.965 131.717  15.436  1.00  0.00     0.238 C 
HETATM    7  O1  LIG X 999      43.998 131.693  14.627  1.00  0.00    -0.272 OA
BRANCH   6   8
HETATM    8  C4  LIG X 999      46.370 131.752  14.914  1.00  0.00     0.108 C 
BRANCH   8   9
HETATM    9  C2  LIG X 999      46.618 130.661  13.853  1.00  0.00    -0.014 C 
HETATM   10  C1  LIG X 999      47.658 131.112  12.816  1.00  0.00     0.010 C 
HETATM   11  C3  LIG X 999      47.078 129.364  14.528  1.00  0.00     0.010 C 
ENDBRANCH   8   9
ENDBRANCH   6   8
ENDBRANCH   4   5
ENDBRANCH   3   4
ENDBRANCH   2   3
ENDBRANCH   1   2
BRANCH   1  12
HETATM   12  C9  LIG X 999      44.446 130.774  21.799  1.00  0.00     0.069 A 
HETATM   13  C10 LIG X 999      43.329 131.085  22.581  1.00  0.00     0.037 A 
HETATM   14  C11 LIG X 999      42.804 130.154  23.480  1.00  0.00     0.015 A 
HETATM   15  C12 LIG X 999      43.387 128.887  23.602  1.00  0.00    -0.026 A 
HETATM   16  C13 LIG X 999      42.876 127.947  24.512  1.00  0.00     0.012 A 
HETATM   17  C17 LIG X 999      44.505 128.552  22.800  1.00  0.00    -0.023 A 
HETATM   18  C14 LIG X 999      43.467 126.685  24.622  1.00  0.00     0.001 A 
HETATM   19  C15 LIG X 999      44.569 126.352  23.829  1.00  0.00     0.001 A 
HETATM   20  C16 LIG X 999      45.087 127.280  22.920  1.00  0.00     0.012 A 
HETATM   21  C18 LIG X 999      45.022 129.493  21.897  1.00  0.00     0.049 A 
ENDBRANCH   1  12
TORSDOF 7
