REMARK VINA RESULT:      -3.9      4.540      6.196
REMARK  4 active torsions:
REMARK  status: ('A' for Active; 'I' for Inactive)
REMARK    1  A    between atoms: C5_5  and  C6_6 
REMARK    2  A    between atoms: C7_7  and  C8_8 
REMARK    3  A    between atoms: C11_13  and  C12_14 
REMARK    4  A    between atoms: C13_17  and  N3_18 
ROOT
HETATM    1  N3  LIG X 999      51.284 126.338  22.481  1.00  0.00    -0.023 NA
HETATM    2  N4  LIG X 999      52.348 126.156  23.073  1.00  0.00    -0.158 NA
HETATM    3  N5  LIG X 999      53.412 125.974  23.664  1.00  0.00     0.068 N 
ENDROOT
BRANCH   1   4
HETATM    4  C13 LIG X 999      50.038 126.089  23.131  1.00  0.00     0.326 A 
HETATM    5  N2  LIG X 999      49.758 126.498  24.380  1.00  0.00    -0.099 NA
HETATM    6  N1  LIG X 999      48.524 126.084  24.625  1.00  0.00    -0.124 NA
HETATM    7  C12 LIG X 999      48.106 125.434  23.517  1.00  0.00     0.184 A 
HETATM    8  O3  LIG X 999      49.036 125.442  22.590  1.00  0.00    -0.255 OA
BRANCH   7   9
HETATM    9  C11 LIG X 999      46.727 124.824  23.353  1.00  0.00     0.054 C 
HETATM   10  C3  LIG X 999      45.796 125.227  24.551  1.00  0.00     0.030 C 
HETATM   11  C2  LIG X 999      44.574 124.336  24.623  1.00  0.00    -0.021 C 
HETATM   12  C4  LIG X 999      45.403 126.719  24.508  1.00  0.00     0.027 C 
HETATM   13  C1  LIG X 999      44.659 123.046  24.285  1.00  0.00    -0.004 C 
HETATM   14  C15 LIG X 999      45.903 122.501  23.713  1.00  0.00    -0.003 C 
HETATM   15  C14 LIG X 999      46.889 123.314  23.320  1.00  0.00    -0.008 C 
HETATM   16  C5  LIG X 999      44.784 127.112  23.155  1.00  0.00     0.066 C 
HETATM   17  C9  LIG X 999      45.740 126.770  22.003  1.00  0.00     0.019 C 
HETATM   18  C10 LIG X 999      46.089 125.277  22.009  1.00  0.00     0.024 C 
BRANCH  16  19
HETATM   19  C6  LIG X 999      44.478 128.550  23.142  1.00  0.00    -0.090 C 
HETATM   20  C7  LIG X 999      44.228 129.729  23.132  1.00  0.00     0.005 C 
BRANCH  20  21
HETATM   21  C8  LIG X 999      43.931 131.133  23.121  1.00  0.00     0.258 C 
HETATM   22  O1  LIG X 999      44.167 131.834  24.138  1.00  0.00    -0.637 OA
HETATM   23  O2  LIG X 999      43.384 131.717  21.987  1.00  0.00    -0.637 OA
ENDBRANCH  20  21
ENDBRANCH  16  19
ENDBRANCH   7   9
ENDBRANCH   1   4
TORSDOF 4
