MODEL 1
REMARK VINA RESULT:      -8.0      0.000      0.000
REMARK  5 active torsions:
REMARK  status: ('A' for Active; 'I' for Inactive)
REMARK    1  A    between atoms: C6_6  and  C7_7 
REMARK       I    between atoms: C7_7  and  N1_9 
REMARK    2  A    between atoms: N1_9  and  C8_11 
REMARK    3  A    between atoms: C8_11  and  C9_12 
REMARK    4  A    between atoms: C9_12  and  N2_13 
REMARK    5  A    between atoms: C13_19  and  N5_20 
ROOT
HETATM    1  N2  LIG X 999      46.510 129.772  14.643  1.00  0.00    -0.114 NA
HETATM    2  N3  LIG X 999      47.552 129.615  14.007  1.00  0.00    -0.168 NA
HETATM    3  N4  LIG X 999      48.594 129.457  13.372  1.00  0.00     0.068 N 
ENDROOT
BRANCH   1   4
HETATM    4  C9  LIG X 999      45.567 130.817  14.271  1.00  0.00     0.208 C 
BRANCH   4   5
HETATM    5  C8  LIG X 999      45.884 132.105  15.030  1.00  0.00     0.147 C 
BRANCH   5   6
HETATM    6  N1  LIG X 999      45.838 131.886  16.476  1.00  0.00    -0.355 N 
HETATM    7  C7  LIG X 999      44.606 131.667  17.184  1.00  0.00     0.251 C 
HETATM    8  O1  LIG X 999      43.508 131.753  16.566  1.00  0.00    -0.268 OA
HETATM    9  H4  LIG X 999      46.743 131.907  16.996  1.00  0.00     0.162 HD
BRANCH   7  10
HETATM   10  C6  LIG X 999      44.597 131.359  18.634  1.00  0.00     0.032 A 
HETATM   11  C1  LIG X 999      45.608 130.557  19.184  1.00  0.00     0.017 A 
HETATM   12  C2  LIG X 999      45.619 130.263  20.548  1.00  0.00     0.011 A 
HETATM   13  C3  LIG X 999      44.627 130.776  21.399  1.00  0.00    -0.024 A 
HETATM   14  C4  LIG X 999      43.597 131.580  20.855  1.00  0.00    -0.049 A 
HETATM   15  C13 LIG X 999      44.637 130.375  22.858  1.00  0.00     0.179 C 
HETATM   16  C5  LIG X 999      43.604 131.879  19.482  1.00  0.00     0.024 A 
HETATM   17  C10 LIG X 999      42.554 132.231  21.732  1.00  0.00     0.039 C 
HETATM   18  C11 LIG X 999      42.415 131.551  23.097  1.00  0.00     0.007 C 
HETATM   19  C12 LIG X 999      43.793 131.329  23.722  1.00  0.00     0.035 C 
BRANCH  15  20
HETATM   20  N5  LIG X 999      44.146 129.003  22.971  1.00  0.00    -0.105 NA
HETATM   21  N6  LIG X 999      44.880 128.093  23.355  1.00  0.00    -0.167 NA
HETATM   22  N7  LIG X 999      45.613 127.182  23.739  1.00  0.00     0.068 N 
ENDBRANCH  15  20
ENDBRANCH   7  10
ENDBRANCH   5   6
ENDBRANCH   4   5
ENDBRANCH   1   4
TORSDOF 5
ENDMDL
MODEL 2
REMARK VINA RESULT:      -7.1      1.801      7.413
REMARK  5 active torsions:
REMARK  status: ('A' for Active; 'I' for Inactive)
REMARK    1  A    between atoms: C6_6  and  C7_7 
REMARK       I    between atoms: C7_7  and  N1_9 
REMARK    2  A    between atoms: N1_9  and  C8_11 
REMARK    3  A    between atoms: C8_11  and  C9_12 
REMARK    4  A    between atoms: C9_12  and  N2_13 
REMARK    5  A    between atoms: C13_19  and  N5_20 
ROOT
HETATM    1  N2  LIG X 999      43.705 130.013  24.004  1.00  0.00    -0.114 NA
HETATM    2  N3  LIG X 999      44.296 129.144  23.364  1.00  0.00    -0.168 NA
HETATM    3  N4  LIG X 999      44.887 128.275  22.725  1.00  0.00     0.068 N 
ENDROOT
BRANCH   1   4
HETATM    4  C9  LIG X 999      42.418 130.521  23.550  1.00  0.00     0.208 C 
BRANCH   4   5
HETATM    5  C8  LIG X 999      42.611 131.829  22.782  1.00  0.00     0.147 C 
BRANCH   5   6
HETATM    6  N1  LIG X 999      42.962 131.568  21.386  1.00  0.00    -0.355 N 
HETATM    7  C7  LIG X 999      44.311 131.669  20.898  1.00  0.00     0.251 C 
HETATM    8  O1  LIG X 999      45.223 132.081  21.667  1.00  0.00    -0.268 OA
HETATM    9  H4  LIG X 999      42.188 131.316  20.733  1.00  0.00     0.162 HD
BRANCH   7  10
HETATM   10  C6  LIG X 999      44.651 131.312  19.500  1.00  0.00     0.032 A 
HETATM   11  C1  LIG X 999      45.777 130.519  19.234  1.00  0.00     0.017 A 
HETATM   12  C2  LIG X 999      46.106 130.168  17.924  1.00  0.00     0.011 A 
HETATM   13  C3  LIG X 999      45.310 130.589  16.848  1.00  0.00    -0.024 A 
HETATM   14  C4  LIG X 999      44.175 131.396  17.102  1.00  0.00    -0.049 A 
HETATM   15  C13 LIG X 999      45.743 130.245  15.440  1.00  0.00     0.179 C 
HETATM   16  C5  LIG X 999      43.846 131.733  18.426  1.00  0.00     0.024 A 
HETATM   17  C10 LIG X 999      43.232 131.807  15.995  1.00  0.00     0.039 C 
HETATM   18  C11 LIG X 999      43.871 131.721  14.606  1.00  0.00     0.007 C 
HETATM   19  C12 LIG X 999      44.587 130.381  14.433  1.00  0.00     0.035 C 
BRANCH  15  20
HETATM   20  N5  LIG X 999      46.858 131.114  15.066  1.00  0.00    -0.105 NA
HETATM   21  N6  LIG X 999      47.316 131.106  13.924  1.00  0.00    -0.167 NA
HETATM   22  N7  LIG X 999      47.776 131.099  12.783  1.00  0.00     0.068 N 
ENDBRANCH  15  20
ENDBRANCH   7  10
ENDBRANCH   5   6
ENDBRANCH   4   5
ENDBRANCH   1   4
TORSDOF 5
ENDMDL
MODEL 3
REMARK VINA RESULT:      -6.9      1.072      1.308
REMARK  5 active torsions:
REMARK  status: ('A' for Active; 'I' for Inactive)
REMARK    1  A    between atoms: C6_6  and  C7_7 
REMARK       I    between atoms: C7_7  and  N1_9 
REMARK    2  A    between atoms: N1_9  and  C8_11 
REMARK    3  A    between atoms: C8_11  and  C9_12 
REMARK    4  A    between atoms: C9_12  and  N2_13 
REMARK    5  A    between atoms: C13_19  and  N5_20 
ROOT
HETATM    1  N2  LIG X 999      47.393 131.337  13.394  1.00  0.00    -0.114 NA
HETATM    2  N3  LIG X 999      48.010 130.272  13.404  1.00  0.00    -0.168 NA
HETATM    3  N4  LIG X 999      48.626 129.207  13.414  1.00  0.00     0.068 N 
ENDROOT
BRANCH   1   4
HETATM    4  C9  LIG X 999      46.513 131.694  14.498  1.00  0.00     0.208 C 
BRANCH   4   5
HETATM    5  C8  LIG X 999      45.909 130.433  15.116  1.00  0.00     0.147 C 
BRANCH   5   6
HETATM    6  N1  LIG X 999      45.858 130.538  16.574  1.00  0.00    -0.355 N 
HETATM    7  C7  LIG X 999      44.764 131.165  17.265  1.00  0.00     0.251 C 
HETATM    8  O1  LIG X 999      43.849 131.728  16.602  1.00  0.00    -0.268 OA
HETATM    9  H4  LIG X 999      46.664 130.151  17.114  1.00  0.00     0.162 HD
BRANCH   7  10
HETATM   10  C6  LIG X 999      44.697 131.178  18.746  1.00  0.00     0.032 A 
HETATM   11  C1  LIG X 999      45.779 130.699  19.499  1.00  0.00     0.017 A 
HETATM   12  C2  LIG X 999      45.735 130.711  20.894  1.00  0.00     0.011 A 
HETATM   13  C3  LIG X 999      44.614 131.216  21.570  1.00  0.00    -0.024 A 
HETATM   14  C4  LIG X 999      43.512 131.696  20.822  1.00  0.00    -0.049 A 
HETATM   15  C13 LIG X 999      44.579 131.146  23.081  1.00  0.00     0.179 C 
HETATM   16  C5  LIG X 999      43.573 131.689  19.418  1.00  0.00     0.024 A 
HETATM   17  C10 LIG X 999      42.316 132.331  21.492  1.00  0.00     0.039 C 
HETATM   18  C11 LIG X 999      42.187 131.946  22.968  1.00  0.00     0.007 C 
HETATM   19  C12 LIG X 999      43.532 132.103  23.678  1.00  0.00     0.035 C 
BRANCH  15  20
HETATM   20  N5  LIG X 999      44.306 129.767  23.481  1.00  0.00    -0.105 NA
HETATM   21  N6  LIG X 999      43.172 129.293  23.404  1.00  0.00    -0.167 NA
HETATM   22  N7  LIG X 999      42.039 128.819  23.327  1.00  0.00     0.068 N 
ENDBRANCH  15  20
ENDBRANCH   7  10
ENDBRANCH   5   6
ENDBRANCH   4   5
ENDBRANCH   1   4
TORSDOF 5
ENDMDL
MODEL 4
REMARK VINA RESULT:      -6.6      1.497      1.936
REMARK  5 active torsions:
REMARK  status: ('A' for Active; 'I' for Inactive)
REMARK    1  A    between atoms: C6_6  and  C7_7 
REMARK       I    between atoms: C7_7  and  N1_9 
REMARK    2  A    between atoms: N1_9  and  C8_11 
REMARK    3  A    between atoms: C8_11  and  C9_12 
REMARK    4  A    between atoms: C9_12  and  N2_13 
REMARK    5  A    between atoms: C13_19  and  N5_20 
ROOT
HETATM    1  N2  LIG X 999      45.327 130.692  13.904  1.00  0.00    -0.114 NA
HETATM    2  N3  LIG X 999      44.227 131.224  14.052  1.00  0.00    -0.168 NA
HETATM    3  N4  LIG X 999      43.128 131.756  14.200  1.00  0.00     0.068 N 
ENDROOT
BRANCH   1   4
HETATM    4  C9  LIG X 999      45.764 129.632  14.801  1.00  0.00     0.208 C 
BRANCH   4   5
HETATM    5  C8  LIG X 999      46.895 130.136  15.697  1.00  0.00     0.147 C 
BRANCH   5   6
HETATM    6  N1  LIG X 999      46.503 130.098  17.106  1.00  0.00    -0.355 N 
HETATM    7  C7  LIG X 999      45.648 131.091  17.696  1.00  0.00     0.251 C 
HETATM    8  O1  LIG X 999      45.285 132.088  17.010  1.00  0.00    -0.268 OA
HETATM    9  H4  LIG X 999      46.881 129.320  17.691  1.00  0.00     0.162 HD
BRANCH   7  10
HETATM   10  C6  LIG X 999      45.194 130.978  19.102  1.00  0.00     0.032 A 
HETATM   11  C1  LIG X 999      45.894 130.156  19.999  1.00  0.00     0.017 A 
HETATM   12  C2  LIG X 999      45.485 130.044  21.328  1.00  0.00     0.011 A 
HETATM   13  C3  LIG X 999      44.376 130.764  21.799  1.00  0.00    -0.024 A 
HETATM   14  C4  LIG X 999      43.657 131.592  20.903  1.00  0.00    -0.049 A 
HETATM   15  C13 LIG X 999      43.926 130.559  23.228  1.00  0.00     0.179 C 
HETATM   16  C5  LIG X 999      44.086 131.705  19.570  1.00  0.00     0.024 A 
HETATM   17  C10 LIG X 999      42.511 132.457  21.372  1.00  0.00     0.039 C 
HETATM   18  C11 LIG X 999      41.907 131.980  22.695  1.00  0.00     0.007 C 
HETATM   19  C12 LIG X 999      43.013 131.700  23.713  1.00  0.00     0.035 C 
BRANCH  15  20
HETATM   20  N5  LIG X 999      43.239 129.272  23.325  1.00  0.00    -0.105 NA
HETATM   21  N6  LIG X 999      43.748 128.321  23.919  1.00  0.00    -0.167 NA
HETATM   22  N7  LIG X 999      44.255 127.370  24.511  1.00  0.00     0.068 N 
ENDBRANCH  15  20
ENDBRANCH   7  10
ENDBRANCH   5   6
ENDBRANCH   4   5
ENDBRANCH   1   4
TORSDOF 5
ENDMDL
MODEL 5
REMARK VINA RESULT:      -6.6      2.166      2.783
REMARK  5 active torsions:
REMARK  status: ('A' for Active; 'I' for Inactive)
REMARK    1  A    between atoms: C6_6  and  C7_7 
REMARK       I    between atoms: C7_7  and  N1_9 
REMARK    2  A    between atoms: N1_9  and  C8_11 
REMARK    3  A    between atoms: C8_11  and  C9_12 
REMARK    4  A    between atoms: C9_12  and  N2_13 
REMARK    5  A    between atoms: C13_19  and  N5_20 
ROOT
HETATM    1  N2  LIG X 999      45.789 130.135  14.330  1.00  0.00    -0.114 NA
HETATM    2  N3  LIG X 999      46.926 129.985  13.884  1.00  0.00    -0.168 NA
HETATM    3  N4  LIG X 999      48.062 129.835  13.436  1.00  0.00     0.068 N 
ENDROOT
BRANCH   1   4
HETATM    4  C9  LIG X 999      45.444 129.640  15.655  1.00  0.00     0.208 C 
BRANCH   4   5
HETATM    5  C8  LIG X 999      46.451 130.151  16.686  1.00  0.00     0.147 C 
BRANCH   5   6
HETATM    6  N1  LIG X 999      45.869 130.156  18.028  1.00  0.00    -0.355 N 
HETATM    7  C7  LIG X 999      45.082 131.251  18.523  1.00  0.00     0.251 C 
HETATM    8  O1  LIG X 999      44.952 132.293  17.822  1.00  0.00    -0.268 OA
HETATM    9  H4  LIG X 999      46.057 129.330  18.638  1.00  0.00     0.162 HD
BRANCH   7  10
HETATM   10  C6  LIG X 999      44.430 131.190  19.854  1.00  0.00     0.032 A 
HETATM   11  C1  LIG X 999      43.328 132.012  20.131  1.00  0.00     0.017 A 
HETATM   12  C2  LIG X 999      42.698 131.961  21.375  1.00  0.00     0.011 A 
HETATM   13  C3  LIG X 999      43.146 131.077  22.368  1.00  0.00    -0.024 A 
HETATM   14  C4  LIG X 999      44.262 130.247  22.104  1.00  0.00    -0.049 A 
HETATM   15  C13 LIG X 999      42.479 131.105  23.726  1.00  0.00     0.179 C 
HETATM   16  C5  LIG X 999      44.880 130.299  20.843  1.00  0.00     0.024 A 
HETATM   17  C10 LIG X 999      44.735 129.214  23.101  1.00  0.00     0.039 C 
HETATM   18  C11 LIG X 999      44.260 129.503  24.527  1.00  0.00     0.007 C 
HETATM   19  C12 LIG X 999      42.765 129.826  24.534  1.00  0.00     0.035 C 
BRANCH  15  20
HETATM   20  N5  LIG X 999      42.940 132.287  24.452  1.00  0.00    -0.105 NA
HETATM   21  N6  LIG X 999      44.138 132.556  24.537  1.00  0.00    -0.167 NA
HETATM   22  N7  LIG X 999      45.335 132.827  24.624  1.00  0.00     0.068 N 
ENDBRANCH  15  20
ENDBRANCH   7  10
ENDBRANCH   5   6
ENDBRANCH   4   5
ENDBRANCH   1   4
TORSDOF 5
ENDMDL
MODEL 6
REMARK VINA RESULT:      -6.0      2.305      7.549
REMARK  5 active torsions:
REMARK  status: ('A' for Active; 'I' for Inactive)
REMARK    1  A    between atoms: C6_6  and  C7_7 
REMARK       I    between atoms: C7_7  and  N1_9 
REMARK    2  A    between atoms: N1_9  and  C8_11 
REMARK    3  A    between atoms: C8_11  and  C9_12 
REMARK    4  A    between atoms: C9_12  and  N2_13 
REMARK    5  A    between atoms: C13_19  and  N5_20 
ROOT
HETATM    1  N2  LIG X 999      42.373 132.119  23.092  1.00  0.00    -0.114 NA
HETATM    2  N3  LIG X 999      42.137 132.449  21.930  1.00  0.00    -0.168 NA
HETATM    3  N4  LIG X 999      41.902 132.780  20.769  1.00  0.00     0.068 N 
ENDROOT
BRANCH   1   4
HETATM    4  C9  LIG X 999      42.735 130.746  23.412  1.00  0.00     0.208 C 
BRANCH   4   5
HETATM    5  C8  LIG X 999      44.182 130.475  23.001  1.00  0.00     0.147 C 
BRANCH   5   6
HETATM    6  N1  LIG X 999      44.293 130.320  21.551  1.00  0.00    -0.355 N 
HETATM    7  C7  LIG X 999      45.058 131.222  20.735  1.00  0.00     0.251 C 
HETATM    8  O1  LIG X 999      45.587 132.242  21.260  1.00  0.00    -0.268 OA
HETATM    9  H4  LIG X 999      43.778 129.526  21.110  1.00  0.00     0.162 HD
BRANCH   7  10
HETATM   10  C6  LIG X 999      45.226 130.989  19.280  1.00  0.00     0.032 A 
HETATM   11  C1  LIG X 999      46.289 130.199  18.817  1.00  0.00     0.017 A 
HETATM   12  C2  LIG X 999      46.457 129.964  17.452  1.00  0.00     0.011 A 
HETATM   13  C3  LIG X 999      45.558 130.499  16.517  1.00  0.00    -0.024 A 
HETATM   14  C4  LIG X 999      44.485 131.303  16.971  1.00  0.00    -0.049 A 
HETATM   15  C13 LIG X 999      45.818 130.277  15.043  1.00  0.00     0.179 C 
HETATM   16  C5  LIG X 999      44.320 131.524  18.349  1.00  0.00     0.024 A 
HETATM   17  C10 LIG X 999      43.436 131.834  16.022  1.00  0.00     0.039 C 
HETATM   18  C11 LIG X 999      43.911 131.862  14.566  1.00  0.00     0.007 C 
HETATM   19  C12 LIG X 999      44.560 130.529  14.193  1.00  0.00     0.035 C 
BRANCH  15  20
HETATM   20  N5  LIG X 999      46.910 131.152  14.622  1.00  0.00    -0.105 NA
HETATM   21  N6  LIG X 999      47.393 131.070  13.492  1.00  0.00    -0.167 NA
HETATM   22  N7  LIG X 999      47.877 130.988  12.364  1.00  0.00     0.068 N 
ENDBRANCH  15  20
ENDBRANCH   7  10
ENDBRANCH   5   6
ENDBRANCH   4   5
ENDBRANCH   1   4
TORSDOF 5
ENDMDL
MODEL 7
REMARK VINA RESULT:      -5.0      2.332      3.309
REMARK  5 active torsions:
REMARK  status: ('A' for Active; 'I' for Inactive)
REMARK    1  A    between atoms: C6_6  and  C7_7 
REMARK       I    between atoms: C7_7  and  N1_9 
REMARK    2  A    between atoms: N1_9  and  C8_11 
REMARK    3  A    between atoms: C8_11  and  C9_12 
REMARK    4  A    between atoms: C9_12  and  N2_13 
REMARK    5  A    between atoms: C13_19  and  N5_20 
ROOT
HETATM    1  N2  LIG X 999      45.070 131.216  14.548  1.00  0.00    -0.114 NA
HETATM    2  N3  LIG X 999      43.914 131.394  14.165  1.00  0.00    -0.168 NA
HETATM    3  N4  LIG X 999      42.758 131.573  13.781  1.00  0.00     0.068 N 
ENDROOT
BRANCH   1   4
HETATM    4  C9  LIG X 999      45.468 129.944  15.132  1.00  0.00     0.208 C 
BRANCH   4   5
HETATM    5  C8  LIG X 999      46.633 130.152  16.101  1.00  0.00     0.147 C 
BRANCH   5   6
HETATM    6  N1  LIG X 999      46.199 129.974  17.486  1.00  0.00    -0.355 N 
HETATM    7  C7  LIG X 999      45.555 131.019  18.233  1.00  0.00     0.251 C 
HETATM    8  O1  LIG X 999      45.430 132.166  17.721  1.00  0.00    -0.268 OA
HETATM    9  H4  LIG X 999      46.388 129.051  17.936  1.00  0.00     0.162 HD
BRANCH   7  10
HETATM   10  C6  LIG X 999      45.046 130.782  19.605  1.00  0.00     0.032 A 
HETATM   11  C1  LIG X 999      44.183 131.714  20.202  1.00  0.00     0.017 A 
HETATM   12  C2  LIG X 999      43.690 131.502  21.490  1.00  0.00     0.011 A 
HETATM   13  C3  LIG X 999      44.033 130.346  22.207  1.00  0.00    -0.024 A 
HETATM   14  C4  LIG X 999      44.908 129.401  21.619  1.00  0.00    -0.049 A 
HETATM   15  C13 LIG X 999      43.532 130.190  23.626  1.00  0.00     0.179 C 
HETATM   16  C5  LIG X 999      45.390 129.620  20.318  1.00  0.00     0.024 A 
HETATM   17  C10 LIG X 999      45.244 128.098  22.306  1.00  0.00     0.039 C 
HETATM   18  C11 LIG X 999      44.992 128.139  23.816  1.00  0.00     0.007 C 
HETATM   19  C12 LIG X 999      43.613 128.731  24.109  1.00  0.00     0.035 C 
BRANCH  15  20
HETATM   20  N5  LIG X 999      44.311 131.067  24.499  1.00  0.00    -0.105 NA
HETATM   21  N6  LIG X 999      44.080 132.274  24.561  1.00  0.00    -0.167 NA
HETATM   22  N7  LIG X 999      43.850 133.481  24.624  1.00  0.00     0.068 N 
ENDBRANCH  15  20
ENDBRANCH   7  10
ENDBRANCH   5   6
ENDBRANCH   4   5
ENDBRANCH   1   4
TORSDOF 5
ENDMDL
MODEL 8
REMARK VINA RESULT:      -5.0      2.471      8.043
REMARK  5 active torsions:
REMARK  status: ('A' for Active; 'I' for Inactive)
REMARK    1  A    between atoms: C6_6  and  C7_7 
REMARK       I    between atoms: C7_7  and  N1_9 
REMARK    2  A    between atoms: N1_9  and  C8_11 
REMARK    3  A    between atoms: C8_11  and  C9_12 
REMARK    4  A    between atoms: C9_12  and  N2_13 
REMARK    5  A    between atoms: C13_19  and  N5_20 
ROOT
HETATM    1  N2  LIG X 999      42.383 129.767  23.516  1.00  0.00    -0.114 NA
HETATM    2  N3  LIG X 999      41.626 128.800  23.587  1.00  0.00    -0.168 NA
HETATM    3  N4  LIG X 999      40.868 127.833  23.659  1.00  0.00     0.068 N 
ENDROOT
BRANCH   1   4
HETATM    4  C9  LIG X 999      43.469 129.787  22.546  1.00  0.00     0.208 C 
BRANCH   4   5
HETATM    5  C8  LIG X 999      43.907 131.227  22.278  1.00  0.00     0.147 C 
BRANCH   5   6
HETATM    6  N1  LIG X 999      44.164 131.439  20.854  1.00  0.00    -0.355 N 
HETATM    7  C7  LIG X 999      45.180 130.717  20.137  1.00  0.00     0.251 C 
HETATM    8  O1  LIG X 999      45.945 129.931  20.763  1.00  0.00    -0.268 OA
HETATM    9  H4  LIG X 999      43.589 132.158  20.361  1.00  0.00     0.162 HD
BRANCH   7  10
HETATM   10  C6  LIG X 999      45.358 130.888  18.676  1.00  0.00     0.032 A 
HETATM   11  C1  LIG X 999      44.655 131.896  17.999  1.00  0.00     0.017 A 
HETATM   12  C2  LIG X 999      44.817 132.075  16.625  1.00  0.00     0.011 A 
HETATM   13  C3  LIG X 999      45.697 131.261  15.895  1.00  0.00    -0.024 A 
HETATM   14  C4  LIG X 999      46.407 130.236  16.565  1.00  0.00    -0.049 A 
HETATM   15  C13 LIG X 999      45.789 131.445  14.396  1.00  0.00     0.179 C 
HETATM   16  C5  LIG X 999      46.245 130.073  17.951  1.00  0.00     0.024 A 
HETATM   17  C10 LIG X 999      47.432 129.386  15.851  1.00  0.00     0.039 C 
HETATM   18  C11 LIG X 999      47.251 129.386  14.331  1.00  0.00     0.007 C 
HETATM   19  C12 LIG X 999      47.069 130.815  13.817  1.00  0.00     0.035 C 
BRANCH  15  20
HETATM   20  N5  LIG X 999      44.601 130.861  13.777  1.00  0.00    -0.105 NA
HETATM   21  N6  LIG X 999      43.523 131.455  13.780  1.00  0.00    -0.167 NA
HETATM   22  N7  LIG X 999      42.445 132.048  13.783  1.00  0.00     0.068 N 
ENDBRANCH  15  20
ENDBRANCH   7  10
ENDBRANCH   5   6
ENDBRANCH   4   5
ENDBRANCH   1   4
TORSDOF 5
ENDMDL
