REMARK VINA RESULT:      -7.9      0.000      0.000
REMARK  6 active torsions:
REMARK  status: ('A' for Active; 'I' for Inactive)
REMARK    1  A    between atoms: O1_2  and  C1_3 
REMARK    2  A    between atoms: C1_3  and  C4_10 
REMARK    3  A    between atoms: N1_4  and  C2_5 
REMARK    4  A    between atoms: C2_5  and  C3_6 
REMARK    5  A    between atoms: C3_6  and  N2_7 
REMARK    6  A    between atoms: C13_19  and  N5_20 
ROOT
HETATM    1  N2  LIG X 999      46.426 129.669  14.603  1.00  0.00    -0.114 NA
HETATM    2  N3  LIG X 999      47.512 129.584  14.031  1.00  0.00    -0.168 NA
HETATM    3  N4  LIG X 999      48.599 129.498  13.459  1.00  0.00     0.068 N 
ENDROOT
BRANCH   1   4
HETATM    4  C3  LIG X 999      45.498 130.740  14.273  1.00  0.00     0.211 C 
BRANCH   4   5
HETATM    5  C2  LIG X 999      45.842 131.986  15.081  1.00  0.00     0.176 C 
BRANCH   5   6
HETATM    6  N1  LIG X 999      45.755 131.685  16.505  1.00  0.00    -0.265 NA
HETATM    7  C1  LIG X 999      44.648 131.739  17.183  1.00  0.00     0.167 C 
BRANCH   7   8
HETATM    8  O1  LIG X 999      43.460 132.100  16.540  1.00  0.00    -0.344 OA
HETATM    9  H1  LIG X 999      42.550 131.822  16.882  1.00  0.00     0.219 HD
ENDBRANCH   7   8
BRANCH   7  10
HETATM   10  C4  LIG X 999      44.661 131.408  18.630  1.00  0.00     0.017 A 
HETATM   11  C5  LIG X 999      45.691 130.630  19.181  1.00  0.00     0.016 A 
HETATM   12  C6  LIG X 999      45.697 130.323  20.543  1.00  0.00     0.011 A 
HETATM   13  C7  LIG X 999      44.677 130.787  21.387  1.00  0.00    -0.024 A 
HETATM   14  C8  LIG X 999      43.616 131.545  20.838  1.00  0.00    -0.049 A 
HETATM   15  C13 LIG X 999      44.689 130.373  22.843  1.00  0.00     0.179 C 
HETATM   16  C9  LIG X 999      43.625 131.858  19.469  1.00  0.00     0.023 A 
HETATM   17  C10 LIG X 999      42.527 132.130  21.707  1.00  0.00     0.039 C 
HETATM   18  C11 LIG X 999      42.408 131.431  23.064  1.00  0.00     0.007 C 
HETATM   19  C12 LIG X 999      43.787 131.273  23.705  1.00  0.00     0.035 C 
BRANCH  15  20
HETATM   20  N5  LIG X 999      44.266 128.978  22.938  1.00  0.00    -0.105 NA
HETATM   21  N6  LIG X 999      44.822 128.192  23.706  1.00  0.00    -0.167 NA
HETATM   22  N7  LIG X 999      45.376 127.408  24.475  1.00  0.00     0.068 N 
ENDBRANCH  15  20
ENDBRANCH   7  10
ENDBRANCH   5   6
ENDBRANCH   4   5
ENDBRANCH   1   4
TORSDOF 6
