REMARK VINA RESULT:      -7.0      1.436      2.020
REMARK  1 active torsions:
REMARK  status: ('A' for Active; 'I' for Inactive)
REMARK    1  A    between atoms: C9_10  and  N2_11 
ROOT
HETATM    1  C1  LIG X 999      46.809 129.208  14.162  1.00  0.00     0.272 C 
HETATM    2  N1  LIG X 999      46.512 130.464  14.889  1.00  0.00    -0.067 N 
HETATM    3  C2  LIG X 999      47.323 131.561  14.307  1.00  0.00     0.272 C 
HETATM    4  C3  LIG X 999      45.056 130.799  14.793  1.00  0.00     0.276 C 
HETATM    5  C4  LIG X 999      44.621 131.085  16.176  1.00  0.00    -0.024 A 
HETATM    6  C5  LIG X 999      43.373 131.542  16.605  1.00  0.00     0.021 A 
HETATM    7  C6  LIG X 999      43.162 131.729  17.985  1.00  0.00    -0.025 A 
HETATM    8  C7  LIG X 999      41.927 132.191  18.461  1.00  0.00     0.014 A 
HETATM    9  C8  LIG X 999      41.725 132.371  19.832  1.00  0.00     0.030 A 
HETATM   10  C9  LIG X 999      42.752 132.091  20.746  1.00  0.00     0.026 A 
HETATM   11  C10 LIG X 999      43.992 131.628  20.281  1.00  0.00     0.041 A 
HETATM   12  C11 LIG X 999      44.208 131.444  18.908  1.00  0.00    -0.023 A 
HETATM   13  C12 LIG X 999      45.451 130.977  18.433  1.00  0.00     0.021 A 
HETATM   14  C13 LIG X 999      45.622 130.812  17.058  1.00  0.00    -0.024 A 
HETATM   15  C14 LIG X 999      46.820 130.318  16.347  1.00  0.00     0.276 C 
ENDROOT
BRANCH  10  16
HETATM   16  N2  LIG X 999      42.536 132.278  22.147  1.00  0.00    -0.399 N 
HETATM   17  H12 LIG X 999      43.304 132.625  22.765  1.00  0.00     0.156 HD
HETATM   18  H13 LIG X 999      41.607 132.072  22.577  1.00  0.00     0.156 HD
ENDBRANCH  10  16
TORSDOF 1
