REMARK VINA RESULT:      -7.0      0.000      0.000
REMARK  4 active torsions:
REMARK  status: ('A' for Active; 'I' for Inactive)
REMARK    1  A    between atoms: O1_2  and  C1_3 
REMARK    2  A    between atoms: C1_3  and  O2_4 
REMARK    3  A    between atoms: O2_4  and  C2_5 
REMARK    4  A    between atoms: C5_8  and  N1_9 
ROOT
HETATM    1  N1  LIG X 999      44.965 130.815  22.258  1.00  0.00    -0.205 NA
HETATM    2  C6  LIG X 999      44.556 129.809  22.923  1.00  0.00     0.337 C 
HETATM    3  O3  LIG X 999      44.158 128.831  23.569  1.00  0.00    -0.260 OA
ENDROOT
BRANCH   1   4
HETATM    4  C5  LIG X 999      44.833 130.953  20.831  1.00  0.00     0.072 A 
HETATM    5  C4  LIG X 999      45.818 130.456  19.957  1.00  0.00     0.035 A 
HETATM    6  C3  LIG X 999      45.682 130.593  18.577  1.00  0.00     0.040 A 
HETATM    7  C2  LIG X 999      44.554 131.219  18.026  1.00  0.00     0.091 A 
HETATM    8  C12 LIG X 999      43.565 131.742  18.884  1.00  0.00     0.010 A 
HETATM    9  C7  LIG X 999      43.701 131.605  20.292  1.00  0.00     0.006 A 
HETATM   10  C11 LIG X 999      42.434 132.396  18.358  1.00  0.00     0.015 A 
HETATM   11  C8  LIG X 999      42.695 132.129  21.132  1.00  0.00     0.014 A 
HETATM   12  C9  LIG X 999      41.584 132.774  20.589  1.00  0.00     0.001 A 
HETATM   13  C10 LIG X 999      41.454 132.907  19.207  1.00  0.00     0.001 A 
BRANCH   7  14
HETATM   14  O2  LIG X 999      44.421 131.373  16.637  1.00  0.00    -0.273 OA
BRANCH  14  15
HETATM   15  C1  LIG X 999      45.486 131.550  15.739  1.00  0.00     0.265 C 
HETATM   16  N2  LIG X 999      45.960 130.525  15.080  1.00  0.00    -0.350 N 
HETATM   17  C13 LIG X 999      45.361 129.196  15.261  1.00  0.00     0.153 C 
HETATM   18  C14 LIG X 999      47.089 130.702  14.155  1.00  0.00     0.153 C 
BRANCH  15  19
HETATM   19  O1  LIG X 999      46.070 132.811  15.583  1.00  0.00    -0.327 OA
HETATM   20  H1  LIG X 999      47.034 132.989  15.839  1.00  0.00     0.221 HD
ENDBRANCH  15  19
ENDBRANCH  14  15
ENDBRANCH   7  14
ENDBRANCH   1   4
TORSDOF 4
