REMARK VINA RESULT:      -4.0      2.406      6.018
REMARK  5 active torsions:
REMARK  status: ('A' for Active; 'I' for Inactive)
REMARK    1  A    between atoms: C3_3  and  N1_4 
REMARK    2  A    between atoms: N1_4  and  C6_7 
REMARK    3  A    between atoms: C6_7  and  C7_8 
REMARK    4  A    between atoms: C9_10  and  C10_11 
REMARK    5  A    between atoms: C11_14  and  N4_15 
ROOT
HETATM    1  C1  LIG X 999      47.303 123.890  21.044  1.00  0.00     0.013 C 
HETATM    2  C2  LIG X 999      47.095 124.560  22.024  1.00  0.00    -0.089 C 
HETATM    3  C3  LIG X 999      46.840 125.379  23.225  1.00  0.00     0.329 C 
ENDROOT
BRANCH   3   4
HETATM    4  N1  LIG X 999      45.444 125.906  23.302  1.00  0.00    -0.061 N 
HETATM    5  C4  LIG X 999      45.282 126.714  24.538  1.00  0.00     0.273 C 
HETATM    6  C5  LIG X 999      44.515 124.752  23.397  1.00  0.00     0.273 C 
BRANCH   4   7
HETATM    7  C6  LIG X 999      45.085 126.767  22.126  1.00  0.00     0.275 C 
BRANCH   7   8
HETATM    8  C7  LIG X 999      44.330 128.034  22.483  1.00  0.00    -0.035 C 
HETATM    9  C8  LIG X 999      44.988 129.196  22.673  1.00  0.00     0.001 C 
HETATM   10  C9  LIG X 999      44.221 130.491  22.841  1.00  0.00     0.054 C 
HETATM   11  C12 LIG X 999      45.076 131.549  23.581  1.00  0.00     0.023 C 
HETATM   12  C16 LIG X 999      42.963 130.198  23.713  1.00  0.00     0.028 C 
HETATM   13  C13 LIG X 999      44.266 132.834  23.853  1.00  0.00     0.002 C 
HETATM   14  C14 LIG X 999      42.967 132.542  24.624  1.00  0.00     0.001 C 
HETATM   15  C15 LIG X 999      42.118 131.462  23.936  1.00  0.00     0.010 C 
HETATM   16  C17 LIG X 999      42.184 129.033  23.157  1.00  0.00    -0.020 C 
HETATM   17  C18 LIG X 999      42.848 127.992  22.639  1.00  0.00     0.005 C 
BRANCH  10  18
HETATM   18  C10 LIG X 999      43.885 130.984  21.441  1.00  0.00     0.184 A 
HETATM   19  N2  LIG X 999      42.651 131.328  21.015  1.00  0.00    -0.124 NA
HETATM   20  N3  LIG X 999      42.762 131.642  19.733  1.00  0.00    -0.099 NA
HETATM   21  C11 LIG X 999      44.059 131.467  19.426  1.00  0.00     0.326 A 
HETATM   22  O1  LIG X 999      44.756 131.060  20.460  1.00  0.00    -0.255 OA
BRANCH  21  23
HETATM   23  N4  LIG X 999      44.600 131.695  18.128  1.00  0.00    -0.023 NA
HETATM   24  N5  LIG X 999      45.287 130.838  17.574  1.00  0.00    -0.158 NA
HETATM   25  N6  LIG X 999      45.976 129.980  17.021  1.00  0.00     0.068 N 
ENDBRANCH  21  23
ENDBRANCH  10  18
ENDBRANCH   7   8
ENDBRANCH   4   7
ENDBRANCH   3   4
TORSDOF 5
