REMARK VINA RESULT:      -5.4      5.451      7.431
REMARK  4 active torsions:
REMARK  status: ('A' for Active; 'I' for Inactive)
REMARK    1  A    between atoms: C2_2  and  C3_3 
REMARK    2  A    between atoms: C3_3  and  C5_5 
REMARK       I    between atoms: C5_5  and  N1_7 
REMARK    3  A    between atoms: N1_7  and  C6_8 
REMARK    4  A    between atoms: C7_9  and  O2_10 
ROOT
HETATM    1  C6  LIG X 999      44.014 128.264  22.884  1.00  0.00     0.104 A 
HETATM    2  C7  LIG X 999      42.990 128.431  23.841  1.00  0.00     0.098 A 
HETATM    3  C9  LIG X 999      42.400 129.697  24.013  1.00  0.00     0.040 A 
HETATM    4  C10 LIG X 999      42.841 130.792  23.272  1.00  0.00     0.015 A 
HETATM    5  C11 LIG X 999      43.883 130.650  22.352  1.00  0.00    -0.024 A 
HETATM    6  C12 LIG X 999      44.337 131.761  21.621  1.00  0.00     0.012 A 
HETATM    7  C13 LIG X 999      45.378 131.619  20.702  1.00  0.00     0.001 A 
HETATM    8  C14 LIG X 999      45.974 130.373  20.503  1.00  0.00     0.001 A 
HETATM    9  C15 LIG X 999      45.532 129.259  21.221  1.00  0.00     0.014 A 
HETATM   10  C16 LIG X 999      44.484 129.381  22.156  1.00  0.00     0.006 A 
ENDROOT
BRANCH   1  11
HETATM   11  N1  LIG X 999      44.631 126.981  22.686  1.00  0.00    -0.210 NA
HETATM   12  C5  LIG X 999      45.661 126.422  23.511  1.00  0.00     0.247 C 
HETATM   13  O1  LIG X 999      45.940 126.943  24.625  1.00  0.00    -0.271 OA
BRANCH  12  14
HETATM   14  C3  LIG X 999      46.367 125.164  23.079  1.00  0.00     0.076 C 
HETATM   15  C4  LIG X 999      45.353 124.172  22.502  1.00  0.00     0.020 C 
BRANCH  14  16
HETATM   16  C2  LIG X 999      47.479 125.464  22.053  1.00  0.00     0.009 C 
HETATM   17  C1  LIG X 999      48.111 124.190  21.493  1.00  0.00     0.006 C 
ENDBRANCH  14  16
ENDBRANCH  12  14
ENDBRANCH   1  11
BRANCH   2  18
HETATM   18  O2  LIG X 999      42.604 127.331  24.625  1.00  0.00    -0.354 OA
HETATM   19  C8  LIG X 999      41.616 126.375  24.254  1.00  0.00     0.210 C 
ENDBRANCH   2  18
TORSDOF 4
