REMARK VINA RESULT:      -6.5      1.495      2.073
REMARK  4 active torsions:
REMARK  status: ('A' for Active; 'I' for Inactive)
REMARK    1  A    between atoms: C1_1  and  C2_6 
REMARK    2  A    between atoms: N1_2  and  N2_3 
REMARK    3  A    between atoms: C2_6  and  C3_8 
REMARK    4  A    between atoms: C11_16  and  N4_17 
ROOT
HETATM    1  N4  LIG X 999      45.697 130.049  19.097  1.00  0.00    -0.105 NA
HETATM    2  N5  LIG X 999      45.614 129.696  20.274  1.00  0.00    -0.167 NA
HETATM    3  N6  LIG X 999      45.533 129.343  21.449  1.00  0.00     0.068 N 
ENDROOT
BRANCH   1   4
HETATM    4  C11 LIG X 999      45.480 131.439  18.701  1.00  0.00     0.179 C 
HETATM    5  C10 LIG X 999      44.083 131.883  19.093  1.00  0.00    -0.024 A 
HETATM    6  C5  LIG X 999      43.018 131.897  18.157  1.00  0.00    -0.049 A 
HETATM    7  C9  LIG X 999      43.824 132.219  20.433  1.00  0.00     0.010 A 
HETATM    8  C4  LIG X 999      43.250 131.662  16.682  1.00  0.00     0.051 C 
HETATM    9  C6  LIG X 999      41.730 132.263  18.582  1.00  0.00     0.007 A 
HETATM   10  C3  LIG X 999      44.570 130.928  16.395  1.00  0.00     0.068 C 
HETATM   11  C12 LIG X 999      45.718 131.578  17.190  1.00  0.00     0.048 C 
HETATM   12  C7  LIG X 999      41.490 132.588  19.918  1.00  0.00     0.001 A 
HETATM   13  C8  LIG X 999      42.535 132.569  20.841  1.00  0.00     0.001 A 
BRANCH  10  14
HETATM   14  C2  LIG X 999      44.854 130.935  14.908  1.00  0.00     0.172 C 
HETATM   15  O1  LIG X 999      43.938 131.242  14.097  1.00  0.00    -0.291 OA
BRANCH  14  16
HETATM   16  C1  LIG X 999      46.161 130.525  14.368  1.00  0.00     0.190 C 
HETATM   17  N1  LIG X 999      46.670 129.369  14.658  1.00  0.00    -0.165 NA
BRANCH  17  18
HETATM   18  N2  LIG X 999      47.911 128.960  14.147  1.00  0.00    -0.177 N 
HETATM   19  H2  LIG X 999      48.376 128.092  14.496  1.00  0.00     0.214 HD
HETATM   20  N3  LIG X 999      48.480 129.653  13.249  1.00  0.00    -0.031 N 
ENDBRANCH  17  18
ENDBRANCH  14  16
ENDBRANCH  10  14
ENDBRANCH   1   4
TORSDOF 4
