REMARK VINA RESULT:      -8.2      5.211      7.574
REMARK  6 active torsions:
REMARK  status: ('A' for Active; 'I' for Inactive)
REMARK    1  A    between atoms: O1_2  and  C1_3 
REMARK    2  A    between atoms: C1_3  and  C4_6 
REMARK    3  A    between atoms: C4_6  and  O2_7 
REMARK    4  A    between atoms: C4_6  and  O3_9 
REMARK    5  A    between atoms: O3_9  and  C5_10 
REMARK    6  A    between atoms: C10_15  and  N1_16 
ROOT
HETATM    1  N1  LIG X 999      45.104 130.980  14.264  1.00  0.00    -0.073 NA
HETATM    2  N2  LIG X 999      46.172 130.976  13.647  1.00  0.00    -0.162 NA
HETATM    3  N3  LIG X 999      47.237 130.974  13.031  1.00  0.00     0.068 N 
ENDROOT
BRANCH   1   4
HETATM    4  C10 LIG X 999      45.046 131.011  15.696  1.00  0.00     0.094 A 
HETATM    5  C9  LIG X 999      43.894 131.515  16.313  1.00  0.00     0.046 A 
HETATM    6  C8  LIG X 999      43.798 131.562  17.712  1.00  0.00    -0.024 A 
HETATM    7  C7  LIG X 999      42.647 132.069  18.331  1.00  0.00     0.015 A 
HETATM    8  C13 LIG X 999      44.872 131.099  18.506  1.00  0.00    -0.023 A 
HETATM    9  C6  LIG X 999      42.562 132.113  19.725  1.00  0.00     0.038 A 
HETATM   10  C5  LIG X 999      43.614 131.650  20.523  1.00  0.00     0.073 A 
HETATM   11  C14 LIG X 999      44.777 131.147  19.906  1.00  0.00     0.049 A 
HETATM   12  C12 LIG X 999      46.025 130.596  17.885  1.00  0.00     0.014 A 
HETATM   13  C11 LIG X 999      46.112 130.552  16.491  1.00  0.00     0.035 A 
BRANCH  10  14
HETATM   14  O3  LIG X 999      43.462 131.724  21.917  1.00  0.00    -0.314 OA
BRANCH  14  15
HETATM   15  C4  LIG X 999      42.826 130.746  22.744  1.00  0.00     0.321 C 
BRANCH  15  16
HETATM   16  C1  LIG X 999      43.879 129.938  23.447  1.00  0.00     0.094 C 
HETATM   17  C2  LIG X 999      44.052 128.641  23.137  1.00  0.00     0.006 C 
HETATM   18  C3  LIG X 999      45.081 127.772  23.794  1.00  0.00     0.038 C 
BRANCH  16  19
HETATM   19  O1  LIG X 999      44.661 130.576  24.415  1.00  0.00    -0.360 OA
HETATM   20  H1  LIG X 999      45.666 130.472  24.476  1.00  0.00     0.217 HD
ENDBRANCH  16  19
ENDBRANCH  15  16
BRANCH  15  21
HETATM   21  O2  LIG X 999      42.018 131.377  23.703  1.00  0.00    -0.365 OA
HETATM   22  H7  LIG X 999      42.535 132.143  24.061  1.00  0.00     0.213 HD
ENDBRANCH  15  21
ENDBRANCH  14  15
ENDBRANCH  10  14
ENDBRANCH   1   4
TORSDOF 6
