MODEL 1
REMARK VINA RESULT:      -5.6      0.000      0.000
REMARK  5 active torsions:
REMARK  status: ('A' for Active; 'I' for Inactive)
REMARK    1  A    between atoms: C3_3  and  O1_4 
REMARK    2  A    between atoms: O1_4  and  C4_5 
REMARK    3  A    between atoms: C5_6  and  C6_7 
REMARK    4  A    between atoms: C6_7  and  O2_8 
REMARK    5  A    between atoms: C17_20  and  N1_21 
ROOT
HETATM    1  C1  LIG X 999      44.488 129.827  22.549  1.00  0.00     0.014 C 
HETATM    2  C2  LIG X 999      43.379 129.492  22.879  1.00  0.00    -0.091 C 
HETATM    3  C3  LIG X 999      42.033 129.083  23.281  1.00  0.00     0.268 C 
ENDROOT
BRANCH   3   4
HETATM    4  O1  LIG X 999      42.127 128.061  24.266  1.00  0.00    -0.337 OA
BRANCH   4   5
HETATM    5  C4  LIG X 999      41.669 126.765  24.012  1.00  0.00     0.106 C 
HETATM    6  C5  LIG X 999      40.316 126.442  24.233  1.00  0.00     0.012 C 
HETATM    7  C7  LIG X 999      39.902 125.090  24.125  1.00  0.00    -0.014 C 
HETATM    8  C8  LIG X 999      38.588 124.699  24.479  1.00  0.00     0.013 C 
HETATM    9  C12 LIG X 999      40.830 124.093  23.705  1.00  0.00    -0.012 C 
HETATM   10  C9  LIG X 999      38.228 123.355  24.518  1.00  0.00     0.001 C 
HETATM   11  C10 LIG X 999      39.172 122.375  24.245  1.00  0.00     0.001 C 
HETATM   12  C11 LIG X 999      40.464 122.735  23.867  1.00  0.00     0.013 C 
HETATM   13  C13 LIG X 999      42.122 124.483  23.235  1.00  0.00     0.011 C 
HETATM   14  C14 LIG X 999      42.998 123.645  22.475  1.00  0.00    -0.045 C 
HETATM   15  C18 LIG X 999      42.566 125.803  23.509  1.00  0.00     0.080 C 
HETATM   16  C15 LIG X 999      42.552 122.420  21.711  1.00  0.00     0.049 C 
HETATM   17  C16 LIG X 999      44.328 124.039  22.283  1.00  0.00     0.061 C 
HETATM   18  C17 LIG X 999      44.757 125.300  22.704  1.00  0.00     0.165 C 
HETATM   19  N4  LIG X 999      43.863 126.157  23.257  1.00  0.00    -0.336 N 
HETATM   20  H15 LIG X 999      44.206 127.118  23.488  1.00  0.00     0.168 HD
BRANCH   6  21
HETATM   21  C6  LIG X 999      39.340 127.538  24.624  1.00  0.00     0.206 C 
BRANCH  21  22
HETATM   22  O2  LIG X 999      38.317 127.616  23.670  1.00  0.00    -0.396 OA
HETATM   23  H6  LIG X 999      37.629 126.957  23.948  1.00  0.00     0.209 HD
ENDBRANCH  21  22
ENDBRANCH   6  21
BRANCH  18  24
HETATM   24  N1  LIG X 999      46.110 125.738  22.501  1.00  0.00    -0.054 NA
HETATM   25  N2  LIG X 999      46.965 125.022  21.979  1.00  0.00    -0.160 NA
HETATM   26  N3  LIG X 999      47.821 124.309  21.457  1.00  0.00     0.068 N 
ENDBRANCH  18  24
ENDBRANCH   4   5
ENDBRANCH   3   4
TORSDOF 5
ENDMDL
MODEL 2
REMARK VINA RESULT:      -5.4      2.884      5.333
REMARK  5 active torsions:
REMARK  status: ('A' for Active; 'I' for Inactive)
REMARK    1  A    between atoms: C3_3  and  O1_4 
REMARK    2  A    between atoms: O1_4  and  C4_5 
REMARK    3  A    between atoms: C5_6  and  C6_7 
REMARK    4  A    between atoms: C6_7  and  O2_8 
REMARK    5  A    between atoms: C17_20  and  N1_21 
ROOT
HETATM    1  C1  LIG X 999      43.875 130.731  22.262  1.00  0.00     0.014 C 
HETATM    2  C2  LIG X 999      43.109 129.988  22.822  1.00  0.00    -0.091 C 
HETATM    3  C3  LIG X 999      42.181 129.084  23.500  1.00  0.00     0.268 C 
ENDROOT
BRANCH   3   4
HETATM    4  O1  LIG X 999      42.920 128.102  24.217  1.00  0.00    -0.337 OA
BRANCH   4   5
HETATM    5  C4  LIG X 999      42.922 126.762  23.818  1.00  0.00     0.106 C 
HETATM    6  C5  LIG X 999      44.141 126.113  23.545  1.00  0.00     0.012 C 
HETATM    7  C7  LIG X 999      44.120 124.808  22.988  1.00  0.00    -0.014 C 
HETATM    8  C8  LIG X 999      45.314 124.176  22.564  1.00  0.00     0.013 C 
HETATM    9  C12 LIG X 999      42.877 124.135  22.801  1.00  0.00    -0.012 C 
HETATM   10  C9  LIG X 999      45.278 122.963  21.882  1.00  0.00     0.001 C 
HETATM   11  C10 LIG X 999      44.058 122.377  21.574  1.00  0.00     0.001 C 
HETATM   12  C11 LIG X 999      42.871 122.964  22.005  1.00  0.00     0.013 C 
HETATM   13  C13 LIG X 999      41.678 124.706  23.327  1.00  0.00     0.011 C 
HETATM   14  C14 LIG X 999      40.452 123.993  23.515  1.00  0.00    -0.045 C 
HETATM   15  C18 LIG X 999      41.700 126.070  23.722  1.00  0.00     0.080 C 
HETATM   16  C15 LIG X 999      40.348 122.487  23.592  1.00  0.00     0.049 C 
HETATM   17  C16 LIG X 999      39.281 124.706  23.800  1.00  0.00     0.061 C 
HETATM   18  C17 LIG X 999      39.333 126.080  24.039  1.00  0.00     0.165 C 
HETATM   19  N4  LIG X 999      40.534 126.711  24.040  1.00  0.00    -0.336 N 
HETATM   20  H15 LIG X 999      40.539 127.724  24.299  1.00  0.00     0.168 HD
BRANCH   6  21
HETATM   21  C6  LIG X 999      45.450 126.837  23.810  1.00  0.00     0.206 C 
BRANCH  21  22
HETATM   22  O2  LIG X 999      45.694 127.754  22.780  1.00  0.00    -0.396 OA
HETATM   23  H6  LIG X 999      46.597 128.130  22.952  1.00  0.00     0.209 HD
ENDBRANCH  21  22
ENDBRANCH   6  21
BRANCH  18  24
HETATM   24  N1  LIG X 999      38.151 126.833  24.354  1.00  0.00    -0.054 NA
HETATM   25  N2  LIG X 999      37.263 127.045  23.527  1.00  0.00    -0.160 NA
HETATM   26  N3  LIG X 999      36.375 127.259  22.702  1.00  0.00     0.068 N 
ENDBRANCH  18  24
ENDBRANCH   4   5
ENDBRANCH   3   4
TORSDOF 5
ENDMDL
MODEL 3
REMARK VINA RESULT:      -4.9      3.021      5.174
REMARK  5 active torsions:
REMARK  status: ('A' for Active; 'I' for Inactive)
REMARK    1  A    between atoms: C3_3  and  O1_4 
REMARK    2  A    between atoms: O1_4  and  C4_5 
REMARK    3  A    between atoms: C5_6  and  C6_7 
REMARK    4  A    between atoms: C6_7  and  O2_8 
REMARK    5  A    between atoms: C17_20  and  N1_21 
ROOT
HETATM    1  C1  LIG X 999      49.414 124.291  21.113  1.00  0.00     0.014 C 
HETATM    2  C2  LIG X 999      48.480 124.524  21.838  1.00  0.00    -0.091 C 
HETATM    3  C3  LIG X 999      47.346 124.807  22.717  1.00  0.00     0.268 C 
ENDROOT
BRANCH   3   4
HETATM    4  O1  LIG X 999      46.273 125.336  21.945  1.00  0.00    -0.337 OA
BRANCH   4   5
HETATM    5  C4  LIG X 999      44.945 125.186  22.352  1.00  0.00     0.106 C 
HETATM    6  C5  LIG X 999      44.385 123.897  22.458  1.00  0.00     0.012 C 
HETATM    7  C7  LIG X 999      42.996 123.766  22.715  1.00  0.00    -0.014 C 
HETATM    8  C8  LIG X 999      42.365 122.499  22.686  1.00  0.00     0.013 C 
HETATM    9  C12 LIG X 999      42.204 124.927  22.956  1.00  0.00    -0.012 C 
HETATM   10  C9  LIG X 999      40.982 122.386  22.788  1.00  0.00     0.001 C 
HETATM   11  C10 LIG X 999      40.198 123.528  22.879  1.00  0.00     0.001 C 
HETATM   12  C11 LIG X 999      40.796 124.784  22.938  1.00  0.00     0.013 C 
HETATM   13  C13 LIG X 999      42.840 126.198  23.102  1.00  0.00     0.011 C 
HETATM   14  C14 LIG X 999      42.224 127.354  23.678  1.00  0.00    -0.045 C 
HETATM   15  C18 LIG X 999      44.189 126.328  22.678  1.00  0.00     0.080 C 
HETATM   16  C15 LIG X 999      41.009 127.311  24.574  1.00  0.00     0.049 C 
HETATM   17  C16 LIG X 999      42.848 128.601  23.545  1.00  0.00     0.061 C 
HETATM   18  C17 LIG X 999      44.123 128.695  22.985  1.00  0.00     0.165 C 
HETATM   19  N4  LIG X 999      44.772 127.564  22.613  1.00  0.00    -0.336 N 
HETATM   20  H15 LIG X 999      45.755 127.670  22.270  1.00  0.00     0.168 HD
BRANCH   6  21
HETATM   21  C6  LIG X 999      45.269 122.679  22.253  1.00  0.00     0.206 C 
BRANCH  21  22
HETATM   22  O2  LIG X 999      45.400 122.420  20.883  1.00  0.00    -0.396 OA
HETATM   23  H6  LIG X 999      46.356 122.571  20.663  1.00  0.00     0.209 HD
ENDBRANCH  21  22
ENDBRANCH   6  21
BRANCH  18  24
HETATM   24  N1  LIG X 999      44.794 129.958  22.855  1.00  0.00    -0.054 NA
HETATM   25  N2  LIG X 999      44.924 130.530  21.772  1.00  0.00    -0.160 NA
HETATM   26  N3  LIG X 999      45.055 131.102  20.691  1.00  0.00     0.068 N 
ENDBRANCH  18  24
ENDBRANCH   4   5
ENDBRANCH   3   4
TORSDOF 5
ENDMDL
MODEL 4
REMARK VINA RESULT:      -4.5      2.293      5.719
REMARK  5 active torsions:
REMARK  status: ('A' for Active; 'I' for Inactive)
REMARK    1  A    between atoms: C3_3  and  O1_4 
REMARK    2  A    between atoms: O1_4  and  C4_5 
REMARK    3  A    between atoms: C5_6  and  C6_7 
REMARK    4  A    between atoms: C6_7  and  O2_8 
REMARK    5  A    between atoms: C17_20  and  N1_21 
ROOT
HETATM    1  C1  LIG X 999      39.633 125.418  23.627  1.00  0.00     0.014 C 
HETATM    2  C2  LIG X 999      39.934 126.569  23.820  1.00  0.00    -0.091 C 
HETATM    3  C3  LIG X 999      40.302 127.964  24.055  1.00  0.00     0.268 C 
ENDROOT
BRANCH   3   4
HETATM    4  O1  LIG X 999      41.604 128.018  24.625  1.00  0.00    -0.337 OA
BRANCH   4   5
HETATM    5  C4  LIG X 999      42.731 128.266  23.835  1.00  0.00     0.106 C 
HETATM    6  C5  LIG X 999      43.081 129.591  23.509  1.00  0.00     0.012 C 
HETATM    7  C7  LIG X 999      44.128 129.820  22.580  1.00  0.00    -0.014 C 
HETATM    8  C8  LIG X 999      44.417 131.125  22.113  1.00  0.00     0.013 C 
HETATM    9  C12 LIG X 999      44.872 128.720  22.061  1.00  0.00    -0.012 C 
HETATM   10  C9  LIG X 999      45.339 131.331  21.091  1.00  0.00     0.001 C 
HETATM   11  C10 LIG X 999      45.960 130.247  20.488  1.00  0.00     0.001 C 
HETATM   12  C11 LIG X 999      45.714 128.955  20.948  1.00  0.00     0.013 C 
HETATM   13  C13 LIG X 999      44.673 127.413  22.604  1.00  0.00     0.011 C 
HETATM   14  C14 LIG X 999      45.573 126.315  22.430  1.00  0.00    -0.045 C 
HETATM   15  C18 LIG X 999      43.519 127.185  23.399  1.00  0.00     0.080 C 
HETATM   16  C15 LIG X 999      47.022 126.459  22.028  1.00  0.00     0.049 C 
HETATM   17  C16 LIG X 999      45.160 125.026  22.792  1.00  0.00     0.061 C 
HETATM   18  C17 LIG X 999      43.942 124.835  23.447  1.00  0.00     0.165 C 
HETATM   19  N4  LIG X 999      43.184 125.912  23.771  1.00  0.00    -0.336 N 
HETATM   20  H15 LIG X 999      42.317 125.733  24.329  1.00  0.00     0.168 HD
BRANCH   6  21
HETATM   21  C6  LIG X 999      42.305 130.743  24.124  1.00  0.00     0.206 C 
BRANCH  21  22
HETATM   22  O2  LIG X 999      41.970 131.667  23.126  1.00  0.00    -0.396 OA
HETATM   23  H6  LIG X 999      40.988 131.597  23.002  1.00  0.00     0.209 HD
ENDBRANCH  21  22
ENDBRANCH   6  21
BRANCH  18  24
HETATM   24  N1  LIG X 999      43.503 123.527  23.848  1.00  0.00    -0.054 NA
HETATM   25  N2  LIG X 999      42.528 122.973  23.340  1.00  0.00    -0.160 NA
HETATM   26  N3  LIG X 999      41.554 122.417  22.834  1.00  0.00     0.068 N 
ENDBRANCH  18  24
ENDBRANCH   4   5
ENDBRANCH   3   4
TORSDOF 5
ENDMDL
MODEL 5
REMARK VINA RESULT:      -4.5      2.853      5.494
REMARK  5 active torsions:
REMARK  status: ('A' for Active; 'I' for Inactive)
REMARK    1  A    between atoms: C3_3  and  O1_4 
REMARK    2  A    between atoms: O1_4  and  C4_5 
REMARK    3  A    between atoms: C5_6  and  C6_7 
REMARK    4  A    between atoms: C6_7  and  O2_8 
REMARK    5  A    between atoms: C17_20  and  N1_21 
ROOT
HETATM    1  C1  LIG X 999      42.853 131.757  23.416  1.00  0.00     0.014 C 
HETATM    2  C2  LIG X 999      42.753 130.647  23.874  1.00  0.00    -0.091 C 
HETATM    3  C3  LIG X 999      42.631 129.299  24.428  1.00  0.00     0.268 C 
ENDROOT
BRANCH   3   4
HETATM    4  O1  LIG X 999      42.469 128.367  23.365  1.00  0.00    -0.337 OA
BRANCH   4   5
HETATM    5  C4  LIG X 999      43.235 127.199  23.302  1.00  0.00     0.106 C 
HETATM    6  C5  LIG X 999      44.605 127.276  22.984  1.00  0.00     0.012 C 
HETATM    7  C7  LIG X 999      45.332 126.077  22.766  1.00  0.00    -0.014 C 
HETATM    8  C8  LIG X 999      46.670 126.109  22.304  1.00  0.00     0.013 C 
HETATM    9  C12 LIG X 999      44.698 124.815  22.963  1.00  0.00    -0.012 C 
HETATM   10  C9  LIG X 999      47.331 124.937  21.947  1.00  0.00     0.001 C 
HETATM   11  C10 LIG X 999      46.666 123.720  22.004  1.00  0.00     0.001 C 
HETATM   12  C11 LIG X 999      45.359 123.660  22.482  1.00  0.00     0.013 C 
HETATM   13  C13 LIG X 999      43.391 124.763  23.538  1.00  0.00     0.011 C 
HETATM   14  C14 LIG X 999      42.796 123.589  24.100  1.00  0.00    -0.045 C 
HETATM   15  C18 LIG X 999      42.630 125.961  23.587  1.00  0.00     0.080 C 
HETATM   16  C15 LIG X 999      43.574 122.375  24.549  1.00  0.00     0.049 C 
HETATM   17  C16 LIG X 999      41.430 123.593  24.406  1.00  0.00     0.061 C 
HETATM   18  C17 LIG X 999      40.686 124.770  24.298  1.00  0.00     0.165 C 
HETATM   19  N4  LIG X 999      41.309 125.920  23.940  1.00  0.00    -0.336 N 
HETATM   20  H15 LIG X 999      40.734 126.794  23.947  1.00  0.00     0.168 HD
BRANCH   6  21
HETATM   21  C6  LIG X 999      45.264 128.636  22.838  1.00  0.00     0.206 C 
BRANCH  21  22
HETATM   22  O2  LIG X 999      45.021 129.139  21.553  1.00  0.00    -0.396 OA
HETATM   23  H6  LIG X 999      45.881 129.526  21.240  1.00  0.00     0.209 HD
ENDBRANCH  21  22
ENDBRANCH   6  21
BRANCH  18  24
HETATM   24  N1  LIG X 999      39.288 124.807  24.625  1.00  0.00    -0.054 NA
HETATM   25  N2  LIG X 999      38.564 123.814  24.544  1.00  0.00    -0.160 NA
HETATM   26  N3  LIG X 999      37.839 122.823  24.464  1.00  0.00     0.068 N 
ENDBRANCH  18  24
ENDBRANCH   4   5
ENDBRANCH   3   4
TORSDOF 5
ENDMDL
MODEL 6
REMARK VINA RESULT:      -4.1      2.085      3.132
REMARK  5 active torsions:
REMARK  status: ('A' for Active; 'I' for Inactive)
REMARK    1  A    between atoms: C3_3  and  O1_4 
REMARK    2  A    between atoms: O1_4  and  C4_5 
REMARK    3  A    between atoms: C5_6  and  C6_7 
REMARK    4  A    between atoms: C6_7  and  O2_8 
REMARK    5  A    between atoms: C17_20  and  N1_21 
ROOT
HETATM    1  C1  LIG X 999      45.908 132.448  20.979  1.00  0.00     0.014 C 
HETATM    2  C2  LIG X 999      45.679 131.267  21.056  1.00  0.00    -0.091 C 
HETATM    3  C3  LIG X 999      45.401 129.834  21.151  1.00  0.00     0.268 C 
ENDROOT
BRANCH   3   4
HETATM    4  O1  LIG X 999      45.023 129.516  22.486  1.00  0.00    -0.337 OA
BRANCH   4   5
HETATM    5  C4  LIG X 999      44.145 128.463  22.759  1.00  0.00     0.106 C 
HETATM    6  C5  LIG X 999      42.786 128.731  23.013  1.00  0.00     0.012 C 
HETATM    7  C7  LIG X 999      41.942 127.675  23.445  1.00  0.00    -0.014 C 
HETATM    8  C8  LIG X 999      40.609 127.925  23.850  1.00  0.00     0.013 C 
HETATM    9  C12 LIG X 999      42.452 126.346  23.526  1.00  0.00    -0.012 C 
HETATM   10  C9  LIG X 999      39.832 126.918  24.415  1.00  0.00     0.001 C 
HETATM   11  C10 LIG X 999      40.375 125.658  24.625  1.00  0.00     0.001 C 
HETATM   12  C11 LIG X 999      41.676 125.379  24.209  1.00  0.00     0.013 C 
HETATM   13  C13 LIG X 999      43.754 126.055  23.014  1.00  0.00     0.011 C 
HETATM   14  C14 LIG X 999      44.237 124.741  22.719  1.00  0.00    -0.045 C 
HETATM   15  C18 LIG X 999      44.629 127.141  22.748  1.00  0.00     0.080 C 
HETATM   16  C15 LIG X 999      43.349 123.539  22.499  1.00  0.00     0.049 C 
HETATM   17  C16 LIG X 999      45.601 124.555  22.461  1.00  0.00     0.061 C 
HETATM   18  C17 LIG X 999      46.455 125.654  22.352  1.00  0.00     0.165 C 
HETATM   19  N4  LIG X 999      45.943 126.907  22.451  1.00  0.00    -0.336 N 
HETATM   20  H15 LIG X 999      46.601 127.703  22.287  1.00  0.00     0.168 HD
BRANCH   6  21
HETATM   21  C6  LIG X 999      42.261 130.148  22.861  1.00  0.00     0.206 C 
BRANCH  21  22
HETATM   22  O2  LIG X 999      43.141 131.042  23.486  1.00  0.00    -0.396 OA
HETATM   23  H6  LIG X 999      42.740 131.944  23.379  1.00  0.00     0.209 HD
ENDBRANCH  21  22
ENDBRANCH   6  21
BRANCH  18  24
HETATM   24  N1  LIG X 999      47.853 125.493  22.068  1.00  0.00    -0.054 NA
HETATM   25  N2  LIG X 999      48.313 124.461  21.576  1.00  0.00    -0.160 NA
HETATM   26  N3  LIG X 999      48.775 123.431  21.086  1.00  0.00     0.068 N 
ENDBRANCH  18  24
ENDBRANCH   4   5
ENDBRANCH   3   4
TORSDOF 5
ENDMDL
MODEL 7
REMARK VINA RESULT:      -3.8      2.059      4.469
REMARK  5 active torsions:
REMARK  status: ('A' for Active; 'I' for Inactive)
REMARK    1  A    between atoms: C3_3  and  O1_4 
REMARK    2  A    between atoms: O1_4  and  C4_5 
REMARK    3  A    between atoms: C5_6  and  C6_7 
REMARK    4  A    between atoms: C6_7  and  O2_8 
REMARK    5  A    between atoms: C17_20  and  N1_21 
ROOT
HETATM    1  C1  LIG X 999      42.617 123.359  20.786  1.00  0.00     0.014 C 
HETATM    2  C2  LIG X 999      41.961 122.932  21.702  1.00  0.00    -0.091 C 
HETATM    3  C3  LIG X 999      41.166 122.413  22.814  1.00  0.00     0.268 C 
ENDROOT
BRANCH   3   4
HETATM    4  O1  LIG X 999      41.632 122.984  24.031  1.00  0.00    -0.337 OA
BRANCH   4   5
HETATM    5  C4  LIG X 999      42.135 124.287  24.075  1.00  0.00     0.106 C 
HETATM    6  C5  LIG X 999      41.260 125.370  24.288  1.00  0.00     0.012 C 
HETATM    7  C7  LIG X 999      41.757 126.694  24.170  1.00  0.00    -0.014 C 
HETATM    8  C8  LIG X 999      40.887 127.809  24.232  1.00  0.00     0.013 C 
HETATM    9  C12 LIG X 999      43.146 126.913  23.934  1.00  0.00    -0.012 C 
HETATM   10  C9  LIG X 999      41.351 129.094  23.966  1.00  0.00     0.001 C 
HETATM   11  C10 LIG X 999      42.674 129.291  23.597  1.00  0.00     0.001 C 
HETATM   12  C11 LIG X 999      43.557 128.214  23.557  1.00  0.00     0.013 C 
HETATM   13  C13 LIG X 999      44.055 125.811  23.984  1.00  0.00     0.011 C 
HETATM   14  C14 LIG X 999      45.475 125.933  24.112  1.00  0.00    -0.045 C 
HETATM   15  C18 LIG X 999      43.520 124.497  23.934  1.00  0.00     0.080 C 
HETATM   16  C15 LIG X 999      46.178 127.168  24.625  1.00  0.00     0.049 C 
HETATM   17  C16 LIG X 999      46.281 124.808  23.901  1.00  0.00     0.061 C 
HETATM   18  C17 LIG X 999      45.701 123.552  23.711  1.00  0.00     0.165 C 
HETATM   19  N4  LIG X 999      44.353 123.423  23.777  1.00  0.00    -0.336 N 
HETATM   20  H15 LIG X 999      43.963 122.455  23.707  1.00  0.00     0.168 HD
BRANCH   6  21
HETATM   21  C6  LIG X 999      39.797 125.101  24.594  1.00  0.00     0.206 C 
BRANCH  21  22
HETATM   22  O2  LIG X 999      39.090 124.940  23.396  1.00  0.00    -0.396 OA
HETATM   23  H6  LIG X 999      38.719 125.833  23.171  1.00  0.00     0.209 HD
ENDBRANCH  21  22
ENDBRANCH   6  21
BRANCH  18  24
HETATM   24  N1  LIG X 999      46.505 122.377  23.513  1.00  0.00    -0.054 NA
HETATM   25  N2  LIG X 999      47.603 122.414  22.956  1.00  0.00    -0.160 NA
HETATM   26  N3  LIG X 999      48.700 122.448  22.401  1.00  0.00     0.068 N 
ENDBRANCH  18  24
ENDBRANCH   4   5
ENDBRANCH   3   4
TORSDOF 5
ENDMDL
MODEL 8
REMARK VINA RESULT:      -3.5      3.880      6.097
REMARK  5 active torsions:
REMARK  status: ('A' for Active; 'I' for Inactive)
REMARK    1  A    between atoms: C3_3  and  O1_4 
REMARK    2  A    between atoms: O1_4  and  C4_5 
REMARK    3  A    between atoms: C5_6  and  C6_7 
REMARK    4  A    between atoms: C6_7  and  O2_8 
REMARK    5  A    between atoms: C17_20  and  N1_21 
ROOT
HETATM    1  C1  LIG X 999      45.693 131.468  16.649  1.00  0.00     0.014 C 
HETATM    2  C2  LIG X 999      45.751 130.598  17.482  1.00  0.00    -0.091 C 
HETATM    3  C3  LIG X 999      45.823 129.544  18.493  1.00  0.00     0.268 C 
ENDROOT
BRANCH   3   4
HETATM    4  O1  LIG X 999      46.113 130.126  19.759  1.00  0.00    -0.337 OA
BRANCH   4   5
HETATM    5  C4  LIG X 999      45.201 130.052  20.816  1.00  0.00     0.106 C 
HETATM    6  C5  LIG X 999      44.249 131.075  20.993  1.00  0.00     0.012 C 
HETATM    7  C7  LIG X 999      43.438 131.070  22.157  1.00  0.00    -0.014 C 
HETATM    8  C8  LIG X 999      42.572 132.151  22.448  1.00  0.00     0.013 C 
HETATM    9  C12 LIG X 999      43.528 129.988  23.082  1.00  0.00    -0.012 C 
HETATM   10  C9  LIG X 999      41.893 132.217  23.661  1.00  0.00     0.001 C 
HETATM   11  C10 LIG X 999      42.090 131.234  24.621  1.00  0.00     0.001 C 
HETATM   12  C11 LIG X 999      42.915 130.146  24.348  1.00  0.00     0.013 C 
HETATM   13  C13 LIG X 999      44.308 128.838  22.751  1.00  0.00     0.011 C 
HETATM   14  C14 LIG X 999      44.208 127.570  23.407  1.00  0.00    -0.045 C 
HETATM   15  C18 LIG X 999      45.231 128.938  21.676  1.00  0.00     0.080 C 
HETATM   16  C15 LIG X 999      43.019 127.132  24.230  1.00  0.00     0.049 C 
HETATM   17  C16 LIG X 999      45.185 126.596  23.169  1.00  0.00     0.061 C 
HETATM   18  C17 LIG X 999      46.165 126.803  22.196  1.00  0.00     0.165 C 
HETATM   19  N4  LIG X 999      46.135 127.936  21.451  1.00  0.00    -0.336 N 
HETATM   20  H15 LIG X 999      46.838 128.018  20.682  1.00  0.00     0.168 HD
BRANCH   6  21
HETATM   21  C6  LIG X 999      44.138 132.181  19.959  1.00  0.00     0.206 C 
BRANCH  21  22
HETATM   22  O2  LIG X 999      43.076 131.905  19.089  1.00  0.00    -0.396 OA
HETATM   23  H6  LIG X 999      42.265 131.828  19.656  1.00  0.00     0.209 HD
ENDBRANCH  21  22
ENDBRANCH   6  21
BRANCH  18  24
HETATM   24  N1  LIG X 999      47.167 125.812  21.918  1.00  0.00    -0.054 NA
HETATM   25  N2  LIG X 999      46.904 124.612  21.833  1.00  0.00    -0.160 NA
HETATM   26  N3  LIG X 999      46.644 123.412  21.748  1.00  0.00     0.068 N 
ENDBRANCH  18  24
ENDBRANCH   4   5
ENDBRANCH   3   4
TORSDOF 5
ENDMDL
MODEL 9
REMARK VINA RESULT:      -3.4      3.044      6.333
REMARK  5 active torsions:
REMARK  status: ('A' for Active; 'I' for Inactive)
REMARK    1  A    between atoms: C3_3  and  O1_4 
REMARK    2  A    between atoms: O1_4  and  C4_5 
REMARK    3  A    between atoms: C5_6  and  C6_7 
REMARK    4  A    between atoms: C6_7  and  O2_8 
REMARK    5  A    between atoms: C17_20  and  N1_21 
ROOT
HETATM    1  C1  LIG X 999      47.890 123.897  20.946  1.00  0.00     0.014 C 
HETATM    2  C2  LIG X 999      47.216 124.586  21.670  1.00  0.00    -0.091 C 
HETATM    3  C3  LIG X 999      46.397 125.423  22.546  1.00  0.00     0.268 C 
ENDROOT
BRANCH   3   4
HETATM    4  O1  LIG X 999      45.618 126.312  21.754  1.00  0.00    -0.337 OA
BRANCH   4   5
HETATM    5  C4  LIG X 999      44.785 127.267  22.343  1.00  0.00     0.106 C 
HETATM    6  C5  LIG X 999      44.996 128.636  22.088  1.00  0.00     0.012 C 
HETATM    7  C7  LIG X 999      44.249 129.598  22.815  1.00  0.00    -0.014 C 
HETATM    8  C8  LIG X 999      44.529 130.981  22.697  1.00  0.00     0.013 C 
HETATM    9  C12 LIG X 999      43.233 129.173  23.721  1.00  0.00    -0.012 C 
HETATM   10  C9  LIG X 999      43.900 131.910  23.521  1.00  0.00     0.001 C 
HETATM   11  C10 LIG X 999      43.015 131.483  24.500  1.00  0.00     0.001 C 
HETATM   12  C11 LIG X 999      42.701 130.130  24.618  1.00  0.00     0.013 C 
HETATM   13  C13 LIG X 999      42.859 127.795  23.767  1.00  0.00     0.011 C 
HETATM   14  C14 LIG X 999      41.651 127.299  24.354  1.00  0.00    -0.045 C 
HETATM   15  C18 LIG X 999      43.723 126.843  23.165  1.00  0.00     0.080 C 
HETATM   16  C15 LIG X 999      40.429 128.144  24.625  1.00  0.00     0.049 C 
HETATM   17  C16 LIG X 999      41.506 125.922  24.563  1.00  0.00     0.061 C 
HETATM   18  C17 LIG X 999      42.464 125.030  24.075  1.00  0.00     0.165 C 
HETATM   19  N4  LIG X 999      43.511 125.505  23.357  1.00  0.00    -0.336 N 
HETATM   20  H15 LIG X 999      44.164 124.799  22.944  1.00  0.00     0.168 HD
BRANCH   6  21
HETATM   21  C6  LIG X 999      46.047 129.054  21.074  1.00  0.00     0.206 C 
BRANCH  21  22
HETATM   22  O2  LIG X 999      45.552 130.107  20.294  1.00  0.00    -0.396 OA
HETATM   23  H6  LIG X 999      45.849 129.927  19.364  1.00  0.00     0.209 HD
ENDBRANCH  21  22
ENDBRANCH   6  21
BRANCH  18  24
HETATM   24  N1  LIG X 999      42.329 123.612  24.258  1.00  0.00    -0.054 NA
HETATM   25  N2  LIG X 999      41.318 122.994  23.920  1.00  0.00    -0.160 NA
HETATM   26  N3  LIG X 999      40.309 122.376  23.584  1.00  0.00     0.068 N 
ENDBRANCH  18  24
ENDBRANCH   4   5
ENDBRANCH   3   4
TORSDOF 5
ENDMDL
