REMARK VINA RESULT:      -5.4      2.884      5.333
REMARK  5 active torsions:
REMARK  status: ('A' for Active; 'I' for Inactive)
REMARK    1  A    between atoms: C3_3  and  O1_4 
REMARK    2  A    between atoms: O1_4  and  C4_5 
REMARK    3  A    between atoms: C5_6  and  C6_7 
REMARK    4  A    between atoms: C6_7  and  O2_8 
REMARK    5  A    between atoms: C17_20  and  N1_21 
ROOT
HETATM    1  C1  LIG X 999      43.875 130.731  22.262  1.00  0.00     0.014 C 
HETATM    2  C2  LIG X 999      43.109 129.988  22.822  1.00  0.00    -0.091 C 
HETATM    3  C3  LIG X 999      42.181 129.084  23.500  1.00  0.00     0.268 C 
ENDROOT
BRANCH   3   4
HETATM    4  O1  LIG X 999      42.920 128.102  24.217  1.00  0.00    -0.337 OA
BRANCH   4   5
HETATM    5  C4  LIG X 999      42.922 126.762  23.818  1.00  0.00     0.106 C 
HETATM    6  C5  LIG X 999      44.141 126.113  23.545  1.00  0.00     0.012 C 
HETATM    7  C7  LIG X 999      44.120 124.808  22.988  1.00  0.00    -0.014 C 
HETATM    8  C8  LIG X 999      45.314 124.176  22.564  1.00  0.00     0.013 C 
HETATM    9  C12 LIG X 999      42.877 124.135  22.801  1.00  0.00    -0.012 C 
HETATM   10  C9  LIG X 999      45.278 122.963  21.882  1.00  0.00     0.001 C 
HETATM   11  C10 LIG X 999      44.058 122.377  21.574  1.00  0.00     0.001 C 
HETATM   12  C11 LIG X 999      42.871 122.964  22.005  1.00  0.00     0.013 C 
HETATM   13  C13 LIG X 999      41.678 124.706  23.327  1.00  0.00     0.011 C 
HETATM   14  C14 LIG X 999      40.452 123.993  23.515  1.00  0.00    -0.045 C 
HETATM   15  C18 LIG X 999      41.700 126.070  23.722  1.00  0.00     0.080 C 
HETATM   16  C15 LIG X 999      40.348 122.487  23.592  1.00  0.00     0.049 C 
HETATM   17  C16 LIG X 999      39.281 124.706  23.800  1.00  0.00     0.061 C 
HETATM   18  C17 LIG X 999      39.333 126.080  24.039  1.00  0.00     0.165 C 
HETATM   19  N4  LIG X 999      40.534 126.711  24.040  1.00  0.00    -0.336 N 
HETATM   20  H15 LIG X 999      40.539 127.724  24.299  1.00  0.00     0.168 HD
BRANCH   6  21
HETATM   21  C6  LIG X 999      45.450 126.837  23.810  1.00  0.00     0.206 C 
BRANCH  21  22
HETATM   22  O2  LIG X 999      45.694 127.754  22.780  1.00  0.00    -0.396 OA
HETATM   23  H6  LIG X 999      46.597 128.130  22.952  1.00  0.00     0.209 HD
ENDBRANCH  21  22
ENDBRANCH   6  21
BRANCH  18  24
HETATM   24  N1  LIG X 999      38.151 126.833  24.354  1.00  0.00    -0.054 NA
HETATM   25  N2  LIG X 999      37.263 127.045  23.527  1.00  0.00    -0.160 NA
HETATM   26  N3  LIG X 999      36.375 127.259  22.702  1.00  0.00     0.068 N 
ENDBRANCH  18  24
ENDBRANCH   4   5
ENDBRANCH   3   4
TORSDOF 5
