REMARK VINA RESULT:      -8.3      1.078      1.415
REMARK  4 active torsions:
REMARK  status: ('A' for Active; 'I' for Inactive)
REMARK    1  A    between atoms: C3_3  and  O1_4 
REMARK    2  A    between atoms: O1_4  and  C4_5 
REMARK    3  A    between atoms: C4_5  and  C5_7 
REMARK    4  A    between atoms: C5_7  and  C6_8 
ROOT
HETATM    1  C1  LIG X 999      47.628 130.982  13.014  1.00  0.00     0.014 C 
HETATM    2  C2  LIG X 999      46.721 131.267  13.756  1.00  0.00    -0.091 C 
HETATM    3  C3  LIG X 999      45.621 131.612  14.656  1.00  0.00     0.271 C 
ENDROOT
BRANCH   3   4
HETATM    4  O1  LIG X 999      46.087 131.572  16.000  1.00  0.00    -0.309 OA
BRANCH   4   5
HETATM    5  C4  LIG X 999      45.769 130.530  16.876  1.00  0.00     0.263 C 
HETATM    6  O2  LIG X 999      45.498 129.379  16.437  1.00  0.00    -0.265 OA
BRANCH   5   7
HETATM    7  C5  LIG X 999      45.787 130.775  18.352  1.00  0.00     0.150 C 
BRANCH   7   8
HETATM    8  C6  LIG X 999      44.454 131.327  18.810  1.00  0.00    -0.038 A 
HETATM    9  C7  LIG X 999      43.524 131.703  17.826  1.00  0.00     0.008 A 
HETATM   10  C8  LIG X 999      42.269 132.199  18.176  1.00  0.00     0.001 A 
HETATM   11  C9  LIG X 999      41.912 132.321  19.516  1.00  0.00     0.012 A 
HETATM   12  C10 LIG X 999      42.808 131.942  20.525  1.00  0.00    -0.025 A 
HETATM   13  C11 LIG X 999      42.432 132.059  21.872  1.00  0.00     0.012 A 
HETATM   14  C15 LIG X 999      44.093 131.436  20.183  1.00  0.00    -0.019 A 
HETATM   15  C12 LIG X 999      43.312 131.676  22.884  1.00  0.00     0.001 A 
HETATM   16  C13 LIG X 999      44.571 131.175  22.563  1.00  0.00     0.001 A 
HETATM   17  C14 LIG X 999      44.964 131.054  21.228  1.00  0.00     0.013 A 
ENDBRANCH   7   8
ENDBRANCH   5   7
ENDBRANCH   4   5
ENDBRANCH   3   4
TORSDOF 4
