REMARK VINA RESULT:      -4.1      3.155      5.453
REMARK  2 active torsions:
REMARK  status: ('A' for Active; 'I' for Inactive)
REMARK    1  A    between atoms: C4_4  and  O1_5 
REMARK    2  A    between atoms: C10_11  and  N1_12 
ROOT
HETATM    1  N1  LIG X 999      42.726 124.439  21.620  1.00  0.00    -0.072 NA
HETATM    2  N2  LIG X 999      41.574 124.189  21.979  1.00  0.00    -0.162 NA
HETATM    3  N3  LIG X 999      40.425 123.940  22.337  1.00  0.00     0.068 N 
ENDROOT
BRANCH   1   4
HETATM    4  C10 LIG X 999      43.631 125.210  22.424  1.00  0.00     0.101 C 
HETATM    5  C9  LIG X 999      44.991 124.830  22.437  1.00  0.00     0.007 C 
HETATM    6  C8  LIG X 999      46.089 125.634  22.708  1.00  0.00    -0.022 C 
HETATM    7  C12 LIG X 999      45.443 123.417  22.306  1.00  0.00     0.278 C 
HETATM    8  C7  LIG X 999      46.123 127.034  22.736  1.00  0.00     0.012 C 
HETATM    9  C15 LIG X 999      47.247 124.779  23.055  1.00  0.00     0.276 C 
HETATM   10  C6  LIG X 999      45.298 127.813  21.915  1.00  0.00     0.037 C 
HETATM   11  C4  LIG X 999      44.647 128.981  22.361  1.00  0.00     0.068 C 
HETATM   12  C3  LIG X 999      44.213 129.154  23.691  1.00  0.00     0.037 C 
HETATM   13  C2  LIG X 999      43.957 128.132  24.625  1.00  0.00     0.003 C 
HETATM   14  C1  LIG X 999      43.740 126.784  24.313  1.00  0.00     0.002 C 
HETATM   15  C11 LIG X 999      43.172 126.353  23.106  1.00  0.00     0.035 C 
HETATM   16  N4  LIG X 999      46.920 123.423  22.530  1.00  0.00    -0.067 N 
HETATM   17  C13 LIG X 999      47.314 122.375  23.499  1.00  0.00     0.272 C 
HETATM   18  C14 LIG X 999      47.630 123.190  21.249  1.00  0.00     0.272 C 
BRANCH  11  19
HETATM   19  O1  LIG X 999      44.366 130.025  21.467  1.00  0.00    -0.356 OA
HETATM   20  C5  LIG X 999      43.394 131.041  21.694  1.00  0.00     0.210 C 
ENDBRANCH  11  19
ENDBRANCH   1   4
TORSDOF 2
