REMARK VINA RESULT:      -5.5      6.858      9.050
REMARK  3 active torsions:
REMARK  status: ('A' for Active; 'I' for Inactive)
REMARK    1  A    between atoms: C1_2  and  C2_4 
REMARK       I    between atoms: N1_6  and  C4_7 
REMARK    2  A    between atoms: C4_7  and  C5_9 
REMARK    3  A    between atoms: C6_10  and  C7_11 
ROOT
HETATM    1  C5  LIG X 999      48.987 125.380  22.415  1.00  0.00     0.000 C 
HETATM    2  C6  LIG X 999      47.788 125.260  22.434  1.00  0.00    -0.057 C 
ENDROOT
BRANCH   1   3
HETATM    3  C4  LIG X 999      50.418 125.528  22.402  1.00  0.00     0.300 C 
HETATM    4  N1  LIG X 999      51.212 124.899  21.385  1.00  0.00    -0.317 N 
HETATM    5  C3  LIG X 999      50.697 124.086  20.320  1.00  0.00     0.172 C 
HETATM    6  C17 LIG X 999      52.649 125.011  21.282  1.00  0.00     0.298 C 
HETATM    7  C2  LIG X 999      51.962 123.603  19.623  1.00  0.00     0.242 C 
HETATM    8  O4  LIG X 999      53.065 124.343  20.110  1.00  0.00    -0.354 OA
HETATM    9  O3  LIG X 999      50.971 126.221  23.297  1.00  0.00    -0.258 OA
BRANCH   7  10
HETATM   10  C1  LIG X 999      51.862 123.757  18.135  1.00  0.00     0.204 C 
HETATM   11  O1  LIG X 999      52.445 124.713  17.558  1.00  0.00    -0.646 OA
HETATM   12  O2  LIG X 999      51.169 122.818  17.380  1.00  0.00    -0.646 OA
ENDBRANCH   7  10
ENDBRANCH   1   3
BRANCH   2  13
HETATM   13  C7  LIG X 999      46.356 125.121  22.462  1.00  0.00     0.019 A 
HETATM   14  C8  LIG X 999      45.552 126.224  22.773  1.00  0.00     0.021 A 
HETATM   15  C9  LIG X 999      44.161 126.096  22.802  1.00  0.00     0.013 A 
HETATM   16  C10 LIG X 999      43.560 124.859  22.521  1.00  0.00    -0.026 A 
HETATM   17  C11 LIG X 999      42.163 124.720  22.547  1.00  0.00     0.012 A 
HETATM   18  C15 LIG X 999      44.371 123.741  22.206  1.00  0.00    -0.025 A 
HETATM   19  C12 LIG X 999      41.578 123.482  22.263  1.00  0.00     0.001 A 
HETATM   20  C13 LIG X 999      42.378 122.379  21.954  1.00  0.00     0.001 A 
HETATM   21  C14 LIG X 999      43.770 122.505  21.924  1.00  0.00     0.012 A 
HETATM   22  C16 LIG X 999      45.768 123.881  22.180  1.00  0.00     0.032 A 
ENDBRANCH   2  13
TORSDOF 3
