REMARK VINA RESULT:      -7.7      0.000      0.000
REMARK  2 active torsions:
REMARK  status: ('A' for Active; 'I' for Inactive)
REMARK    1  A    between atoms: O1_2  and  C2_3 
REMARK    2  A    between atoms: C11_12  and  N1_13 
ROOT
HETATM    1  C2  LIG X 999      44.065 130.959  22.699  1.00  0.00     0.095 A 
HETATM    2  C3  LIG X 999      45.004 130.566  21.724  1.00  0.00     0.051 A 
HETATM    3  C4  LIG X 999      44.785 130.850  20.370  1.00  0.00    -0.023 A 
HETATM    4  C5  LIG X 999      45.724 130.459  19.394  1.00  0.00     0.021 A 
HETATM    5  C6  LIG X 999      45.464 130.760  18.057  1.00  0.00    -0.024 A 
HETATM    6  C7  LIG X 999      44.336 131.422  17.681  1.00  0.00    -0.024 A 
HETATM    7  C8  LIG X 999      43.384 131.832  18.616  1.00  0.00     0.021 A 
HETATM    8  C9  LIG X 999      43.606 131.542  19.976  1.00  0.00    -0.023 A 
HETATM    9  C10 LIG X 999      42.677 131.931  20.949  1.00  0.00     0.044 A 
HETATM   10  C11 LIG X 999      42.899 131.644  22.304  1.00  0.00     0.060 A 
HETATM   11  C12 LIG X 999      44.322 131.636  16.219  1.00  0.00     0.276 C 
HETATM   12  N2  LIG X 999      45.504 130.885  15.689  1.00  0.00    -0.067 N 
HETATM   13  C13 LIG X 999      46.306 131.741  14.787  1.00  0.00     0.272 C 
HETATM   14  C14 LIG X 999      45.051 129.688  14.940  1.00  0.00     0.272 C 
HETATM   15  C15 LIG X 999      46.312 130.469  16.880  1.00  0.00     0.276 C 
ENDROOT
BRANCH  10  16
HETATM   16  N1  LIG X 999      41.930 132.054  23.276  1.00  0.00    -0.397 N 
HETATM   17  H8  LIG X 999      41.263 132.831  23.070  1.00  0.00     0.156 HD
HETATM   18  H9  LIG X 999      41.865 131.591  24.210  1.00  0.00     0.156 HD
ENDBRANCH  10  16
BRANCH   1  19
HETATM   19  O1  LIG X 999      44.258 130.686  24.064  1.00  0.00    -0.354 OA
HETATM   20  C1  LIG X 999      44.332 129.379  24.625  1.00  0.00     0.210 C 
ENDBRANCH   1  19
TORSDOF 2
