REMARK VINA RESULT:      -5.3      7.262      8.272
REMARK  3 active torsions:
REMARK  status: ('A' for Active; 'I' for Inactive)
REMARK    1  A    between atoms: C7_9  and  C8_10 
REMARK    2  A    between atoms: C9_13  and  N4_14 
REMARK    3  A    between atoms: N7_23  and  C14_24 
ROOT
HETATM    1  N4  LIG X 999      49.777 123.287  19.457  1.00  0.00    -0.023 NA
HETATM    2  N5  LIG X 999      50.952 122.953  19.596  1.00  0.00    -0.158 NA
HETATM    3  N6  LIG X 999      52.129 122.619  19.735  1.00  0.00     0.068 N 
ENDROOT
BRANCH   1   4
HETATM    4  C9  LIG X 999      48.831 123.079  20.505  1.00  0.00     0.326 A 
HETATM    5  N3  LIG X 999      49.096 122.375  21.618  1.00  0.00    -0.099 NA
HETATM    6  N2  LIG X 999      47.984 122.407  22.337  1.00  0.00    -0.119 NA
HETATM    7  C8  LIG X 999      47.086 123.121  21.628  1.00  0.00     0.205 A 
HETATM    8  O1  LIG X 999      47.606 123.546  20.501  1.00  0.00    -0.252 OA
BRANCH   7   9
HETATM    9  C7  LIG X 999      45.721 123.429  22.097  1.00  0.00     0.032 A 
HETATM   10  C6  LIG X 999      45.343 124.708  22.612  1.00  0.00     0.020 A 
HETATM   11  C1  LIG X 999      46.117 125.994  22.602  1.00  0.00     0.060 A 
HETATM   12  C5  LIG X 999      44.064 124.809  23.131  1.00  0.00     0.019 A 
HETATM   13  N1  LIG X 999      47.255 126.091  21.992  1.00  0.00    -0.299 NA
HETATM   14  C2  LIG X 999      45.501 127.215  23.226  1.00  0.00     0.034 A 
HETATM   15  H1  LIG X 999      47.786 126.988  21.947  1.00  0.00     0.187 HD
HETATM   16  C3  LIG X 999      44.248 127.188  23.726  1.00  0.00     0.033 A 
HETATM   17  C4  LIG X 999      43.497 125.925  23.662  1.00  0.00     0.048 A 
HETATM   18  N7  LIG X 999      42.219 125.655  24.025  1.00  0.00    -0.324 N 
HETATM   19  C13 LIG X 999      42.002 124.354  23.688  1.00  0.00     0.193 A 
HETATM   20  C12 LIG X 999      43.148 123.808  23.134  1.00  0.00     0.032 A 
HETATM   21  O2  LIG X 999      40.794 123.689  23.862  1.00  0.00    -0.171 OA
HETATM   22  C11 LIG X 999      43.454 122.562  22.602  1.00  0.00     0.018 A 
HETATM   23  C10 LIG X 999      44.755 122.375  22.084  1.00  0.00     0.018 A 
BRANCH  18  24
HETATM   24  C14 LIG X 999      41.234 126.595  24.561  1.00  0.00     0.127 C 
HETATM   25  C15 LIG X 999      40.338 127.115  23.445  1.00  0.00     0.027 C 
ENDBRANCH  18  24
ENDBRANCH   7   9
ENDBRANCH   1   4
TORSDOF 3
