REMARK VINA RESULT:      -4.0      1.135      1.845
REMARK  5 active torsions:
REMARK  status: ('A' for Active; 'I' for Inactive)
REMARK    1  A    between atoms: C3_3  and  N1_4 
REMARK    2  A    between atoms: N1_4  and  C6_7 
REMARK    3  A    between atoms: C6_7  and  C7_8 
REMARK    4  A    between atoms: C9_10  and  C10_11 
REMARK    5  A    between atoms: C11_14  and  N4_15 
ROOT
HETATM    1  C1  LIG X 999      47.258 130.711  13.639  1.00  0.00     0.013 C 
HETATM    2  C2  LIG X 999      46.756 131.295  14.565  1.00  0.00    -0.089 C 
HETATM    3  C3  LIG X 999      46.141 132.013  15.702  1.00  0.00     0.329 C 
ENDROOT
BRANCH   3   4
HETATM    4  N1  LIG X 999      45.221 131.163  16.520  1.00  0.00    -0.061 N 
HETATM    5  C4  LIG X 999      44.512 130.194  15.643  1.00  0.00     0.273 C 
HETATM    6  C5  LIG X 999      45.984 130.404  17.544  1.00  0.00     0.273 C 
BRANCH   4   7
HETATM    7  C6  LIG X 999      44.179 132.017  17.174  1.00  0.00     0.275 C 
BRANCH   7   8
HETATM    8  C7  LIG X 999      43.975 131.741  18.652  1.00  0.00    -0.035 C 
HETATM    9  C8  LIG X 999      44.798 130.899  19.314  1.00  0.00     0.001 C 
HETATM   10  C9  LIG X 999      44.666 130.715  20.813  1.00  0.00     0.054 C 
HETATM   11  C12 LIG X 999      45.217 129.337  21.253  1.00  0.00     0.023 C 
HETATM   12  C16 LIG X 999      43.150 130.763  21.171  1.00  0.00     0.028 C 
HETATM   13  C13 LIG X 999      44.982 129.091  22.758  1.00  0.00     0.002 C 
HETATM   14  C14 LIG X 999      43.498 129.227  23.136  1.00  0.00     0.001 C 
HETATM   15  C15 LIG X 999      42.907 130.571  22.677  1.00  0.00     0.010 C 
HETATM   16  C17 LIG X 999      42.514 132.008  20.607  1.00  0.00    -0.020 C 
HETATM   17  C18 LIG X 999      42.878 132.426  19.389  1.00  0.00     0.005 C 
BRANCH  10  18
HETATM   18  C10 LIG X 999      45.466 131.832  21.469  1.00  0.00     0.184 A 
HETATM   19  N2  LIG X 999      45.231 132.302  22.713  1.00  0.00    -0.124 NA
HETATM   20  N3  LIG X 999      46.147 133.229  22.947  1.00  0.00    -0.099 NA
HETATM   21  C11 LIG X 999      46.907 133.280  21.841  1.00  0.00     0.326 A 
HETATM   22  O1  LIG X 999      46.505 132.427  20.931  1.00  0.00    -0.255 OA
BRANCH  21  23
HETATM   23  N4  LIG X 999      48.019 134.159  21.686  1.00  0.00    -0.023 NA
HETATM   24  N5  LIG X 999      48.815 134.333  22.609  1.00  0.00    -0.158 NA
HETATM   25  N6  LIG X 999      49.611 134.507  23.530  1.00  0.00     0.068 N 
ENDBRANCH  21  23
ENDBRANCH  10  18
ENDBRANCH   7   8
ENDBRANCH   4   7
ENDBRANCH   3   4
TORSDOF 5
