REMARK VINA RESULT:      -4.2      6.707      8.091
REMARK  3 active torsions:
REMARK  status: ('A' for Active; 'I' for Inactive)
REMARK    1  A    between atoms: C3_3  and  S1_4 
REMARK    2  A    between atoms: S1_4  and  C4_7 
REMARK    3  A    between atoms: C6_9  and  N1_10 
ROOT
HETATM    1  C1  LIG X 999      47.345 130.979  13.395  1.00  0.00     0.013 C 
HETATM    2  C2  LIG X 999      46.793 131.444  14.360  1.00  0.00    -0.102 C 
HETATM    3  C3  LIG X 999      46.125 132.006  15.536  1.00  0.00     0.238 C 
ENDROOT
BRANCH   3   4
HETATM    4  S1  LIG X 999      45.539 130.691  16.590  1.00  0.00     0.186 S 
HETATM    5  O1  LIG X 999      46.608 129.635  16.669  1.00  0.00    -0.222 OA
HETATM    6  O2  LIG X 999      44.309 130.063  15.998  1.00  0.00    -0.222 OA
BRANCH   4   7
HETATM    7  C4  LIG X 999      45.181 131.316  18.215  1.00  0.00     0.073 A 
HETATM    8  C5  LIG X 999      46.247 131.436  19.122  1.00  0.00     0.058 A 
HETATM    9  C6  LIG X 999      46.050 131.927  20.414  1.00  0.00     0.095 A 
HETATM   10  C7  LIG X 999      44.765 132.312  20.819  1.00  0.00     0.046 A 
HETATM   11  C8  LIG X 999      43.683 132.212  19.936  1.00  0.00    -0.022 A 
HETATM   12  C9  LIG X 999      42.403 132.611  20.356  1.00  0.00     0.012 A 
HETATM   13  C13 LIG X 999      43.878 131.714  18.618  1.00  0.00    -0.004 A 
HETATM   14  C10 LIG X 999      41.317 132.525  19.485  1.00  0.00     0.001 A 
HETATM   15  C11 LIG X 999      41.497 132.043  18.190  1.00  0.00     0.001 A 
HETATM   16  C12 LIG X 999      42.762 131.641  17.756  1.00  0.00     0.014 A 
BRANCH   9  17
HETATM   17  N1  LIG X 999      47.179 132.024  21.294  1.00  0.00    -0.073 NA
HETATM   18  N2  LIG X 999      47.631 133.105  21.671  1.00  0.00    -0.162 NA
HETATM   19  N3  LIG X 999      48.084 134.184  22.051  1.00  0.00     0.068 N 
ENDBRANCH   9  17
ENDBRANCH   4   7
ENDBRANCH   3   4
TORSDOF 3
