MODEL 1
REMARK VINA RESULT:      -7.9      0.000      0.000
REMARK  1 active torsions:
REMARK  status: ('A' for Active; 'I' for Inactive)
REMARK    1  A    between atoms: C7_7  and  N1_8 
ROOT
HETATM    1  N1  LIG X 999      45.660 130.615  18.044  1.00  0.00    -0.110 NA
HETATM    2  N2  LIG X 999      45.298 131.081  19.126  1.00  0.00    -0.167 NA
HETATM    3  N3  LIG X 999      44.935 131.546  20.205  1.00  0.00     0.068 N 
ENDROOT
BRANCH   1   4
HETATM    4  C7  LIG X 999      45.392 131.272  16.760  1.00  0.00     0.153 C 
HETATM    5  C6  LIG X 999      44.022 130.888  16.157  1.00  0.00     0.031 C 
HETATM    6  C5  LIG X 999      43.783 131.636  14.842  1.00  0.00     0.003 C 
HETATM    7  C4  LIG X 999      44.893 131.334  13.830  1.00  0.00     0.009 C 
HETATM    8  C3  LIG X 999      46.286 131.685  14.395  1.00  0.00     0.018 C 
HETATM    9  C2  LIG X 999      47.349 131.276  13.400  1.00  0.00    -0.021 C 
HETATM   10  C8  LIG X 999      46.542 130.993  15.764  1.00  0.00     0.043 C 
HETATM   11  C1  LIG X 999      47.873 130.046  13.429  1.00  0.00    -0.004 C 
HETATM   12  C10 LIG X 999      47.499 129.096  14.495  1.00  0.00    -0.004 C 
HETATM   13  C9  LIG X 999      46.817 129.513  15.568  1.00  0.00    -0.019 C 
ENDBRANCH   1   4
TORSDOF 1
ENDMDL
MODEL 2
REMARK VINA RESULT:      -5.3      2.082      3.164
REMARK  1 active torsions:
REMARK  status: ('A' for Active; 'I' for Inactive)
REMARK    1  A    between atoms: C7_7  and  N1_8 
ROOT
HETATM    1  N1  LIG X 999      42.721 132.004  17.567  1.00  0.00    -0.110 NA
HETATM    2  N2  LIG X 999      42.125 132.421  18.563  1.00  0.00    -0.167 NA
HETATM    3  N3  LIG X 999      41.532 132.837  19.557  1.00  0.00     0.068 N 
ENDROOT
BRANCH   1   4
HETATM    4  C7  LIG X 999      43.771 130.981  17.633  1.00  0.00     0.153 C 
HETATM    5  C6  LIG X 999      44.898 131.334  18.628  1.00  0.00     0.031 C 
HETATM    6  C5  LIG X 999      45.939 130.212  18.682  1.00  0.00     0.003 C 
HETATM    7  C4  LIG X 999      46.539 129.953  17.296  1.00  0.00     0.009 C 
HETATM    8  C3  LIG X 999      45.446 129.614  16.260  1.00  0.00     0.018 C 
HETATM    9  C2  LIG X 999      46.078 129.467  14.894  1.00  0.00    -0.021 C 
HETATM   10  C8  LIG X 999      44.335 130.701  16.220  1.00  0.00     0.043 C 
HETATM   11  C1  LIG X 999      46.222 130.528  14.092  1.00  0.00    -0.004 C 
HETATM   12  C10 LIG X 999      45.677 131.843  14.481  1.00  0.00    -0.004 C 
HETATM   13  C9  LIG X 999      44.839 131.950  15.519  1.00  0.00    -0.019 C 
ENDBRANCH   1   4
TORSDOF 1
ENDMDL
MODEL 3
REMARK VINA RESULT:      -5.2      3.071      5.471
REMARK  1 active torsions:
REMARK  status: ('A' for Active; 'I' for Inactive)
REMARK    1  A    between atoms: C7_7  and  N1_8 
ROOT
HETATM    1  N1  LIG X 999      44.995 131.761  15.478  1.00  0.00    -0.110 NA
HETATM    2  N2  LIG X 999      45.615 131.376  14.484  1.00  0.00    -0.167 NA
HETATM    3  N3  LIG X 999      46.233 130.990  13.493  1.00  0.00     0.068 N 
ENDROOT
BRANCH   1   4
HETATM    4  C7  LIG X 999      45.464 131.536  16.850  1.00  0.00     0.153 C 
HETATM    5  C6  LIG X 999      45.731 130.047  17.161  1.00  0.00     0.031 C 
HETATM    6  C5  LIG X 999      46.256 129.881  18.591  1.00  0.00     0.003 C 
HETATM    7  C4  LIG X 999      45.262 130.449  19.609  1.00  0.00     0.009 C 
HETATM    8  C3  LIG X 999      44.948 131.933  19.327  1.00  0.00     0.018 C 
HETATM    9  C2  LIG X 999      43.891 132.416  20.295  1.00  0.00    -0.021 C 
HETATM   10  C8  LIG X 999      44.472 132.153  17.863  1.00  0.00     0.043 C 
HETATM   11  C1  LIG X 999      42.592 132.298  20.000  1.00  0.00    -0.004 C 
HETATM   12  C10 LIG X 999      42.165 131.787  18.683  1.00  0.00    -0.004 C 
HETATM   13  C9  LIG X 999      43.049 131.653  17.688  1.00  0.00    -0.019 C 
ENDBRANCH   1   4
TORSDOF 1
ENDMDL
