REMARK VINA RESULT:      -6.1      1.944      2.952
REMARK  1 active torsions:
REMARK  status: ('A' for Active; 'I' for Inactive)
REMARK    1  A    between atoms: C11_13  and  O1_14 
ROOT
HETATM    1  H1  LIG X 999      42.999 132.084  15.853  1.00  0.00     0.187 HD
HETATM    2  N1  LIG X 999      43.613 131.764  16.636  1.00  0.00    -0.300 NA
HETATM    3  C1  LIG X 999      43.253 131.882  17.875  1.00  0.00     0.059 A 
HETATM    4  C2  LIG X 999      41.925 132.491  18.242  1.00  0.00     0.034 A 
HETATM    5  C3  LIG X 999      41.549 132.614  19.537  1.00  0.00     0.033 A 
HETATM    6  C4  LIG X 999      42.473 132.137  20.581  1.00  0.00     0.046 A 
HETATM    7  C5  LIG X 999      43.666 131.590  20.248  1.00  0.00     0.018 A 
HETATM    8  C6  LIG X 999      44.145 131.417  18.970  1.00  0.00     0.005 A 
HETATM    9  C7  LIG X 999      45.418 130.824  18.840  1.00  0.00     0.015 A 
HETATM   10  C8  LIG X 999      46.136 130.438  20.005  1.00  0.00     0.002 A 
HETATM   11  C9  LIG X 999      45.589 130.643  21.298  1.00  0.00     0.017 A 
HETATM   12  C10 LIG X 999      44.327 131.232  21.374  1.00  0.00     0.028 A 
HETATM   13  C11 LIG X 999      43.480 131.588  22.414  1.00  0.00     0.151 A 
HETATM   14  N2  LIG X 999      42.336 132.146  21.926  1.00  0.00    -0.336 N 
HETATM   15  H8  LIG X 999      41.524 132.505  22.476  1.00  0.00     0.168 HD
ENDROOT
BRANCH  13  16
HETATM   16  O1  LIG X 999      43.746 131.407  23.766  1.00  0.00    -0.345 OA
HETATM   17  H7  LIG X 999      42.990 131.356  24.439  1.00  0.00     0.219 HD
ENDBRANCH  13  16
TORSDOF 1
