REMARK VINA RESULT:      -7.5      5.022      7.395
REMARK  6 active torsions:
REMARK  status: ('A' for Active; 'I' for Inactive)
REMARK    1  A    between atoms: O1_2  and  C1_3 
REMARK    2  A    between atoms: C1_3  and  C2_4 
REMARK    3  A    between atoms: C1_3  and  C13_20 
REMARK    4  A    between atoms: C2_4  and  O3_6 
REMARK    5  A    between atoms: O3_6  and  C3_7 
REMARK    6  A    between atoms: C8_12  and  N1_13 
ROOT
HETATM    1  N1  LIG X 999      45.207 130.978  14.310  1.00  0.00    -0.073 NA
HETATM    2  N2  LIG X 999      46.354 130.931  13.860  1.00  0.00    -0.162 NA
HETATM    3  N3  LIG X 999      47.498 130.885  13.410  1.00  0.00     0.068 N 
ENDROOT
BRANCH   1   4
HETATM    4  C8  LIG X 999      44.938 131.130  15.710  1.00  0.00     0.094 A 
HETATM    5  C7  LIG X 999      43.691 131.580  16.182  1.00  0.00     0.046 A 
HETATM    6  C6  LIG X 999      43.462 131.717  17.560  1.00  0.00    -0.024 A 
HETATM    7  C5  LIG X 999      42.222 132.160  18.039  1.00  0.00     0.015 A 
HETATM    8  C11 LIG X 999      44.492 131.399  18.477  1.00  0.00    -0.023 A 
HETATM    9  C4  LIG X 999      42.003 132.294  19.414  1.00  0.00     0.038 A 
HETATM   10  C3  LIG X 999      43.028 131.997  20.330  1.00  0.00     0.080 A 
HETATM   11  C12 LIG X 999      44.262 131.535  19.855  1.00  0.00     0.049 A 
HETATM   12  C10 LIG X 999      45.730 130.949  18.001  1.00  0.00     0.014 A 
HETATM   13  C9  LIG X 999      45.949 130.816  16.626  1.00  0.00     0.035 A 
BRANCH  10  14
HETATM   14  O3  LIG X 999      42.848 132.107  21.716  1.00  0.00    -0.277 OA
BRANCH  14  15
HETATM   15  C2  LIG X 999      43.457 131.292  22.681  1.00  0.00     0.293 C 
HETATM   16  O2  LIG X 999      44.356 131.747  23.441  1.00  0.00    -0.262 OA
BRANCH  15  17
HETATM   17  C1  LIG X 999      43.096 129.836  22.748  1.00  0.00     0.217 C 
BRANCH  17  18
HETATM   18  O1  LIG X 999      44.268 129.066  22.766  1.00  0.00    -0.386 OA
HETATM   19  H1  LIG X 999      44.935 129.543  22.205  1.00  0.00     0.210 HD
ENDBRANCH  17  18
BRANCH  17  20
HETATM   20  C13 LIG X 999      42.280 129.530  24.014  1.00  0.00     0.037 C 
HETATM   21  C14 LIG X 999      41.417 128.275  23.865  1.00  0.00     0.008 C 
ENDBRANCH  17  20
ENDBRANCH  15  17
ENDBRANCH  14  15
ENDBRANCH  10  14
ENDBRANCH   1   4
TORSDOF 6
