MODEL 1
REMARK VINA RESULT:      -7.9      0.000      0.000
REMARK  6 active torsions:
REMARK  status: ('A' for Active; 'I' for Inactive)
REMARK    1  A    between atoms: O1_2  and  C1_3 
REMARK    2  A    between atoms: C1_3  and  C4_10 
REMARK    3  A    between atoms: N1_4  and  C2_5 
REMARK    4  A    between atoms: C2_5  and  C3_6 
REMARK    5  A    between atoms: C3_6  and  N2_7 
REMARK    6  A    between atoms: C13_19  and  N5_20 
ROOT
HETATM    1  N2  LIG X 999      46.426 129.669  14.603  1.00  0.00    -0.114 NA
HETATM    2  N3  LIG X 999      47.512 129.584  14.031  1.00  0.00    -0.168 NA
HETATM    3  N4  LIG X 999      48.599 129.498  13.459  1.00  0.00     0.068 N 
ENDROOT
BRANCH   1   4
HETATM    4  C3  LIG X 999      45.498 130.740  14.273  1.00  0.00     0.211 C 
BRANCH   4   5
HETATM    5  C2  LIG X 999      45.842 131.986  15.081  1.00  0.00     0.176 C 
BRANCH   5   6
HETATM    6  N1  LIG X 999      45.755 131.685  16.505  1.00  0.00    -0.265 NA
HETATM    7  C1  LIG X 999      44.648 131.739  17.183  1.00  0.00     0.167 C 
BRANCH   7   8
HETATM    8  O1  LIG X 999      43.460 132.100  16.540  1.00  0.00    -0.344 OA
HETATM    9  H1  LIG X 999      42.550 131.822  16.882  1.00  0.00     0.219 HD
ENDBRANCH   7   8
BRANCH   7  10
HETATM   10  C4  LIG X 999      44.661 131.408  18.630  1.00  0.00     0.017 A 
HETATM   11  C5  LIG X 999      45.691 130.630  19.181  1.00  0.00     0.016 A 
HETATM   12  C6  LIG X 999      45.697 130.323  20.543  1.00  0.00     0.011 A 
HETATM   13  C7  LIG X 999      44.677 130.787  21.387  1.00  0.00    -0.024 A 
HETATM   14  C8  LIG X 999      43.616 131.545  20.838  1.00  0.00    -0.049 A 
HETATM   15  C13 LIG X 999      44.689 130.373  22.843  1.00  0.00     0.179 C 
HETATM   16  C9  LIG X 999      43.625 131.858  19.469  1.00  0.00     0.023 A 
HETATM   17  C10 LIG X 999      42.527 132.130  21.707  1.00  0.00     0.039 C 
HETATM   18  C11 LIG X 999      42.408 131.431  23.064  1.00  0.00     0.007 C 
HETATM   19  C12 LIG X 999      43.787 131.273  23.705  1.00  0.00     0.035 C 
BRANCH  15  20
HETATM   20  N5  LIG X 999      44.266 128.978  22.938  1.00  0.00    -0.105 NA
HETATM   21  N6  LIG X 999      44.822 128.192  23.706  1.00  0.00    -0.167 NA
HETATM   22  N7  LIG X 999      45.376 127.408  24.475  1.00  0.00     0.068 N 
ENDBRANCH  15  20
ENDBRANCH   7  10
ENDBRANCH   5   6
ENDBRANCH   4   5
ENDBRANCH   1   4
TORSDOF 6
ENDMDL
MODEL 2
REMARK VINA RESULT:      -7.1      1.895      7.497
REMARK  6 active torsions:
REMARK  status: ('A' for Active; 'I' for Inactive)
REMARK    1  A    between atoms: O1_2  and  C1_3 
REMARK    2  A    between atoms: C1_3  and  C4_10 
REMARK    3  A    between atoms: N1_4  and  C2_5 
REMARK    4  A    between atoms: C2_5  and  C3_6 
REMARK    5  A    between atoms: C3_6  and  N2_7 
REMARK    6  A    between atoms: C13_19  and  N5_20 
ROOT
HETATM    1  N2  LIG X 999      43.800 130.366  24.107  1.00  0.00    -0.114 NA
HETATM    2  N3  LIG X 999      44.350 129.328  23.741  1.00  0.00    -0.168 NA
HETATM    3  N4  LIG X 999      44.901 128.290  23.376  1.00  0.00     0.068 N 
ENDROOT
BRANCH   1   4
HETATM    4  C3  LIG X 999      42.534 130.779  23.520  1.00  0.00     0.211 C 
BRANCH   4   5
HETATM    5  C2  LIG X 999      42.733 132.056  22.713  1.00  0.00     0.176 C 
BRANCH   5   6
HETATM    6  N1  LIG X 999      43.155 131.717  21.358  1.00  0.00    -0.265 NA
HETATM    7  C1  LIG X 999      44.399 131.589  21.006  1.00  0.00     0.167 C 
BRANCH   7   8
HETATM    8  O1  LIG X 999      45.409 131.778  21.955  1.00  0.00    -0.344 OA
HETATM    9  H1  LIG X 999      45.902 131.007  22.386  1.00  0.00     0.219 HD
ENDBRANCH   7   8
BRANCH   7  10
HETATM   10  C4  LIG X 999      44.728 131.236  19.602  1.00  0.00     0.017 A 
HETATM   11  C5  LIG X 999      45.867 130.473  19.301  1.00  0.00     0.016 A 
HETATM   12  C6  LIG X 999      46.170 130.144  17.979  1.00  0.00     0.011 A 
HETATM   13  C7  LIG X 999      45.344 130.568  16.926  1.00  0.00    -0.024 A 
HETATM   14  C8  LIG X 999      44.211 131.365  17.215  1.00  0.00    -0.049 A 
HETATM   15  C13 LIG X 999      45.749 130.245  15.504  1.00  0.00     0.179 C 
HETATM   16  C9  LIG X 999      43.908 131.680  18.549  1.00  0.00     0.023 A 
HETATM   17  C10 LIG X 999      43.246 131.792  16.133  1.00  0.00     0.039 C 
HETATM   18  C11 LIG X 999      43.857 131.726  14.731  1.00  0.00     0.007 C 
HETATM   19  C12 LIG X 999      44.572 130.391  14.524  1.00  0.00     0.035 C 
BRANCH  15  20
HETATM   20  N5  LIG X 999      46.852 131.122  15.119  1.00  0.00    -0.105 NA
HETATM   21  N6  LIG X 999      47.285 131.136  13.966  1.00  0.00    -0.167 NA
HETATM   22  N7  LIG X 999      47.716 131.152  12.815  1.00  0.00     0.068 N 
ENDBRANCH  15  20
ENDBRANCH   7  10
ENDBRANCH   5   6
ENDBRANCH   4   5
ENDBRANCH   1   4
TORSDOF 6
ENDMDL
MODEL 3
REMARK VINA RESULT:      -6.0      2.320      3.114
REMARK  6 active torsions:
REMARK  status: ('A' for Active; 'I' for Inactive)
REMARK    1  A    between atoms: O1_2  and  C1_3 
REMARK    2  A    between atoms: C1_3  and  C4_10 
REMARK    3  A    between atoms: N1_4  and  C2_5 
REMARK    4  A    between atoms: C2_5  and  C3_6 
REMARK    5  A    between atoms: C3_6  and  N2_7 
REMARK    6  A    between atoms: C13_19  and  N5_20 
ROOT
HETATM    1  N2  LIG X 999      45.324 130.787  14.692  1.00  0.00    -0.114 NA
HETATM    2  N3  LIG X 999      44.226 131.316  14.529  1.00  0.00    -0.168 NA
HETATM    3  N4  LIG X 999      43.127 131.846  14.365  1.00  0.00     0.068 N 
ENDROOT
BRANCH   1   4
HETATM    4  C3  LIG X 999      45.496 129.725  15.672  1.00  0.00     0.211 C 
BRANCH   4   5
HETATM    5  C2  LIG X 999      46.461 130.180  16.760  1.00  0.00     0.176 C 
BRANCH   5   6
HETATM    6  N1  LIG X 999      45.761 130.243  18.039  1.00  0.00    -0.265 NA
HETATM    7  C1  LIG X 999      45.065 131.270  18.425  1.00  0.00     0.167 C 
BRANCH   7   8
HETATM    8  O1  LIG X 999      44.961 132.388  17.592  1.00  0.00    -0.344 OA
HETATM    9  H1  LIG X 999      45.351 132.409  16.658  1.00  0.00     0.219 HD
ENDBRANCH   7   8
BRANCH   7  10
HETATM   10  C4  LIG X 999      44.384 131.236  19.744  1.00  0.00     0.017 A 
HETATM   11  C5  LIG X 999      43.324 132.110  20.028  1.00  0.00     0.016 A 
HETATM   12  C6  LIG X 999      42.687 132.073  21.270  1.00  0.00     0.011 A 
HETATM   13  C7  LIG X 999      43.093 131.161  22.257  1.00  0.00    -0.024 A 
HETATM   14  C8  LIG X 999      44.182 130.297  21.993  1.00  0.00    -0.049 A 
HETATM   15  C13 LIG X 999      42.418 131.203  23.611  1.00  0.00     0.179 C 
HETATM   16  C9  LIG X 999      44.807 130.334  20.737  1.00  0.00     0.023 A 
HETATM   17  C10 LIG X 999      44.619 129.247  22.989  1.00  0.00     0.039 C 
HETATM   18  C11 LIG X 999      44.142 129.543  24.413  1.00  0.00     0.007 C 
HETATM   19  C12 LIG X 999      42.659 129.912  24.413  1.00  0.00     0.035 C 
BRANCH  15  20
HETATM   20  N5  LIG X 999      42.912 132.365  24.346  1.00  0.00    -0.105 NA
HETATM   21  N6  LIG X 999      44.119 132.566  24.486  1.00  0.00    -0.167 NA
HETATM   22  N7  LIG X 999      45.324 132.768  24.625  1.00  0.00     0.068 N 
ENDBRANCH  15  20
ENDBRANCH   7  10
ENDBRANCH   5   6
ENDBRANCH   4   5
ENDBRANCH   1   4
TORSDOF 6
ENDMDL
MODEL 4
REMARK VINA RESULT:      -5.8      1.644      2.161
REMARK  6 active torsions:
REMARK  status: ('A' for Active; 'I' for Inactive)
REMARK    1  A    between atoms: O1_2  and  C1_3 
REMARK    2  A    between atoms: C1_3  and  C4_10 
REMARK    3  A    between atoms: N1_4  and  C2_5 
REMARK    4  A    between atoms: C2_5  and  C3_6 
REMARK    5  A    between atoms: C3_6  and  N2_7 
REMARK    6  A    between atoms: C13_19  and  N5_20 
ROOT
HETATM    1  N2  LIG X 999      45.586 131.222  13.655  1.00  0.00    -0.114 NA
HETATM    2  N3  LIG X 999      44.393 131.384  13.906  1.00  0.00    -0.168 NA
HETATM    3  N4  LIG X 999      43.199 131.545  14.155  1.00  0.00     0.068 N 
ENDROOT
BRANCH   1   4
HETATM    4  C3  LIG X 999      46.583 131.314  14.711  1.00  0.00     0.211 C 
BRANCH   4   5
HETATM    5  C2  LIG X 999      46.760 129.953  15.373  1.00  0.00     0.176 C 
BRANCH   5   6
HETATM    6  N1  LIG X 999      46.318 130.023  16.761  1.00  0.00    -0.265 NA
HETATM    7  C1  LIG X 999      45.707 131.052  17.268  1.00  0.00     0.167 C 
BRANCH   7   8
HETATM    8  O1  LIG X 999      45.445 132.166  16.465  1.00  0.00    -0.344 OA
HETATM    9  H1  LIG X 999      45.281 132.092  15.469  1.00  0.00     0.219 HD
ENDBRANCH   7   8
BRANCH   7  10
HETATM   10  C4  LIG X 999      45.290 131.025  18.693  1.00  0.00     0.017 A 
HETATM   11  C5  LIG X 999      46.042 130.324  19.649  1.00  0.00     0.016 A 
HETATM   12  C6  LIG X 999      45.644 130.303  20.987  1.00  0.00     0.011 A 
HETATM   13  C7  LIG X 999      44.488 130.982  21.402  1.00  0.00    -0.024 A 
HETATM   14  C8  LIG X 999      43.705 131.666  20.442  1.00  0.00    -0.049 A 
HETATM   15  C13 LIG X 999      44.060 130.876  22.850  1.00  0.00     0.179 C 
HETATM   16  C9  LIG X 999      44.120 131.690  19.101  1.00  0.00     0.023 A 
HETATM   17  C10 LIG X 999      42.490 132.472  20.839  1.00  0.00     0.039 C 
HETATM   18  C11 LIG X 999      41.932 132.073  22.208  1.00  0.00     0.007 C 
HETATM   19  C12 LIG X 999      43.059 131.979  23.236  1.00  0.00     0.035 C 
BRANCH  15  20
HETATM   20  N5  LIG X 999      43.478 129.553  23.071  1.00  0.00    -0.105 NA
HETATM   21  N6  LIG X 999      42.512 129.398  23.819  1.00  0.00    -0.167 NA
HETATM   22  N7  LIG X 999      41.547 129.242  24.564  1.00  0.00     0.068 N 
ENDBRANCH  15  20
ENDBRANCH   7  10
ENDBRANCH   5   6
ENDBRANCH   4   5
ENDBRANCH   1   4
TORSDOF 6
ENDMDL
MODEL 5
REMARK VINA RESULT:      -5.4      2.602      7.396
REMARK  6 active torsions:
REMARK  status: ('A' for Active; 'I' for Inactive)
REMARK    1  A    between atoms: O1_2  and  C1_3 
REMARK    2  A    between atoms: C1_3  and  C4_10 
REMARK    3  A    between atoms: N1_4  and  C2_5 
REMARK    4  A    between atoms: C2_5  and  C3_6 
REMARK    5  A    between atoms: C3_6  and  N2_7 
REMARK    6  A    between atoms: C13_19  and  N5_20 
ROOT
HETATM    1  N2  LIG X 999      45.519 127.172  23.117  1.00  0.00    -0.114 NA
HETATM    2  N3  LIG X 999      45.154 126.039  22.804  1.00  0.00    -0.168 NA
HETATM    3  N4  LIG X 999      44.789 124.906  22.491  1.00  0.00     0.068 N 
ENDROOT
BRANCH   1   4
HETATM    4  C3  LIG X 999      45.089 127.768  24.372  1.00  0.00     0.211 C 
BRANCH   4   5
HETATM    5  C2  LIG X 999      44.034 128.834  24.102  1.00  0.00     0.176 C 
BRANCH   5   6
HETATM    6  N1  LIG X 999      44.161 129.310  22.728  1.00  0.00    -0.265 NA
HETATM    7  C1  LIG X 999      44.519 130.520  22.419  1.00  0.00     0.167 C 
BRANCH   7   8
HETATM    8  O1  LIG X 999      44.806 131.437  23.435  1.00  0.00    -0.344 OA
HETATM    9  H1  LIG X 999      45.683 131.938  23.485  1.00  0.00     0.219 HD
ENDBRANCH   7   8
BRANCH   7  10
HETATM   10  C4  LIG X 999      44.625 130.908  20.990  1.00  0.00     0.017 A 
HETATM   11  C5  LIG X 999      43.939 132.028  20.496  1.00  0.00     0.016 A 
HETATM   12  C6  LIG X 999      44.044 132.387  19.151  1.00  0.00     0.011 A 
HETATM   13  C7  LIG X 999      44.837 131.638  18.268  1.00  0.00    -0.024 A 
HETATM   14  C8  LIG X 999      45.509 130.489  18.748  1.00  0.00    -0.049 A 
HETATM   15  C13 LIG X 999      44.867 132.026  16.806  1.00  0.00     0.179 C 
HETATM   16  C9  LIG X 999      45.406 130.143  20.105  1.00  0.00     0.023 A 
HETATM   17  C10 LIG X 999      46.433 129.684  17.864  1.00  0.00     0.039 C 
HETATM   18  C11 LIG X 999      46.176 129.912  16.371  1.00  0.00     0.007 C 
HETATM   19  C12 LIG X 999      46.069 131.406  16.071  1.00  0.00     0.035 C 
BRANCH  15  20
HETATM   20  N5  LIG X 999      43.612 131.608  16.184  1.00  0.00    -0.105 NA
HETATM   21  N6  LIG X 999      43.499 131.537  14.959  1.00  0.00    -0.167 NA
HETATM   22  N7  LIG X 999      43.386 131.465  13.737  1.00  0.00     0.068 N 
ENDBRANCH  15  20
ENDBRANCH   7  10
ENDBRANCH   5   6
ENDBRANCH   4   5
ENDBRANCH   1   4
TORSDOF 6
ENDMDL
MODEL 6
REMARK VINA RESULT:      -5.1      6.599      7.787
REMARK  6 active torsions:
REMARK  status: ('A' for Active; 'I' for Inactive)
REMARK    1  A    between atoms: O1_2  and  C1_3 
REMARK    2  A    between atoms: C1_3  and  C4_10 
REMARK    3  A    between atoms: N1_4  and  C2_5 
REMARK    4  A    between atoms: C2_5  and  C3_6 
REMARK    5  A    between atoms: C3_6  and  N2_7 
REMARK    6  A    between atoms: C13_19  and  N5_20 
ROOT
HETATM    1  N2  LIG X 999      51.075 124.310  18.852  1.00  0.00    -0.114 NA
HETATM    2  N3  LIG X 999      52.022 124.360  18.067  1.00  0.00    -0.168 NA
HETATM    3  N4  LIG X 999      52.968 124.411  17.282  1.00  0.00     0.068 N 
ENDROOT
BRANCH   1   4
HETATM    4  C3  LIG X 999      51.274 124.576  20.268  1.00  0.00     0.211 C 
BRANCH   4   5
HETATM    5  C2  LIG X 999      50.749 123.405  21.091  1.00  0.00     0.176 C 
BRANCH   5   6
HETATM    6  N1  LIG X 999      49.445 123.745  21.649  1.00  0.00    -0.265 NA
HETATM    7  C1  LIG X 999      48.329 123.612  20.996  1.00  0.00     0.167 C 
BRANCH   7   8
HETATM    8  O1  LIG X 999      48.348 123.119  19.688  1.00  0.00    -0.344 OA
HETATM    9  H1  LIG X 999      48.676 122.188  19.461  1.00  0.00     0.219 HD
ENDBRANCH   7   8
BRANCH   7  10
HETATM   10  C4  LIG X 999      47.050 123.980  21.653  1.00  0.00     0.017 A 
HETATM   11  C5  LIG X 999      46.075 123.008  21.923  1.00  0.00     0.016 A 
HETATM   12  C6  LIG X 999      44.874 123.361  22.542  1.00  0.00     0.011 A 
HETATM   13  C7  LIG X 999      44.619 124.692  22.907  1.00  0.00    -0.024 A 
HETATM   14  C8  LIG X 999      45.582 125.686  22.611  1.00  0.00    -0.049 A 
HETATM   15  C13 LIG X 999      43.277 125.038  23.514  1.00  0.00     0.179 C 
HETATM   16  C9  LIG X 999      46.791 125.319  21.999  1.00  0.00     0.023 A 
HETATM   17  C10 LIG X 999      45.395 127.123  23.042  1.00  0.00     0.039 C 
HETATM   18  C11 LIG X 999      43.934 127.469  23.341  1.00  0.00     0.007 C 
HETATM   19  C12 LIG X 999      43.305 126.399  24.232  1.00  0.00     0.035 C 
BRANCH  15  20
HETATM   20  N5  LIG X 999      42.269 125.035  22.456  1.00  0.00    -0.105 NA
HETATM   21  N6  LIG X 999      41.199 124.440  22.596  1.00  0.00    -0.167 NA
HETATM   22  N7  LIG X 999      40.131 123.848  22.735  1.00  0.00     0.068 N 
ENDBRANCH  15  20
ENDBRANCH   7  10
ENDBRANCH   5   6
ENDBRANCH   4   5
ENDBRANCH   1   4
TORSDOF 6
ENDMDL
