REMARK VINA RESULT:      -4.4      2.946      4.033
REMARK  2 active torsions:
REMARK  status: ('A' for Active; 'I' for Inactive)
REMARK    1  A    between atoms: C9_10  and  N2_11 
REMARK       I    between atoms: N2_11  and  C10_12 
REMARK    2  A    between atoms: C10_12  and  C11_14 
ROOT
HETATM    1  C11 LIG X 999      45.558 132.091  15.261  1.00  0.00     0.280 C 
HETATM    2 CL1  LIG X 999      46.928 131.619  14.224  1.00  0.00    -0.099 Cl
HETATM    3  C12 LIG X 999      44.300 131.704  14.617  1.00  0.00     0.089 C 
HETATM    4  N3  LIG X 999      43.306 131.400  14.108  1.00  0.00    -0.195 NA
ENDROOT
BRANCH   1   5
HETATM    5  C10 LIG X 999      45.674 131.434  16.604  1.00  0.00     0.254 C 
HETATM    6  N2  LIG X 999      45.157 132.083  17.778  1.00  0.00    -0.325 N 
HETATM    7  H12 LIG X 999      44.932 133.101  17.714  1.00  0.00     0.169 HD
HETATM    8  O1  LIG X 999      46.280 130.331  16.697  1.00  0.00    -0.270 OA
BRANCH   6   9
HETATM    9  C9  LIG X 999      45.037 131.446  19.062  1.00  0.00     0.035 A 
HETATM   10  C8  LIG X 999      44.448 132.150  20.123  1.00  0.00     0.030 A 
HETATM   11  C7  LIG X 999      44.297 131.557  21.379  1.00  0.00     0.014 A 
HETATM   12  C6  LIG X 999      44.720 130.238  21.590  1.00  0.00    -0.025 A 
HETATM   13  C5  LIG X 999      44.569 129.630  22.851  1.00  0.00     0.021 A 
HETATM   14  C14 LIG X 999      45.298 129.506  20.515  1.00  0.00    -0.023 A 
HETATM   15  C4  LIG X 999      45.000 128.312  23.013  1.00  0.00    -0.024 A 
HETATM   16  C3  LIG X 999      44.919 127.474  24.229  1.00  0.00     0.276 C 
HETATM   17  C16 LIG X 999      45.549 127.609  21.984  1.00  0.00    -0.024 A 
HETATM   18  N1  LIG X 999      45.635 126.204  23.892  1.00  0.00    -0.067 N 
HETATM   19  C1  LIG X 999      44.813 125.027  24.255  1.00  0.00     0.272 C 
HETATM   20  C2  LIG X 999      46.922 126.137  24.625  1.00  0.00     0.272 C 
HETATM   21  C17 LIG X 999      45.887 126.237  22.416  1.00  0.00     0.276 C 
HETATM   22  C15 LIG X 999      45.709 128.174  20.718  1.00  0.00     0.021 A 
HETATM   23  C13 LIG X 999      45.443 130.114  19.259  1.00  0.00     0.042 A 
ENDBRANCH   6   9
ENDBRANCH   1   5
TORSDOF 2
