REMARK VINA RESULT:      -3.7      6.281      8.531
REMARK  6 active torsions:
REMARK  status: ('A' for Active; 'I' for Inactive)
REMARK    1  A    between atoms: C8_8  and  O1_9 
REMARK    2  A    between atoms: O1_9  and  C9_10 
REMARK    3  A    between atoms: C9_10  and  C10_11 
REMARK    4  A    between atoms: C10_11  and  C11_12 
REMARK    5  A    between atoms: C11_12  and  N1_13 
REMARK    6  A    between atoms: C13_18  and  N4_19 
ROOT
HETATM    1  N1  LIG X 999      48.250 129.970  13.389  1.00  0.00    -0.116 NA
HETATM    2  N2  LIG X 999      47.761 129.090  14.097  1.00  0.00    -0.168 NA
HETATM    3  N3  LIG X 999      47.273 128.210  14.804  1.00  0.00     0.068 N 
ENDROOT
BRANCH   1   4
HETATM    4  C11 LIG X 999      47.419 131.040  12.858  1.00  0.00     0.191 C 
BRANCH   4   5
HETATM    5  C10 LIG X 999      46.259 131.313  13.817  1.00  0.00     0.051 C 
BRANCH   5   6
HETATM    6  C9  LIG X 999      46.563 132.480  14.757  1.00  0.00     0.170 C 
BRANCH   6   7
HETATM    7  O1  LIG X 999      46.029 132.207  16.036  1.00  0.00    -0.384 OA
BRANCH   7   8
HETATM    8  C8  LIG X 999      45.348 130.962  16.048  1.00  0.00     0.146 C 
HETATM    9  C7  LIG X 999      45.878 130.090  17.194  1.00  0.00     0.072 C 
HETATM   10  C5  LIG X 999      45.512 130.639  18.551  1.00  0.00    -0.047 A 
HETATM   11  C4  LIG X 999      44.387 131.482  18.731  1.00  0.00    -0.023 A 
HETATM   12  C6  LIG X 999      46.263 130.237  19.667  1.00  0.00     0.008 A 
HETATM   13  C3  LIG X 999      44.094 131.962  20.021  1.00  0.00     0.010 A 
HETATM   14  C13 LIG X 999      43.568 131.984  17.552  1.00  0.00     0.199 C 
HETATM   15  C2  LIG X 999      44.862 131.567  21.119  1.00  0.00     0.001 A 
HETATM   16  C1  LIG X 999      45.940 130.700  20.943  1.00  0.00     0.001 A 
HETATM   17  C12 LIG X 999      43.846 131.201  16.252  1.00  0.00     0.143 C 
HETATM   18 CL1  LIG X 999      43.179 132.084  14.847  1.00  0.00    -0.120 Cl
BRANCH  14  19
HETATM   19  N4  LIG X 999      42.143 131.889  17.863  1.00  0.00    -0.104 NA
HETATM   20  N5  LIG X 999      41.672 132.429  18.864  1.00  0.00    -0.167 NA
HETATM   21  N6  LIG X 999      41.202 132.968  19.866  1.00  0.00     0.068 N 
ENDBRANCH  14  19
ENDBRANCH   7   8
ENDBRANCH   6   7
ENDBRANCH   5   6
ENDBRANCH   4   5
ENDBRANCH   1   4
TORSDOF 6
