MODEL 1
REMARK VINA RESULT:      -8.7      0.000      0.000
REMARK  3 active torsions:
REMARK  status: ('A' for Active; 'I' for Inactive)
REMARK    1  A    between atoms: O1_2  and  C1_3 
REMARK    2  A    between atoms: C1_3  and  C3_8 
REMARK    3  A    between atoms: C2_4  and  N1_5 
ROOT
HETATM    1  N1  LIG X 999      47.005 131.010  13.378  1.00  0.00    -0.082 NA
HETATM    2  N2  LIG X 999      47.879 130.143  13.378  1.00  0.00    -0.163 NA
HETATM    3  N3  LIG X 999      48.752 129.277  13.377  1.00  0.00     0.068 N 
ENDROOT
BRANCH   1   4
HETATM    4  C2  LIG X 999      46.353 131.385  14.592  1.00  0.00     0.193 C 
HETATM    5  C1  LIG X 999      45.818 130.459  15.405  1.00  0.00     0.096 C 
BRANCH   5   6
HETATM    6  O1  LIG X 999      45.914 129.099  15.092  1.00  0.00    -0.358 OA
HETATM    7  H1  LIG X 999      46.513 128.457  15.595  1.00  0.00     0.217 HD
ENDBRANCH   5   6
BRANCH   5   8
HETATM    8  C3  LIG X 999      45.129 130.838  16.665  1.00  0.00    -0.001 A 
HETATM    9  C4  LIG X 999      43.871 131.461  16.599  1.00  0.00     0.015 A 
HETATM   10  C5  LIG X 999      43.199 131.841  17.763  1.00  0.00     0.013 A 
HETATM   11  C6  LIG X 999      43.778 131.614  19.019  1.00  0.00    -0.026 A 
HETATM   12  C7  LIG X 999      43.111 131.993  20.193  1.00  0.00     0.012 A 
HETATM   13  C11 LIG X 999      45.051 131.002  19.101  1.00  0.00    -0.025 A 
HETATM   14  C8  LIG X 999      43.702 131.768  21.439  1.00  0.00     0.001 A 
HETATM   15  C9  LIG X 999      44.961 131.166  21.522  1.00  0.00     0.001 A 
HETATM   16  C10 LIG X 999      45.635 130.783  20.358  1.00  0.00     0.012 A 
HETATM   17  C12 LIG X 999      45.720 130.622  17.926  1.00  0.00     0.026 A 
ENDBRANCH   5   8
ENDBRANCH   1   4
TORSDOF 3
ENDMDL
MODEL 2
REMARK VINA RESULT:      -8.4      1.266      1.425
REMARK  3 active torsions:
REMARK  status: ('A' for Active; 'I' for Inactive)
REMARK    1  A    between atoms: O1_2  and  C1_3 
REMARK    2  A    between atoms: C1_3  and  C3_8 
REMARK    3  A    between atoms: C2_4  and  N1_5 
ROOT
HETATM    1  N1  LIG X 999      45.776 130.289  14.042  1.00  0.00    -0.082 NA
HETATM    2  N2  LIG X 999      46.943 129.909  13.955  1.00  0.00    -0.163 NA
HETATM    3  N3  LIG X 999      48.110 129.530  13.867  1.00  0.00     0.068 N 
ENDROOT
BRANCH   1   4
HETATM    4  C2  LIG X 999      45.126 130.358  15.312  1.00  0.00     0.193 C 
HETATM    5  C1  LIG X 999      45.215 131.460  16.075  1.00  0.00     0.096 C 
BRANCH   5   6
HETATM    6  O1  LIG X 999      45.925 132.579  15.627  1.00  0.00    -0.358 OA
HETATM    7  H1  LIG X 999      46.642 133.035  16.176  1.00  0.00     0.217 HD
ENDBRANCH   5   6
BRANCH   5   8
HETATM    8  C3  LIG X 999      44.551 131.540  17.402  1.00  0.00    -0.001 A 
HETATM    9  C4  LIG X 999      43.191 131.888  17.468  1.00  0.00     0.015 A 
HETATM   10  C5  LIG X 999      42.536 131.983  18.698  1.00  0.00     0.013 A 
HETATM   11  C6  LIG X 999      43.233 131.740  19.890  1.00  0.00    -0.026 A 
HETATM   12  C7  LIG X 999      42.583 131.834  21.130  1.00  0.00     0.012 A 
HETATM   13  C11 LIG X 999      44.606 131.404  19.840  1.00  0.00    -0.025 A 
HETATM   14  C8  LIG X 999      43.291 131.597  22.312  1.00  0.00     0.001 A 
HETATM   15  C9  LIG X 999      44.648 131.268  22.264  1.00  0.00     0.001 A 
HETATM   16  C10 LIG X 999      45.306 131.171  21.034  1.00  0.00     0.012 A 
HETATM   17  C12 LIG X 999      45.257 131.310  18.600  1.00  0.00     0.026 A 
ENDBRANCH   5   8
ENDBRANCH   1   4
TORSDOF 3
ENDMDL
MODEL 3
REMARK VINA RESULT:      -8.4      0.732      1.965
REMARK  3 active torsions:
REMARK  status: ('A' for Active; 'I' for Inactive)
REMARK    1  A    between atoms: O1_2  and  C1_3 
REMARK    2  A    between atoms: C1_3  and  C3_8 
REMARK    3  A    between atoms: C2_4  and  N1_5 
ROOT
HETATM    1  N1  LIG X 999      46.642 130.999  13.539  1.00  0.00    -0.082 NA
HETATM    2  N2  LIG X 999      47.603 130.236  13.438  1.00  0.00    -0.163 NA
HETATM    3  N3  LIG X 999      48.563 129.475  13.337  1.00  0.00     0.068 N 
ENDROOT
BRANCH   1   4
HETATM    4  C2  LIG X 999      46.134 131.362  14.822  1.00  0.00     0.193 C 
HETATM    5  C1  LIG X 999      45.736 130.426  15.700  1.00  0.00     0.096 C 
BRANCH   5   6
HETATM    6  O1  LIG X 999      45.840 129.068  15.384  1.00  0.00    -0.358 OA
HETATM    7  H1  LIG X 999      46.641 128.502  15.634  1.00  0.00     0.217 HD
ENDBRANCH   5   6
BRANCH   5   8
HETATM    8  C3  LIG X 999      45.197 130.794  17.035  1.00  0.00    -0.001 A 
HETATM    9  C4  LIG X 999      45.941 130.479  18.185  1.00  0.00     0.015 A 
HETATM   10  C5  LIG X 999      45.461 130.800  19.457  1.00  0.00     0.013 A 
HETATM   11  C6  LIG X 999      44.220 131.434  19.604  1.00  0.00    -0.026 A 
HETATM   12  C7  LIG X 999      43.730 131.760  20.878  1.00  0.00     0.012 A 
HETATM   13  C11 LIG X 999      43.452 131.743  18.457  1.00  0.00    -0.025 A 
HETATM   14  C8  LIG X 999      42.487 132.385  21.012  1.00  0.00     0.001 A 
HETATM   15  C9  LIG X 999      41.727 132.688  19.880  1.00  0.00     0.001 A 
HETATM   16  C10 LIG X 999      42.205 132.369  18.605  1.00  0.00     0.012 A 
HETATM   17  C12 LIG X 999      43.942 131.418  17.182  1.00  0.00     0.026 A 
ENDBRANCH   5   8
ENDBRANCH   1   4
TORSDOF 3
ENDMDL
MODEL 4
REMARK VINA RESULT:      -8.3      4.131      6.466
REMARK  3 active torsions:
REMARK  status: ('A' for Active; 'I' for Inactive)
REMARK    1  A    between atoms: O1_2  and  C1_3 
REMARK    2  A    between atoms: C1_3  and  C3_8 
REMARK    3  A    between atoms: C2_4  and  N1_5 
ROOT
HETATM    1  N1  LIG X 999      43.326 131.608  20.050  1.00  0.00    -0.082 NA
HETATM    2  N2  LIG X 999      42.411 132.365  20.372  1.00  0.00    -0.163 NA
HETATM    3  N3  LIG X 999      41.497 133.122  20.696  1.00  0.00     0.068 N 
ENDROOT
BRANCH   1   4
HETATM    4  C2  LIG X 999      43.897 131.672  18.743  1.00  0.00     0.193 C 
HETATM    5  C1  LIG X 999      45.042 131.031  18.456  1.00  0.00     0.096 C 
BRANCH   5   6
HETATM    6  O1  LIG X 999      45.686 130.259  19.428  1.00  0.00    -0.358 OA
HETATM    7  H1  LIG X 999      46.102 129.357  19.231  1.00  0.00     0.217 HD
ENDBRANCH   5   6
BRANCH   5   8
HETATM    8  C3  LIG X 999      45.650 131.099  17.102  1.00  0.00    -0.001 A 
HETATM    9  C4  LIG X 999      45.431 132.238  16.308  1.00  0.00     0.015 A 
HETATM   10  C5  LIG X 999      45.978 132.332  15.026  1.00  0.00     0.013 A 
HETATM   11  C6  LIG X 999      46.748 131.282  14.508  1.00  0.00    -0.026 A 
HETATM   12  C7  LIG X 999      47.301 131.367  13.221  1.00  0.00     0.012 A 
HETATM   13  C11 LIG X 999      46.964 130.122  15.289  1.00  0.00    -0.025 A 
HETATM   14  C8  LIG X 999      48.061 130.310  12.713  1.00  0.00     0.001 A 
HETATM   15  C9  LIG X 999      48.273 129.163  13.482  1.00  0.00     0.001 A 
HETATM   16  C10 LIG X 999      47.728 129.067  14.767  1.00  0.00     0.012 A 
HETATM   17  C12 LIG X 999      46.412 130.036  16.577  1.00  0.00     0.026 A 
ENDBRANCH   5   8
ENDBRANCH   1   4
TORSDOF 3
ENDMDL
MODEL 5
REMARK VINA RESULT:      -8.2      1.419      2.423
REMARK  3 active torsions:
REMARK  status: ('A' for Active; 'I' for Inactive)
REMARK    1  A    between atoms: O1_2  and  C1_3 
REMARK    2  A    between atoms: C1_3  and  C3_8 
REMARK    3  A    between atoms: C2_4  and  N1_5 
ROOT
HETATM    1  N1  LIG X 999      45.285 130.609  14.143  1.00  0.00    -0.082 NA
HETATM    2  N2  LIG X 999      46.420 130.815  13.714  1.00  0.00    -0.163 NA
HETATM    3  N3  LIG X 999      47.553 131.021  13.284  1.00  0.00     0.068 N 
ENDROOT
BRANCH   1   4
HETATM    4  C2  LIG X 999      45.052 130.467  15.545  1.00  0.00     0.193 C 
HETATM    5  C1  LIG X 999      45.299 131.478  16.394  1.00  0.00     0.096 C 
BRANCH   5   6
HETATM    6  O1  LIG X 999      45.763 132.708  15.916  1.00  0.00    -0.358 OA
HETATM    7  H1  LIG X 999      46.746 132.944  15.858  1.00  0.00     0.217 HD
ENDBRANCH   5   6
BRANCH   5   8
HETATM    8  C3  LIG X 999      45.070 131.338  17.855  1.00  0.00    -0.001 A 
HETATM    9  C4  LIG X 999      45.998 130.620  18.629  1.00  0.00     0.015 A 
HETATM   10  C5  LIG X 999      45.809 130.459  20.004  1.00  0.00     0.013 A 
HETATM   11  C6  LIG X 999      44.681 131.005  20.631  1.00  0.00    -0.026 A 
HETATM   12  C7  LIG X 999      44.483 130.848  22.011  1.00  0.00     0.012 A 
HETATM   13  C11 LIG X 999      43.730 131.717  19.862  1.00  0.00    -0.025 A 
HETATM   14  C8  LIG X 999      43.350 131.390  22.623  1.00  0.00     0.001 A 
HETATM   15  C9  LIG X 999      42.408 132.091  21.865  1.00  0.00     0.001 A 
HETATM   16  C10 LIG X 999      42.595 132.255  20.489  1.00  0.00     0.012 A 
HETATM   17  C12 LIG X 999      43.927 131.875  18.481  1.00  0.00     0.026 A 
ENDBRANCH   5   8
ENDBRANCH   1   4
TORSDOF 3
ENDMDL
MODEL 6
REMARK VINA RESULT:      -8.1      4.699      6.674
REMARK  3 active torsions:
REMARK  status: ('A' for Active; 'I' for Inactive)
REMARK    1  A    between atoms: O1_2  and  C1_3 
REMARK    2  A    between atoms: C1_3  and  C3_8 
REMARK    3  A    between atoms: C2_4  and  N1_5 
ROOT
HETATM    1  N1  LIG X 999      42.488 132.174  21.118  1.00  0.00    -0.082 NA
HETATM    2  N2  LIG X 999      42.638 132.026  22.330  1.00  0.00    -0.163 NA
HETATM    3  N3  LIG X 999      42.788 131.879  23.542  1.00  0.00     0.068 N 
ENDROOT
BRANCH   1   4
HETATM    4  C2  LIG X 999      43.464 131.683  20.199  1.00  0.00     0.193 C 
HETATM    5  C1  LIG X 999      43.299 131.824  18.873  1.00  0.00     0.096 C 
BRANCH   5   6
HETATM    6  O1  LIG X 999      42.177 132.485  18.364  1.00  0.00    -0.358 OA
HETATM    7  H1  LIG X 999      41.279 132.491  18.831  1.00  0.00     0.217 HD
ENDBRANCH   5   6
BRANCH   5   8
HETATM    8  C3  LIG X 999      44.304 131.309  17.907  1.00  0.00    -0.001 A 
HETATM    9  C4  LIG X 999      45.361 130.511  18.378  1.00  0.00     0.015 A 
HETATM   10  C5  LIG X 999      46.330 130.018  17.501  1.00  0.00     0.013 A 
HETATM   11  C6  LIG X 999      46.266 130.322  16.134  1.00  0.00    -0.026 A 
HETATM   12  C7  LIG X 999      47.235 129.831  15.246  1.00  0.00     0.012 A 
HETATM   13  C11 LIG X 999      45.217 131.137  15.648  1.00  0.00    -0.025 A 
HETATM   14  C8  LIG X 999      47.165 130.149  13.887  1.00  0.00     0.001 A 
HETATM   15  C9  LIG X 999      46.131 130.956  13.406  1.00  0.00     0.001 A 
HETATM   16  C10 LIG X 999      45.159 131.450  14.281  1.00  0.00     0.012 A 
HETATM   17  C12 LIG X 999      44.247 131.628  16.536  1.00  0.00     0.026 A 
ENDBRANCH   5   8
ENDBRANCH   1   4
TORSDOF 3
ENDMDL
MODEL 7
REMARK VINA RESULT:      -8.0      4.746      6.315
REMARK  3 active torsions:
REMARK  status: ('A' for Active; 'I' for Inactive)
REMARK    1  A    between atoms: O1_2  and  C1_3 
REMARK    2  A    between atoms: C1_3  and  C3_8 
REMARK    3  A    between atoms: C2_4  and  N1_5 
ROOT
HETATM    1  N1  LIG X 999      43.423 131.445  22.328  1.00  0.00    -0.082 NA
HETATM    2  N2  LIG X 999      43.831 130.487  22.984  1.00  0.00    -0.163 NA
HETATM    3  N3  LIG X 999      44.237 129.530  23.640  1.00  0.00     0.068 N 
ENDROOT
BRANCH   1   4
HETATM    4  C2  LIG X 999      43.473 131.424  20.901  1.00  0.00     0.193 C 
HETATM    5  C1  LIG X 999      44.636 131.256  20.251  1.00  0.00     0.096 C 
BRANCH   5   6
HETATM    6  O1  LIG X 999      45.826 131.068  20.963  1.00  0.00    -0.358 OA
HETATM    7  H1  LIG X 999      46.445 131.828  21.214  1.00  0.00     0.217 HD
ENDBRANCH   5   6
BRANCH   5   8
HETATM    8  C3  LIG X 999      44.701 131.241  18.767  1.00  0.00    -0.001 A 
HETATM    9  C4  LIG X 999      43.647 131.807  18.029  1.00  0.00     0.015 A 
HETATM   10  C5  LIG X 999      43.668 131.801  16.632  1.00  0.00     0.013 A 
HETATM   11  C6  LIG X 999      44.742 131.219  15.945  1.00  0.00    -0.026 A 
HETATM   12  C7  LIG X 999      44.771 131.208  14.542  1.00  0.00     0.012 A 
HETATM   13  C11 LIG X 999      45.802 130.631  16.674  1.00  0.00    -0.025 A 
HETATM   14  C8  LIG X 999      45.844 130.618  13.868  1.00  0.00     0.001 A 
HETATM   15  C9  LIG X 999      46.891 130.035  14.586  1.00  0.00     0.001 A 
HETATM   16  C10 LIG X 999      46.872 130.040  15.985  1.00  0.00     0.012 A 
HETATM   17  C12 LIG X 999      45.774 130.642  18.077  1.00  0.00     0.026 A 
ENDBRANCH   5   8
ENDBRANCH   1   4
TORSDOF 3
ENDMDL
MODEL 8
REMARK VINA RESULT:      -5.7      5.047      6.738
REMARK  3 active torsions:
REMARK  status: ('A' for Active; 'I' for Inactive)
REMARK    1  A    between atoms: O1_2  and  C1_3 
REMARK    2  A    between atoms: C1_3  and  C3_8 
REMARK    3  A    between atoms: C2_4  and  N1_5 
ROOT
HETATM    1  N1  LIG X 999      44.149 131.123  22.836  1.00  0.00    -0.082 NA
HETATM    2  N2  LIG X 999      43.098 131.522  23.337  1.00  0.00    -0.163 NA
HETATM    3  N3  LIG X 999      42.048 131.921  23.838  1.00  0.00     0.068 N 
ENDROOT
BRANCH   1   4
HETATM    4  C2  LIG X 999      44.219 130.811  21.445  1.00  0.00     0.193 C 
HETATM    5  C1  LIG X 999      45.159 131.361  20.658  1.00  0.00     0.096 C 
BRANCH   5   6
HETATM    6  O1  LIG X 999      46.112 132.233  21.195  1.00  0.00    -0.358 OA
HETATM    7  H1  LIG X 999      46.637 132.891  20.634  1.00  0.00     0.217 HD
ENDBRANCH   5   6
BRANCH   5   8
HETATM    8  C3  LIG X 999      45.235 131.050  19.208  1.00  0.00    -0.001 A 
HETATM    9  C4  LIG X 999      46.228 130.169  18.747  1.00  0.00     0.015 A 
HETATM   10  C5  LIG X 999      46.337 129.862  17.388  1.00  0.00     0.013 A 
HETATM   11  C6  LIG X 999      45.458 130.438  16.461  1.00  0.00    -0.026 A 
HETATM   12  C7  LIG X 999      45.560 130.136  15.095  1.00  0.00     0.012 A 
HETATM   13  C11 LIG X 999      44.464 131.339  16.908  1.00  0.00    -0.025 A 
HETATM   14  C8  LIG X 999      44.683 130.724  14.179  1.00  0.00     0.001 A 
HETATM   15  C9  LIG X 999      43.702 131.616  14.619  1.00  0.00     0.001 A 
HETATM   16  C10 LIG X 999      43.590 131.925  15.978  1.00  0.00     0.012 A 
HETATM   17  C12 LIG X 999      44.360 131.643  18.275  1.00  0.00     0.026 A 
ENDBRANCH   5   8
ENDBRANCH   1   4
TORSDOF 3
ENDMDL
