MODEL 1
REMARK VINA RESULT:      -9.4      0.000      0.000
REMARK  2 active torsions:
REMARK  status: ('A' for Active; 'I' for Inactive)
REMARK    1  A    between atoms: C6_6  and  C7_7 
REMARK    2  A    between atoms: C8_11  and  N3_12 
ROOT
HETATM    1  N3  LIG X 999      46.771 131.342  13.633  1.00  0.00    -0.025 NA
HETATM    2  N4  LIG X 999      47.576 130.419  13.512  1.00  0.00    -0.158 NA
HETATM    3  N5  LIG X 999      48.382 129.497  13.390  1.00  0.00     0.068 N 
ENDROOT
BRANCH   1   4
HETATM    4  C8  LIG X 999      45.829 131.365  14.707  1.00  0.00     0.302 A 
HETATM    5  N2  LIG X 999      44.501 131.514  14.562  1.00  0.00    -0.236 N 
HETATM    6  N1  LIG X 999      43.973 131.484  15.774  1.00  0.00    -0.145 NA
HETATM    7  H5  LIG X 999      43.961 131.632  13.677  1.00  0.00     0.193 HD
HETATM    8  C7  LIG X 999      45.013 131.317  16.622  1.00  0.00     0.202 A 
HETATM    9  O1  LIG X 999      46.155 131.244  15.969  1.00  0.00    -0.253 OA
BRANCH   8  10
HETATM   10  C6  LIG X 999      44.887 131.229  18.090  1.00  0.00     0.020 A 
HETATM   11  C5  LIG X 999      43.764 131.764  18.744  1.00  0.00     0.028 A 
HETATM   12  C4  LIG X 999      43.648 131.678  20.140  1.00  0.00    -0.025 A 
HETATM   13  C3  LIG X 999      42.529 132.212  20.799  1.00  0.00     0.012 A 
HETATM   14  C11 LIG X 999      44.667 131.048  20.892  1.00  0.00    -0.026 A 
HETATM   15  C2  LIG X 999      42.424 132.119  22.190  1.00  0.00     0.001 A 
HETATM   16  C1  LIG X 999      43.431 131.497  22.932  1.00  0.00     0.001 A 
HETATM   17  C12 LIG X 999      44.550 130.961  22.289  1.00  0.00     0.012 A 
HETATM   18  C10 LIG X 999      45.786 130.515  20.235  1.00  0.00     0.013 A 
HETATM   19  C9  LIG X 999      45.893 130.605  18.845  1.00  0.00     0.017 A 
ENDBRANCH   8  10
ENDBRANCH   1   4
TORSDOF 2
ENDMDL
MODEL 2
REMARK VINA RESULT:      -9.3      0.739      1.796
REMARK  2 active torsions:
REMARK  status: ('A' for Active; 'I' for Inactive)
REMARK    1  A    between atoms: C6_6  and  C7_7 
REMARK    2  A    between atoms: C8_11  and  N3_12 
ROOT
HETATM    1  N3  LIG X 999      47.200 131.431  13.851  1.00  0.00    -0.025 NA
HETATM    2  N4  LIG X 999      47.835 130.399  13.633  1.00  0.00    -0.158 NA
HETATM    3  N5  LIG X 999      48.470 129.369  13.414  1.00  0.00     0.068 N 
ENDROOT
BRANCH   1   4
HETATM    4  C8  LIG X 999      45.988 131.409  14.607  1.00  0.00     0.302 A 
HETATM    5  N2  LIG X 999      44.762 131.223  14.090  1.00  0.00    -0.236 N 
HETATM    6  N1  LIG X 999      43.906 131.267  15.097  1.00  0.00    -0.145 NA
HETATM    7  H5  LIG X 999      44.504 131.069  13.091  1.00  0.00     0.193 HD
HETATM    8  C7  LIG X 999      44.653 131.482  16.203  1.00  0.00     0.202 A 
HETATM    9  O1  LIG X 999      45.934 131.570  15.906  1.00  0.00    -0.253 OA
BRANCH   8  10
HETATM   10  C6  LIG X 999      44.106 131.604  17.568  1.00  0.00     0.020 A 
HETATM   11  C5  LIG X 999      44.908 131.320  18.687  1.00  0.00     0.028 A 
HETATM   12  C4  LIG X 999      44.384 131.437  19.984  1.00  0.00    -0.025 A 
HETATM   13  C3  LIG X 999      45.180 131.155  21.105  1.00  0.00     0.012 A 
HETATM   14  C11 LIG X 999      43.040 131.843  20.165  1.00  0.00    -0.026 A 
HETATM   15  C2  LIG X 999      44.647 131.275  22.392  1.00  0.00     0.001 A 
HETATM   16  C1  LIG X 999      43.321 131.676  22.570  1.00  0.00     0.001 A 
HETATM   17  C12 LIG X 999      42.518 131.960  21.463  1.00  0.00     0.012 A 
HETATM   18  C10 LIG X 999      42.244 132.125  19.046  1.00  0.00     0.013 A 
HETATM   19  C9  LIG X 999      42.774 132.006  17.758  1.00  0.00     0.017 A 
ENDBRANCH   8  10
ENDBRANCH   1   4
TORSDOF 2
ENDMDL
MODEL 3
REMARK VINA RESULT:      -9.0      3.513      6.801
REMARK  2 active torsions:
REMARK  status: ('A' for Active; 'I' for Inactive)
REMARK    1  A    between atoms: C6_6  and  C7_7 
REMARK    2  A    between atoms: C8_11  and  N3_12 
ROOT
HETATM    1  N3  LIG X 999      42.336 132.506  21.003  1.00  0.00    -0.025 NA
HETATM    2  N4  LIG X 999      42.782 131.815  21.919  1.00  0.00    -0.158 NA
HETATM    3  N5  LIG X 999      43.228 131.127  22.836  1.00  0.00     0.068 N 
ENDROOT
BRANCH   1   4
HETATM    4  C8  LIG X 999      42.678 132.239  19.642  1.00  0.00     0.302 A 
HETATM    5  N2  LIG X 999      41.890 132.499  18.585  1.00  0.00    -0.236 N 
HETATM    6  N1  LIG X 999      42.550 132.115  17.506  1.00  0.00    -0.145 NA
HETATM    7  H5  LIG X 999      40.936 132.923  18.585  1.00  0.00     0.193 HD
HETATM    8  C7  LIG X 999      43.729 131.629  17.951  1.00  0.00     0.202 A 
HETATM    9  O1  LIG X 999      43.812 131.703  19.264  1.00  0.00    -0.253 OA
BRANCH   8  10
HETATM   10  C6  LIG X 999      44.789 131.083  17.081  1.00  0.00     0.020 A 
HETATM   11  C5  LIG X 999      44.961 131.570  15.774  1.00  0.00     0.028 A 
HETATM   12  C4  LIG X 999      45.970 131.049  14.949  1.00  0.00    -0.025 A 
HETATM   13  C3  LIG X 999      46.146 131.531  13.642  1.00  0.00     0.012 A 
HETATM   14  C11 LIG X 999      46.819 130.028  15.438  1.00  0.00    -0.026 A 
HETATM   15  C2  LIG X 999      47.155 131.004  12.830  1.00  0.00     0.001 A 
HETATM   16  C1  LIG X 999      47.993 129.997  13.313  1.00  0.00     0.001 A 
HETATM   17  C12 LIG X 999      47.829 129.508  14.612  1.00  0.00     0.012 A 
HETATM   18  C10 LIG X 999      46.644 129.546  16.743  1.00  0.00     0.013 A 
HETATM   19  C9  LIG X 999      45.637 130.070  17.556  1.00  0.00     0.017 A 
ENDBRANCH   8  10
ENDBRANCH   1   4
TORSDOF 2
ENDMDL
MODEL 4
REMARK VINA RESULT:      -8.9      3.700      7.276
REMARK  2 active torsions:
REMARK  status: ('A' for Active; 'I' for Inactive)
REMARK    1  A    between atoms: C6_6  and  C7_7 
REMARK    2  A    between atoms: C8_11  and  N3_12 
ROOT
HETATM    1  N3  LIG X 999      42.831 131.785  21.369  1.00  0.00    -0.025 NA
HETATM    2  N4  LIG X 999      43.000 131.797  22.588  1.00  0.00    -0.158 NA
HETATM    3  N5  LIG X 999      43.167 131.809  23.807  1.00  0.00     0.068 N 
ENDROOT
BRANCH   1   4
HETATM    4  C8  LIG X 999      43.879 131.392  20.481  1.00  0.00     0.302 A 
HETATM    5  N2  LIG X 999      45.002 130.752  20.851  1.00  0.00    -0.236 N 
HETATM    6  N1  LIG X 999      45.718 130.563  19.756  1.00  0.00    -0.145 NA
HETATM    7  H5  LIG X 999      45.280 130.448  21.809  1.00  0.00     0.193 HD
HETATM    8  C7  LIG X 999      44.997 131.102  18.749  1.00  0.00     0.202 A 
HETATM    9  O1  LIG X 999      43.866 131.613  19.190  1.00  0.00    -0.253 OA
BRANCH   8  10
HETATM   10  C6  LIG X 999      45.421 131.119  17.335  1.00  0.00     0.020 A 
HETATM   11  C5  LIG X 999      46.395 130.218  16.871  1.00  0.00     0.028 A 
HETATM   12  C4  LIG X 999      46.795 130.237  15.525  1.00  0.00    -0.025 A 
HETATM   13  C3  LIG X 999      47.768 129.340  15.056  1.00  0.00     0.012 A 
HETATM   14  C11 LIG X 999      46.214 131.169  14.632  1.00  0.00    -0.026 A 
HETATM   15  C2  LIG X 999      48.159 129.368  13.714  1.00  0.00     0.001 A 
HETATM   16  C1  LIG X 999      47.584 130.288  12.833  1.00  0.00     0.001 A 
HETATM   17  C12 LIG X 999      46.615 131.186  13.287  1.00  0.00     0.012 A 
HETATM   18  C10 LIG X 999      45.243 132.065  15.100  1.00  0.00     0.013 A 
HETATM   19  C9  LIG X 999      44.851 132.039  16.441  1.00  0.00     0.017 A 
ENDBRANCH   8  10
ENDBRANCH   1   4
TORSDOF 2
ENDMDL
MODEL 5
REMARK VINA RESULT:      -8.6      4.217      7.247
REMARK  2 active torsions:
REMARK  status: ('A' for Active; 'I' for Inactive)
REMARK    1  A    between atoms: C6_6  and  C7_7 
REMARK    2  A    between atoms: C8_11  and  N3_12 
ROOT
HETATM    1  N3  LIG X 999      42.750 131.492  23.082  1.00  0.00    -0.025 NA
HETATM    2  N4  LIG X 999      42.363 130.484  23.672  1.00  0.00    -0.158 NA
HETATM    3  N5  LIG X 999      41.975 129.477  24.262  1.00  0.00     0.068 N 
ENDROOT
BRANCH   1   4
HETATM    4  C8  LIG X 999      43.681 131.406  22.001  1.00  0.00     0.302 A 
HETATM    5  N2  LIG X 999      45.015 131.324  22.139  1.00  0.00    -0.236 N 
HETATM    6  N1  LIG X 999      45.527 131.261  20.922  1.00  0.00    -0.145 NA
HETATM    7  H5  LIG X 999      45.569 131.311  23.023  1.00  0.00     0.193 HD
HETATM    8  C7  LIG X 999      44.472 131.307  20.078  1.00  0.00     0.202 A 
HETATM    9  O1  LIG X 999      43.335 131.396  20.738  1.00  0.00    -0.253 OA
BRANCH   8  10
HETATM   10  C6  LIG X 999      44.578 131.264  18.606  1.00  0.00     0.020 A 
HETATM   11  C5  LIG X 999      45.704 130.696  17.988  1.00  0.00     0.028 A 
HETATM   12  C4  LIG X 999      45.801 130.657  16.588  1.00  0.00    -0.025 A 
HETATM   13  C3  LIG X 999      46.925 130.091  15.964  1.00  0.00     0.012 A 
HETATM   14  C11 LIG X 999      44.758 131.193  15.796  1.00  0.00    -0.026 A 
HETATM   15  C2  LIG X 999      47.010 130.058  14.569  1.00  0.00     0.001 A 
HETATM   16  C1  LIG X 999      45.979 130.586  13.788  1.00  0.00     0.001 A 
HETATM   17  C12 LIG X 999      44.856 131.152  14.396  1.00  0.00     0.012 A 
HETATM   18  C10 LIG X 999      43.636 131.758  16.418  1.00  0.00     0.013 A 
HETATM   19  C9  LIG X 999      43.548 131.793  17.812  1.00  0.00     0.017 A 
ENDBRANCH   8  10
ENDBRANCH   1   4
TORSDOF 2
ENDMDL
MODEL 6
REMARK VINA RESULT:      -8.6      4.143      6.910
REMARK  2 active torsions:
REMARK  status: ('A' for Active; 'I' for Inactive)
REMARK    1  A    between atoms: C6_6  and  C7_7 
REMARK    2  A    between atoms: C8_11  and  N3_12 
ROOT
HETATM    1  N3  LIG X 999      42.642 131.889  23.112  1.00  0.00    -0.025 NA
HETATM    2  N4  LIG X 999      42.726 130.800  23.678  1.00  0.00    -0.158 NA
HETATM    3  N5  LIG X 999      42.810 129.711  24.244  1.00  0.00     0.068 N 
ENDROOT
BRANCH   1   4
HETATM    4  C8  LIG X 999      42.771 131.998  21.693  1.00  0.00     0.302 A 
HETATM    5  N2  LIG X 999      41.940 132.691  20.895  1.00  0.00    -0.236 N 
HETATM    6  N1  LIG X 999      42.386 132.554  19.659  1.00  0.00    -0.145 NA
HETATM    7  H5  LIG X 999      41.098 133.242  21.171  1.00  0.00     0.193 HD
HETATM    8  C7  LIG X 999      43.485 131.772  19.751  1.00  0.00     0.202 A 
HETATM    9  O1  LIG X 999      43.725 131.428  21.000  1.00  0.00    -0.253 OA
BRANCH   8  10
HETATM   10  C6  LIG X 999      44.311 131.355  18.600  1.00  0.00     0.020 A 
HETATM   11  C5  LIG X 999      43.915 131.663  17.288  1.00  0.00     0.028 A 
HETATM   12  C4  LIG X 999      44.703 131.264  16.197  1.00  0.00    -0.025 A 
HETATM   13  C3  LIG X 999      44.312 131.569  14.883  1.00  0.00     0.012 A 
HETATM   14  C11 LIG X 999      45.903 130.549  16.421  1.00  0.00    -0.026 A 
HETATM   15  C2  LIG X 999      45.106 131.167  13.804  1.00  0.00     0.001 A 
HETATM   16  C1  LIG X 999      46.290 130.461  14.026  1.00  0.00     0.001 A 
HETATM   17  C12 LIG X 999      46.691 130.152  15.329  1.00  0.00     0.012 A 
HETATM   18  C10 LIG X 999      46.294 130.244  17.732  1.00  0.00     0.013 A 
HETATM   19  C9  LIG X 999      45.503 130.644  18.812  1.00  0.00     0.017 A 
ENDBRANCH   8  10
ENDBRANCH   1   4
TORSDOF 2
ENDMDL
MODEL 7
REMARK VINA RESULT:      -7.7      1.226      1.421
REMARK  2 active torsions:
REMARK  status: ('A' for Active; 'I' for Inactive)
REMARK    1  A    between atoms: C6_6  and  C7_7 
REMARK    2  A    between atoms: C8_11  and  N3_12 
ROOT
HETATM    1  N3  LIG X 999      46.660 131.699  14.194  1.00  0.00    -0.025 NA
HETATM    2  N4  LIG X 999      47.316 131.152  13.308  1.00  0.00    -0.158 NA
HETATM    3  N5  LIG X 999      47.971 130.606  12.422  1.00  0.00     0.068 N 
ENDROOT
BRANCH   1   4
HETATM    4  C8  LIG X 999      46.452 131.067  15.459  1.00  0.00     0.302 A 
HETATM    5  N2  LIG X 999      46.882 129.835  15.783  1.00  0.00    -0.236 N 
HETATM    6  N1  LIG X 999      46.500 129.608  17.028  1.00  0.00    -0.145 NA
HETATM    7  H5  LIG X 999      47.418 129.166  15.189  1.00  0.00     0.193 HD
HETATM    8  C7  LIG X 999      45.842 130.722  17.419  1.00  0.00     0.202 A 
HETATM    9  O1  LIG X 999      45.811 131.622  16.457  1.00  0.00    -0.253 OA
BRANCH   8  10
HETATM   10  C6  LIG X 999      45.237 130.909  18.752  1.00  0.00     0.020 A 
HETATM   11  C5  LIG X 999      44.051 131.648  18.900  1.00  0.00     0.028 A 
HETATM   12  C4  LIG X 999      43.478 131.823  20.170  1.00  0.00    -0.025 A 
HETATM   13  C3  LIG X 999      42.293 132.560  20.324  1.00  0.00     0.012 A 
HETATM   14  C11 LIG X 999      44.099 131.252  21.306  1.00  0.00    -0.026 A 
HETATM   15  C2  LIG X 999      41.731 132.728  21.594  1.00  0.00     0.001 A 
HETATM   16  C1  LIG X 999      42.345 132.164  22.715  1.00  0.00     0.001 A 
HETATM   17  C12 LIG X 999      43.524 131.428  22.575  1.00  0.00     0.012 A 
HETATM   18  C10 LIG X 999      45.282 130.516  21.153  1.00  0.00     0.013 A 
HETATM   19  C9  LIG X 999      45.845 130.346  19.885  1.00  0.00     0.017 A 
ENDBRANCH   8  10
ENDBRANCH   1   4
TORSDOF 2
ENDMDL
MODEL 8
REMARK VINA RESULT:      -7.5      1.388      2.674
REMARK  2 active torsions:
REMARK  status: ('A' for Active; 'I' for Inactive)
REMARK    1  A    between atoms: C6_6  and  C7_7 
REMARK    2  A    between atoms: C8_11  and  N3_12 
ROOT
HETATM    1  N3  LIG X 999      44.805 131.603  14.897  1.00  0.00    -0.025 NA
HETATM    2  N4  LIG X 999      45.689 131.300  14.096  1.00  0.00    -0.158 NA
HETATM    3  N5  LIG X 999      46.571 130.996  13.294  1.00  0.00     0.068 N 
ENDROOT
BRANCH   1   4
HETATM    4  C8  LIG X 999      44.952 131.341  16.294  1.00  0.00     0.302 A 
HETATM    5  N2  LIG X 999      45.966 130.654  16.847  1.00  0.00    -0.236 N 
HETATM    6  N1  LIG X 999      45.750 130.625  18.150  1.00  0.00    -0.145 NA
HETATM    7  H5  LIG X 999      46.782 130.217  16.365  1.00  0.00     0.193 HD
HETATM    8  C7  LIG X 999      44.597 131.304  18.345  1.00  0.00     0.202 A 
HETATM    9  O1  LIG X 999      44.103 131.745  17.207  1.00  0.00    -0.253 OA
BRANCH   8  10
HETATM   10  C6  LIG X 999      43.971 131.522  19.664  1.00  0.00     0.020 A 
HETATM   11  C5  LIG X 999      44.544 130.978  20.826  1.00  0.00     0.028 A 
HETATM   12  C4  LIG X 999      43.945 131.188  22.078  1.00  0.00    -0.025 A 
HETATM   13  C3  LIG X 999      44.513 130.647  23.242  1.00  0.00     0.012 A 
HETATM   14  C11 LIG X 999      42.757 131.952  22.170  1.00  0.00    -0.026 A 
HETATM   15  C2  LIG X 999      43.907 130.863  24.484  1.00  0.00     0.001 A 
HETATM   16  C1  LIG X 999      42.735 131.617  24.574  1.00  0.00     0.001 A 
HETATM   17  C12 LIG X 999      42.160 132.162  23.423  1.00  0.00     0.012 A 
HETATM   18  C10 LIG X 999      42.189 132.493  21.007  1.00  0.00     0.013 A 
HETATM   19  C9  LIG X 999      42.793 132.279  19.765  1.00  0.00     0.017 A 
ENDBRANCH   8  10
ENDBRANCH   1   4
TORSDOF 2
ENDMDL
