REMARK VINA RESULT:      -8.6      1.180      2.082
REMARK  7 active torsions:
REMARK  status: ('A' for Active; 'I' for Inactive)
REMARK    1  A    between atoms: O1_2  and  C1_3 
REMARK    2  A    between atoms: C1_3  and  C14_20 
REMARK    3  A    between atoms: N1_4  and  C2_5 
REMARK    4  A    between atoms: C2_5  and  O2_6 
REMARK    5  A    between atoms: O2_6  and  C3_7 
REMARK    6  A    between atoms: C3_7  and  O4_9 
REMARK    7  A    between atoms: O4_9  and  C4_10 
ROOT
HETATM    1  C3  LIG X 999      43.551 131.812  18.899  1.00  0.00     0.413 C 
HETATM    2  O3  LIG X 999      42.354 131.759  18.504  1.00  0.00    -0.229 OA
ENDROOT
BRANCH   1   3
HETATM    3  O2  LIG X 999      43.899 131.340  20.166  1.00  0.00    -0.276 OA
BRANCH   3   4
HETATM    4  C2  LIG X 999      42.982 131.315  21.256  1.00  0.00     0.332 C 
BRANCH   4   5
HETATM    5  N1  LIG X 999      43.678 131.648  22.496  1.00  0.00    -0.238 NA
HETATM    6  C1  LIG X 999      44.080 130.828  23.429  1.00  0.00     0.190 C 
BRANCH   6   7
HETATM    7  O1  LIG X 999      44.719 131.358  24.546  1.00  0.00    -0.343 OA
HETATM    8  H1  LIG X 999      45.412 130.825  25.057  1.00  0.00     0.219 HD
ENDBRANCH   6   7
BRANCH   6   9
HETATM    9  C14 LIG X 999      43.893 129.356  23.374  1.00  0.00     0.130 A 
HETATM   10  N2  LIG X 999      42.831 128.678  23.853  1.00  0.00    -0.169 NA
HETATM   11  N3  LIG X 999      43.042 127.393  23.624  1.00  0.00    -0.285 N 
HETATM   12  C15 LIG X 999      42.087 126.343  23.951  1.00  0.00     0.179 C 
HETATM   13  C16 LIG X 999      44.211 127.226  22.981  1.00  0.00     0.114 A 
HETATM   14  C17 LIG X 999      44.790 128.465  22.809  1.00  0.00     0.056 A 
ENDBRANCH   6   9
ENDBRANCH   4   5
ENDBRANCH   3   4
ENDBRANCH   1   3
BRANCH   1  15
HETATM   15  O4  LIG X 999      44.559 132.309  18.066  1.00  0.00    -0.256 OA
BRANCH  15  16
HETATM   16  C4  LIG X 999      45.288 131.548  17.140  1.00  0.00     0.082 A 
HETATM   17  C5  LIG X 999      45.571 130.213  17.452  1.00  0.00     0.038 A 
HETATM   18  C6  LIG X 999      46.305 129.415  16.572  1.00  0.00     0.015 A 
HETATM   19  C7  LIG X 999      46.781 129.949  15.366  1.00  0.00    -0.026 A 
HETATM   20  C8  LIG X 999      47.522 129.157  14.475  1.00  0.00     0.012 A 
HETATM   21  C12 LIG X 999      46.518 131.303  15.049  1.00  0.00    -0.023 A 
HETATM   22  C9  LIG X 999      48.000 129.706  13.281  1.00  0.00     0.001 A 
HETATM   23  C10 LIG X 999      47.743 131.043  12.969  1.00  0.00     0.001 A 
HETATM   24  C11 LIG X 999      47.006 131.841  13.848  1.00  0.00     0.012 A 
HETATM   25  C13 LIG X 999      45.777 132.095  15.940  1.00  0.00     0.049 A 
ENDBRANCH  15  16
ENDBRANCH   1  15
TORSDOF 7
