REMARK VINA RESULT:      -8.4      0.000      0.000
REMARK  1 active torsions:
REMARK  status: ('A' for Active; 'I' for Inactive)
REMARK    1  A    between atoms: C2_5  and  C3_6 
ROOT
HETATM    1  C3  LIG X 999      44.364 131.433  17.368  1.00  0.00     0.030 A 
HETATM    2  C4  LIG X 999      43.101 131.855  16.905  1.00  0.00     0.017 A 
HETATM    3  C5  LIG X 999      42.075 132.180  17.786  1.00  0.00     0.002 A 
HETATM    4  C6  LIG X 999      42.274 132.093  19.157  1.00  0.00     0.012 A 
HETATM    5  C7  LIG X 999      43.509 131.679  19.665  1.00  0.00    -0.025 A 
HETATM    6  C8  LIG X 999      43.681 131.601  21.058  1.00  0.00     0.012 A 
HETATM    7  C9  LIG X 999      44.898 131.193  21.595  1.00  0.00     0.001 A 
HETATM    8  C10 LIG X 999      45.953 130.858  20.752  1.00  0.00     0.001 A 
HETATM    9  C11 LIG X 999      45.803 130.929  19.365  1.00  0.00     0.013 A 
HETATM   10  C12 LIG X 999      44.579 131.340  18.783  1.00  0.00    -0.011 A 
ENDROOT
BRANCH   1  11
HETATM   11  C2  LIG X 999      45.386 131.112  16.323  1.00  0.00     0.203 A 
HETATM   12  O1  LIG X 999      45.843 129.913  16.027  1.00  0.00    -0.255 OA
HETATM   13  C1  LIG X 999      46.710 130.104  15.066  1.00  0.00     0.262 A 
HETATM   14  N1  LIG X 999      47.386 129.164  14.491  1.00  0.00    -0.260 NA
HETATM   15  N3  LIG X 999      46.809 131.401  14.749  1.00  0.00    -0.238 N 
HETATM   16  H1  LIG X 999      47.267 128.168  14.781  1.00  0.00     0.190 HD
HETATM   17  N2  LIG X 999      45.974 132.050  15.541  1.00  0.00    -0.145 NA
HETATM   18  H9  LIG X 999      47.419 131.840  14.023  1.00  0.00     0.193 HD
ENDBRANCH   1  11
TORSDOF 1
