REMARK VINA RESULT:      -8.2      1.359      1.703
REMARK  2 active torsions:
REMARK  status: ('A' for Active; 'I' for Inactive)
REMARK    1  A    between atoms: C1_1  and  N1_14 
REMARK    2  A    between atoms: C2_2  and  C3_4 
ROOT
HETATM    1  C3  LIG X 999      45.467 130.872  16.215  1.00  0.00     0.003 A 
HETATM    2  C4  LIG X 999      44.183 131.438  16.097  1.00  0.00     0.015 A 
HETATM    3  C5  LIG X 999      43.441 131.765  17.235  1.00  0.00     0.013 A 
HETATM    4  C6  LIG X 999      43.964 131.526  18.513  1.00  0.00    -0.026 A 
HETATM    5  C7  LIG X 999      43.225 131.851  19.661  1.00  0.00     0.012 A 
HETATM    6  C8  LIG X 999      43.755 131.603  20.930  1.00  0.00     0.001 A 
HETATM    7  C9  LIG X 999      45.022 131.028  21.062  1.00  0.00     0.001 A 
HETATM    8  C10 LIG X 999      45.767 130.699  19.926  1.00  0.00     0.012 A 
HETATM    9  C11 LIG X 999      45.246 130.944  18.646  1.00  0.00    -0.025 A 
HETATM   10  C12 LIG X 999      45.984 130.617  17.498  1.00  0.00     0.026 A 
ENDROOT
BRANCH   1  11
HETATM   11  C2  LIG X 999      46.271 130.503  15.021  1.00  0.00     0.132 C 
HETATM   12  C1  LIG X 999      46.874 131.425  14.257  1.00  0.00     0.121 C 
HETATM   13  O1  LIG X 999      46.416 129.154  14.706  1.00  0.00    -0.190 OA
BRANCH  12  14
HETATM   14  N1  LIG X 999      47.642 131.061  13.106  1.00  0.00    -0.406 N 
HETATM   15  H9  LIG X 999      48.574 131.485  12.904  1.00  0.00     0.155 HD
HETATM   16  H10 LIG X 999      47.267 130.345  12.445  1.00  0.00     0.155 HD
ENDBRANCH  12  14
ENDBRANCH   1  11
TORSDOF 2
