REMARK VINA RESULT:      -6.1      3.168      5.700
REMARK  1 active torsions:
REMARK  status: ('A' for Active; 'I' for Inactive)
REMARK    1  A    between atoms: C2_5  and  C3_6 
ROOT
HETATM    1  C3  LIG X 999      44.361 131.267  17.955  1.00  0.00     0.028 A 
HETATM    2  C4  LIG X 999      45.321 130.673  18.806  1.00  0.00     0.017 A 
HETATM    3  C5  LIG X 999      46.440 130.018  18.303  1.00  0.00     0.002 A 
HETATM    4  C6  LIG X 999      46.644 129.929  16.935  1.00  0.00     0.012 A 
HETATM    5  C7  LIG X 999      45.728 130.498  16.046  1.00  0.00    -0.025 A 
HETATM    6  C8  LIG X 999      45.967 130.389  14.667  1.00  0.00     0.012 A 
HETATM    7  C9  LIG X 999      45.077 130.943  13.752  1.00  0.00     0.001 A 
HETATM    8  C10 LIG X 999      43.943 131.609  14.203  1.00  0.00     0.001 A 
HETATM    9  C11 LIG X 999      43.687 131.728  15.571  1.00  0.00     0.013 A 
HETATM   10  C12 LIG X 999      44.570 131.177  16.535  1.00  0.00    -0.011 A 
ENDROOT
BRANCH   1  11
HETATM   11  C2  LIG X 999      43.186 131.952  18.599  1.00  0.00     0.177 A 
HETATM   12  O1  LIG X 999      43.027 132.136  19.894  1.00  0.00    -0.258 OA
HETATM   13  C1  LIG X 999      41.885 132.765  20.027  1.00  0.00     0.260 A 
HETATM   14  N1  LIG X 999      41.376 133.125  21.159  1.00  0.00    -0.261 NA
HETATM   15  N3  LIG X 999      41.308 132.989  18.840  1.00  0.00    -0.262 N 
HETATM   16  H1  LIG X 999      41.871 132.923  22.056  1.00  0.00     0.190 HD
HETATM   17  N2  LIG X 999      42.124 132.479  17.937  1.00  0.00    -0.276 N 
HETATM   18  H10 LIG X 999      40.400 133.466  18.643  1.00  0.00     0.190 HD
HETATM   19  H9  LIG X 999      41.933 132.506  16.912  1.00  0.00     0.189 HD
ENDBRANCH   1  11
TORSDOF 1
