REMARK VINA RESULT:      -5.0      6.785      8.581
REMARK  1 active torsions:
REMARK  status: ('A' for Active; 'I' for Inactive)
REMARK    1  A    between atoms: N1_2  and  C1_3 
ROOT
HETATM    1  C1  LIG X 999      40.230 123.122  22.634  1.00  0.00     0.120 C 
HETATM    2  C2  LIG X 999      40.303 124.388  23.216  1.00  0.00     0.057 C 
HETATM    3  C3  LIG X 999      41.539 125.033  23.360  1.00  0.00    -0.045 C 
HETATM    4  C4  LIG X 999      41.555 126.240  24.268  1.00  0.00     0.049 C 
HETATM    5  C5  LIG X 999      42.707 124.447  22.776  1.00  0.00     0.008 C 
HETATM    6  C6  LIG X 999      43.984 125.091  22.655  1.00  0.00    -0.013 C 
HETATM    7  C7  LIG X 999      44.160 126.494  22.727  1.00  0.00     0.013 C 
HETATM    8  C8  LIG X 999      45.432 127.066  22.661  1.00  0.00     0.001 C 
HETATM    9  C9  LIG X 999      46.554 126.266  22.473  1.00  0.00     0.001 C 
HETATM   10  C10 LIG X 999      46.405 124.894  22.292  1.00  0.00     0.012 C 
HETATM   11  C11 LIG X 999      45.130 124.306  22.340  1.00  0.00    -0.025 C 
HETATM   12  C12 LIG X 999      44.990 122.954  22.021  1.00  0.00     0.014 C 
HETATM   13  C13 LIG X 999      43.730 122.377  21.953  1.00  0.00     0.031 C 
HETATM   14  C14 LIG X 999      42.589 123.104  22.314  1.00  0.00     0.045 C 
HETATM   15  N2  LIG X 999      41.369 122.498  22.236  1.00  0.00    -0.341 N 
HETATM   16  H12 LIG X 999      41.298 121.524  21.858  1.00  0.00     0.167 HD
ENDROOT
BRANCH   1  17
HETATM   17  N1  LIG X 999      39.090 122.516  22.510  1.00  0.00    -0.284 NA
HETATM   18  H1  LIG X 999      38.977 121.489  22.668  1.00  0.00     0.188 HD
ENDBRANCH   1  17
TORSDOF 1
