REMARK VINA RESULT:      -5.3      1.345      1.992
REMARK  4 active torsions:
REMARK  status: ('A' for Active; 'I' for Inactive)
REMARK    1  A    between atoms: C1_2  and  C2_4 
REMARK    2  A    between atoms: C8_10  and  C9_11 
REMARK       I    between atoms: C9_11  and  N1_13 
REMARK    3  A    between atoms: N1_13  and  S1_14 
REMARK    4  A    between atoms: S1_14  and  C10_17 
ROOT
HETATM    1  C9  LIG X 999      44.553 129.617  21.961  1.00  0.00     0.259 C 
HETATM    2  O3  LIG X 999      43.658 130.267  22.569  1.00  0.00    -0.270 OA
HETATM    3  N1  LIG X 999      44.881 129.943  20.609  1.00  0.00    -0.122 NA
ENDROOT
BRANCH   3   4
HETATM    4  S1  LIG X 999      44.288 131.376  19.840  1.00  0.00     0.286 S 
HETATM    5  O4  LIG X 999      44.918 132.588  20.465  1.00  0.00    -0.198 OA
HETATM    6  O5  LIG X 999      42.799 131.459  20.024  1.00  0.00    -0.198 OA
BRANCH   4   7
HETATM    7  C10 LIG X 999      44.664 131.294  18.122  1.00  0.00     0.082 A 
HETATM    8  C11 LIG X 999      43.770 131.832  17.186  1.00  0.00     0.026 A 
HETATM    9  C12 LIG X 999      44.029 131.722  15.818  1.00  0.00     0.014 A 
HETATM   10  C13 LIG X 999      45.184 131.065  15.369  1.00  0.00    -0.026 A 
HETATM   11  C14 LIG X 999      45.450 130.942  13.996  1.00  0.00     0.012 A 
HETATM   12  C18 LIG X 999      46.089 130.517  16.310  1.00  0.00    -0.025 A 
HETATM   13  C15 LIG X 999      46.601 130.280  13.562  1.00  0.00     0.001 A 
HETATM   14  C16 LIG X 999      47.494 129.738  14.490  1.00  0.00     0.001 A 
HETATM   15  C17 LIG X 999      47.241 129.854  15.860  1.00  0.00     0.012 A 
HETATM   16  C19 LIG X 999      45.821 130.636  17.682  1.00  0.00     0.037 A 
ENDBRANCH   4   7
ENDBRANCH   3   4
BRANCH   1  17
HETATM   17  C8  LIG X 999      45.339 128.535  22.665  1.00  0.00     0.099 C 
HETATM   18  C2  LIG X 999      44.685 128.005  23.979  1.00  0.00     0.104 C 
HETATM   19  C3  LIG X 999      44.538 126.489  23.690  1.00  0.00     0.001 C 
HETATM   20  C4  LIG X 999      45.938 125.847  23.736  1.00  0.00     0.006 C 
HETATM   21  C7  LIG X 999      44.251 126.455  22.205  1.00  0.00     0.011 C 
HETATM   22  C5  LIG X 999      46.596 126.372  22.448  1.00  0.00     0.006 C 
HETATM   23  C6  LIG X 999      45.486 127.240  21.824  1.00  0.00    -0.000 C 
BRANCH  18  24
HETATM   24  C1  LIG X 999      43.372 128.654  24.360  1.00  0.00     0.178 C 
HETATM   25  O1  LIG X 999      43.340 129.885  24.622  1.00  0.00    -0.648 OA
HETATM   26  O2  LIG X 999      42.188 127.926  24.380  1.00  0.00    -0.648 OA
ENDBRANCH  18  24
ENDBRANCH   1  17
TORSDOF 4
