REMARK VINA RESULT:      -6.0      1.734      3.004
REMARK  4 active torsions:
REMARK  status: ('A' for Active; 'I' for Inactive)
REMARK    1  A    between atoms: C1_2  and  C2_4 
REMARK    2  A    between atoms: C8_10  and  C9_11 
REMARK       I    between atoms: C9_11  and  N1_13 
REMARK    3  A    between atoms: N1_13  and  S1_14 
REMARK    4  A    between atoms: S1_14  and  C10_17 
ROOT
HETATM    1  C9  LIG X 999      44.478 130.699  21.610  1.00  0.00     0.259 C 
HETATM    2  O3  LIG X 999      45.421 131.525  21.475  1.00  0.00    -0.270 OA
HETATM    3  N1  LIG X 999      43.390 130.699  20.683  1.00  0.00    -0.122 NA
ENDROOT
BRANCH   3   4
HETATM    4  S1  LIG X 999      43.295 131.820  19.368  1.00  0.00     0.286 S 
HETATM    5  O4  LIG X 999      41.878 131.862  18.867  1.00  0.00    -0.198 OA
HETATM    6  O5  LIG X 999      43.687 133.187  19.853  1.00  0.00    -0.198 OA
BRANCH   4   7
HETATM    7  C10 LIG X 999      44.392 131.328  18.083  1.00  0.00     0.082 A 
HETATM    8  C11 LIG X 999      45.545 130.595  18.393  1.00  0.00     0.026 A 
HETATM    9  C12 LIG X 999      46.421 130.192  17.382  1.00  0.00     0.014 A 
HETATM   10  C13 LIG X 999      46.155 130.523  16.045  1.00  0.00    -0.026 A 
HETATM   11  C14 LIG X 999      47.028 130.124  15.021  1.00  0.00     0.012 A 
HETATM   12  C18 LIG X 999      44.994 131.270  15.727  1.00  0.00    -0.025 A 
HETATM   13  C15 LIG X 999      46.754 130.465  13.694  1.00  0.00     0.001 A 
HETATM   14  C16 LIG X 999      45.610 131.205  13.379  1.00  0.00     0.001 A 
HETATM   15  C17 LIG X 999      44.731 131.606  14.389  1.00  0.00     0.012 A 
HETATM   16  C19 LIG X 999      44.120 131.668  16.750  1.00  0.00     0.037 A 
ENDBRANCH   4   7
ENDBRANCH   3   4
BRANCH   1  17
HETATM   17  C8  LIG X 999      44.502 129.667  22.716  1.00  0.00     0.099 C 
HETATM   18  C2  LIG X 999      43.775 130.087  24.029  1.00  0.00     0.104 C 
HETATM   19  C3  LIG X 999      42.732 128.954  24.209  1.00  0.00     0.001 C 
HETATM   20  C4  LIG X 999      43.474 127.668  24.624  1.00  0.00     0.006 C 
HETATM   21  C7  LIG X 999      42.351 128.623  22.783  1.00  0.00     0.011 C 
HETATM   22  C5  LIG X 999      44.192 127.253  23.327  1.00  0.00     0.006 C 
HETATM   23  C6  LIG X 999      43.770 128.354  22.335  1.00  0.00    -0.000 C 
BRANCH  18  24
HETATM   24  C1  LIG X 999      43.145 131.463  24.005  1.00  0.00     0.178 C 
HETATM   25  O1  LIG X 999      41.958 131.596  23.607  1.00  0.00    -0.648 OA
HETATM   26  O2  LIG X 999      43.839 132.580  24.457  1.00  0.00    -0.648 OA
ENDBRANCH  18  24
ENDBRANCH   1  17
TORSDOF 4
