REMARK VINA RESULT:      -7.9      5.211      7.799
REMARK  6 active torsions:
REMARK  status: ('A' for Active; 'I' for Inactive)
REMARK    1  A    between atoms: O1_2  and  C1_3 
REMARK    2  A    between atoms: C1_3  and  C4_6 
REMARK    3  A    between atoms: C4_6  and  O2_7 
REMARK    4  A    between atoms: C4_6  and  O3_9 
REMARK    5  A    between atoms: O3_9  and  C5_10 
REMARK    6  A    between atoms: C10_15  and  N1_16 
ROOT
HETATM    1  N1  LIG X 999      45.838 130.266  14.155  1.00  0.00    -0.073 NA
HETATM    2  N2  LIG X 999      46.832 130.813  13.674  1.00  0.00    -0.162 NA
HETATM    3  N3  LIG X 999      47.823 131.359  13.192  1.00  0.00     0.068 N 
ENDROOT
BRANCH   1   4
HETATM    4  C10 LIG X 999      45.277 130.663  15.413  1.00  0.00     0.094 A 
HETATM    5  C9  LIG X 999      45.961 130.335  16.591  1.00  0.00     0.046 A 
HETATM    6  C8  LIG X 999      45.446 130.706  17.841  1.00  0.00    -0.024 A 
HETATM    7  C7  LIG X 999      46.127 130.376  19.021  1.00  0.00     0.015 A 
HETATM    8  C13 LIG X 999      44.225 131.416  17.915  1.00  0.00    -0.023 A 
HETATM    9  C6  LIG X 999      45.605 130.750  20.261  1.00  0.00     0.038 A 
HETATM   10  C5  LIG X 999      44.402 131.459  20.349  1.00  0.00     0.073 A 
HETATM   11  C14 LIG X 999      43.708 131.788  19.168  1.00  0.00     0.049 A 
HETATM   12  C12 LIG X 999      43.542 131.743  16.735  1.00  0.00     0.014 A 
HETATM   13  C11 LIG X 999      44.062 131.370  15.493  1.00  0.00     0.035 A 
BRANCH  10  14
HETATM   14  O3  LIG X 999      43.934 131.803  21.628  1.00  0.00    -0.314 OA
BRANCH  14  15
HETATM   15  C4  LIG X 999      43.091 130.998  22.456  1.00  0.00     0.321 C 
BRANCH  15  16
HETATM   16  C1  LIG X 999      43.947 130.180  23.380  1.00  0.00     0.094 C 
HETATM   17  C2  LIG X 999      44.086 128.858  23.177  1.00  0.00     0.006 C 
HETATM   18  C3  LIG X 999      44.922 127.978  24.054  1.00  0.00     0.038 C 
BRANCH  16  19
HETATM   19  O1  LIG X 999      44.585 130.835  24.438  1.00  0.00    -0.360 OA
HETATM   20  H1  LIG X 999      45.387 131.440  24.315  1.00  0.00     0.217 HD
ENDBRANCH  16  19
ENDBRANCH  15  16
BRANCH  15  21
HETATM   21  O2  LIG X 999      42.244 131.816  23.221  1.00  0.00    -0.365 OA
HETATM   22  H7  LIG X 999      41.314 131.608  22.950  1.00  0.00     0.213 HD
ENDBRANCH  15  21
ENDBRANCH  14  15
ENDBRANCH  10  14
ENDBRANCH   1   4
TORSDOF 6
