REMARK VINA RESULT:      -6.6      0.752      1.814
REMARK  4 active torsions:
REMARK  status: ('A' for Active; 'I' for Inactive)
REMARK    1  A    between atoms: C3_3  and  O1_4 
REMARK    2  A    between atoms: O1_4  and  C4_5 
REMARK    3  A    between atoms: C4_5  and  O2_6 
REMARK    4  A    between atoms: C5_8  and  C6_9 
ROOT
HETATM    1  C1  LIG X 999      45.388 127.025  22.679  1.00  0.00     0.014 C 
HETATM    2  C2  LIG X 999      44.453 127.681  23.065  1.00  0.00    -0.091 C 
HETATM    3  C3  LIG X 999      43.316 128.475  23.530  1.00  0.00     0.266 C 
ENDROOT
BRANCH   3   4
HETATM    4  O1  LIG X 999      43.069 129.504  22.600  1.00  0.00    -0.319 OA
BRANCH   4   5
HETATM    5  C4  LIG X 999      43.063 130.741  23.275  1.00  0.00     0.314 A 
HETATM    6  O3  LIG X 999      44.328 131.352  23.178  1.00  0.00    -0.312 OA
HETATM    7  C5  LIG X 999      43.261 132.017  22.538  1.00  0.00     0.254 A 
BRANCH   5   8
HETATM    8  O2  LIG X 999      42.619 130.762  24.602  1.00  0.00    -0.341 OA
HETATM    9  H4  LIG X 999      43.176 130.094  25.076  1.00  0.00     0.215 HD
ENDBRANCH   5   8
BRANCH   7  10
HETATM   10  C6  LIG X 999      43.334 131.915  21.039  1.00  0.00    -0.021 A 
HETATM   11  C7  LIG X 999      42.241 132.276  20.235  1.00  0.00     0.011 A 
HETATM   12  C8  LIG X 999      42.321 132.168  18.844  1.00  0.00     0.013 A 
HETATM   13  C9  LIG X 999      43.490 131.686  18.239  1.00  0.00    -0.026 A 
HETATM   14  C10 LIG X 999      43.583 131.578  16.843  1.00  0.00     0.012 A 
HETATM   15  C14 LIG X 999      44.587 131.297  19.046  1.00  0.00    -0.025 A 
HETATM   16  C11 LIG X 999      44.753 131.091  16.252  1.00  0.00     0.001 A 
HETATM   17  C12 LIG X 999      45.835 130.708  17.049  1.00  0.00     0.001 A 
HETATM   18  C13 LIG X 999      45.756 130.808  18.441  1.00  0.00     0.012 A 
HETATM   19  C15 LIG X 999      44.496 131.405  20.442  1.00  0.00     0.022 A 
ENDBRANCH   7  10
ENDBRANCH   4   5
ENDBRANCH   3   4
TORSDOF 4
