REMARK VINA RESULT:      -3.2      4.112      5.729
REMARK  5 active torsions:
REMARK  status: ('A' for Active; 'I' for Inactive)
REMARK    1  A    between atoms: C3_3  and  O1_4 
REMARK    2  A    between atoms: O1_4  and  C4_5 
REMARK    3  A    between atoms: C5_6  and  C6_7 
REMARK    4  A    between atoms: C12_14  and  N1_15 
REMARK    5  A    between atoms: C15_21  and  N3_22 
ROOT
HETATM    1  C1  LIG X 999      45.697 131.955  16.024  1.00  0.00     0.014 C 
HETATM    2  C2  LIG X 999      45.751 131.043  16.809  1.00  0.00    -0.091 C 
HETATM    3  C3  LIG X 999      45.818 129.935  17.763  1.00  0.00     0.268 C 
ENDROOT
BRANCH   3   4
HETATM    4  O1  LIG X 999      46.158 130.446  19.048  1.00  0.00    -0.339 OA
BRANCH   4   5
HETATM    5  C4  LIG X 999      45.560 130.049  20.257  1.00  0.00     0.085 A 
HETATM    6  C5  LIG X 999      44.663 130.950  20.915  1.00  0.00     0.050 A 
HETATM    7  C7  LIG X 999      44.086 130.516  22.121  1.00  0.00     0.044 A 
HETATM    8  C8  LIG X 999      44.380 129.292  22.621  1.00  0.00     0.021 A 
HETATM    9  C15 LIG X 999      43.143 131.076  23.113  1.00  0.00     0.198 A 
HETATM   10  C9  LIG X 999      43.710 129.098  23.782  1.00  0.00     0.071 A 
HETATM   11  C13 LIG X 999      45.234 128.375  22.041  1.00  0.00     0.006 A 
HETATM   12  C10 LIG X 999      43.852 127.906  24.488  1.00  0.00     0.035 A 
HETATM   13  N2  LIG X 999      42.918 130.241  24.096  1.00  0.00    -0.225 NA
HETATM   14  C11 LIG X 999      44.711 126.922  23.950  1.00  0.00     0.032 A 
HETATM   15  C12 LIG X 999      45.411 127.140  22.727  1.00  0.00     0.037 A 
HETATM   16  C14 LIG X 999      45.839 128.766  20.827  1.00  0.00     0.052 A 
BRANCH   6  17
HETATM   17  C6  LIG X 999      44.342 132.287  20.367  1.00  0.00     0.273 C 
HETATM   18  O2  LIG X 999      43.684 132.424  19.301  1.00  0.00    -0.301 OA
ENDBRANCH   6  17
BRANCH  15  19
HETATM   19  N1  LIG X 999      46.271 126.107  22.227  1.00  0.00    -0.398 N 
HETATM   20  H7  LIG X 999      47.267 126.058  22.533  1.00  0.00     0.156 HD
HETATM   21  H8  LIG X 999      45.945 125.381  21.554  1.00  0.00     0.156 HD
ENDBRANCH  15  19
BRANCH   9  22
HETATM   22  N3  LIG X 999      42.535 132.366  23.034  1.00  0.00    -0.051 NA
HETATM   23  N4  LIG X 999      41.817 132.676  22.083  1.00  0.00    -0.160 NA
HETATM   24  N5  LIG X 999      41.099 132.987  21.133  1.00  0.00     0.068 N 
ENDBRANCH   9  22
ENDBRANCH   4   5
ENDBRANCH   3   4
TORSDOF 5
