REMARK VINA RESULT:      -4.4      3.991      7.077
REMARK  5 active torsions:
REMARK  status: ('A' for Active; 'I' for Inactive)
REMARK    1  A    between atoms: C3_3  and  C4_4 
REMARK    2  A    between atoms: C4_4  and  S1_5 
REMARK    3  A    between atoms: S1_5  and  C5_6 
REMARK    4  A    between atoms: C6_7  and  N1_8 
REMARK    5  A    between atoms: C10_12  and  N2_13 
ROOT
HETATM    1  C1  LIG X 999      51.960 126.470  22.760  1.00  0.00     0.112 C 
HETATM    2  C2  LIG X 999      50.600 126.018  23.049  1.00  0.00    -0.110 C 
HETATM    3  C3  LIG X 999      49.471 125.663  23.283  1.00  0.00    -0.097 C 
ENDROOT
BRANCH   3   4
HETATM    4  C4  LIG X 999      48.091 125.254  23.558  1.00  0.00     0.173 C 
BRANCH   4   5
HETATM    5  S1  LIG X 999      47.156 125.070  22.000  1.00  0.00    -0.115 SA
BRANCH   5   6
HETATM    6  C5  LIG X 999      45.537 124.906  22.802  1.00  0.00     0.038 A 
HETATM    7  C6  LIG X 999      45.066 123.625  23.165  1.00  0.00     0.043 A 
HETATM    8  C7  LIG X 999      43.803 123.490  23.744  1.00  0.00     0.031 A 
HETATM    9  C8  LIG X 999      42.989 124.599  23.959  1.00  0.00     0.017 A 
HETATM   10  C9  LIG X 999      43.420 125.890  23.606  1.00  0.00     0.002 A 
HETATM   11  C10 LIG X 999      42.593 127.036  23.807  1.00  0.00     0.045 A 
HETATM   12  C14 LIG X 999      44.733 126.049  23.056  1.00  0.00    -0.004 A 
HETATM   13  C11 LIG X 999      43.118 128.296  23.486  1.00  0.00     0.003 A 
HETATM   14  C12 LIG X 999      44.377 128.442  22.996  1.00  0.00    -0.021 A 
HETATM   15  C18 LIG X 999      42.465 129.624  23.601  1.00  0.00     0.278 C 
HETATM   16  C13 LIG X 999      45.207 127.351  22.776  1.00  0.00     0.023 A 
HETATM   17  C15 LIG X 999      44.689 129.866  22.751  1.00  0.00     0.276 C 
HETATM   18  N3  LIG X 999      43.404 130.599  22.962  1.00  0.00    -0.067 N 
HETATM   19  C16 LIG X 999      43.610 131.778  23.833  1.00  0.00     0.272 C 
HETATM   20  C17 LIG X 999      42.859 131.051  21.659  1.00  0.00     0.272 C 
BRANCH   7  21
HETATM   21  N1  LIG X 999      45.856 122.444  22.955  1.00  0.00    -0.398 N 
HETATM   22  H6  LIG X 999      46.785 122.340  23.420  1.00  0.00     0.156 HD
HETATM   23  H7  LIG X 999      45.546 121.664  22.337  1.00  0.00     0.156 HD
ENDBRANCH   7  21
BRANCH  11  24
HETATM   24  N2  LIG X 999      41.246 126.942  24.301  1.00  0.00    -0.398 N 
HETATM   25  H10 LIG X 999      40.961 126.262  25.036  1.00  0.00     0.156 HD
HETATM   26  H11 LIG X 999      40.475 127.483  23.851  1.00  0.00     0.156 HD
ENDBRANCH  11  24
ENDBRANCH   5   6
ENDBRANCH   4   5
ENDBRANCH   3   4
TORSDOF 5
