REMARK VINA RESULT:      -5.1      2.720      4.422
REMARK  3 active torsions:
REMARK  status: ('A' for Active; 'I' for Inactive)
REMARK    1  A    between atoms: C3_3  and  S1_4 
REMARK    2  A    between atoms: S1_4  and  C4_7 
REMARK    3  A    between atoms: C6_9  and  N1_10 
ROOT
HETATM    1  C1  LIG X 999      42.461 130.006  24.053  1.00  0.00     0.013 C 
HETATM    2  C2  LIG X 999      42.648 128.819  23.954  1.00  0.00    -0.102 C 
HETATM    3  C3  LIG X 999      42.879 127.378  23.835  1.00  0.00     0.238 C 
ENDROOT
BRANCH   3   4
HETATM    4  S1  LIG X 999      44.579 127.069  23.395  1.00  0.00     0.186 S 
HETATM    5  O1  LIG X 999      45.038 128.064  22.367  1.00  0.00    -0.222 OA
HETATM    6  O2  LIG X 999      45.428 127.248  24.625  1.00  0.00    -0.222 OA
BRANCH   4   7
HETATM    7  C4  LIG X 999      44.763 125.417  22.766  1.00  0.00     0.073 A 
HETATM    8  C5  LIG X 999      43.599 124.663  22.546  1.00  0.00     0.058 A 
HETATM    9  C6  LIG X 999      43.662 123.354  22.040  1.00  0.00     0.095 A 
HETATM   10  C7  LIG X 999      44.903 122.790  21.746  1.00  0.00     0.046 A 
HETATM   11  C8  LIG X 999      46.083 123.517  21.943  1.00  0.00    -0.021 A 
HETATM   12  C9  LIG X 999      47.324 122.928  21.625  1.00  0.00     0.022 A 
HETATM   13  C13 LIG X 999      46.027 124.850  22.455  1.00  0.00    -0.004 A 
HETATM   14  C10 LIG X 999      48.486 123.667  21.825  1.00  0.00    -0.024 A 
HETATM   15  C11 LIG X 999      48.446 124.937  22.306  1.00  0.00    -0.024 A 
HETATM   16  C17 LIG X 999      49.879 123.263  21.538  1.00  0.00     0.276 C 
HETATM   17  C12 LIG X 999      47.241 125.560  22.628  1.00  0.00     0.023 A 
HETATM   18  C14 LIG X 999      49.809 125.505  22.389  1.00  0.00     0.276 C 
HETATM   19  N4  LIG X 999      50.737 124.379  22.050  1.00  0.00    -0.067 N 
HETATM   20  C15 LIG X 999      51.467 123.940  23.263  1.00  0.00     0.272 C 
HETATM   21  C16 LIG X 999      51.717 124.799  21.023  1.00  0.00     0.272 C 
BRANCH   9  22
HETATM   22  N1  LIG X 999      42.481 122.574  21.814  1.00  0.00    -0.073 NA
HETATM   23  N2  LIG X 999      41.399 122.845  22.339  1.00  0.00    -0.162 NA
HETATM   24  N3  LIG X 999      40.320 123.114  22.863  1.00  0.00     0.068 N 
ENDBRANCH   9  22
ENDBRANCH   4   7
ENDBRANCH   3   4
TORSDOF 3
