REMARK VINA RESULT:      -2.1      2.924      5.682
REMARK  2 active torsions:
REMARK  status: ('A' for Active; 'I' for Inactive)
REMARK    1  A    between atoms: C4_4  and  O1_5 
REMARK    2  A    between atoms: C10_11  and  N1_12 
ROOT
HETATM    1  N1  LIG X 999      44.626 128.244  22.040  1.00  0.00    -0.072 NA
HETATM    2  N2  LIG X 999      44.544 129.068  22.952  1.00  0.00    -0.162 NA
HETATM    3  N3  LIG X 999      44.461 129.892  23.862  1.00  0.00     0.068 N 
ENDROOT
BRANCH   1   4
HETATM    4  C10 LIG X 999      45.063 126.895  22.263  1.00  0.00     0.101 C 
HETATM    5  C9  LIG X 999      44.252 126.063  23.067  1.00  0.00     0.007 C 
HETATM    6  C8  LIG X 999      44.650 124.965  23.817  1.00  0.00    -0.022 C 
HETATM    7  C12 LIG X 999      42.776 126.190  23.157  1.00  0.00     0.278 C 
HETATM    8  C7  LIG X 999      45.959 124.625  24.181  1.00  0.00     0.012 C 
HETATM    9  C15 LIG X 999      43.462 124.159  24.196  1.00  0.00     0.276 C 
HETATM   10  C6  LIG X 999      46.950 125.591  24.386  1.00  0.00     0.037 C 
HETATM   11  C4  LIG X 999      48.276 125.446  23.932  1.00  0.00     0.068 C 
HETATM   12  C3  LIG X 999      48.609 124.738  22.759  1.00  0.00     0.037 C 
HETATM   13  C2  LIG X 999      47.747 124.458  21.680  1.00  0.00     0.003 C 
HETATM   14  C1  LIG X 999      46.542 125.122  21.413  1.00  0.00     0.002 C 
HETATM   15  C11 LIG X 999      46.304 126.458  21.759  1.00  0.00     0.035 C 
HETATM   16  N4  LIG X 999      42.279 124.861  23.615  1.00  0.00    -0.067 N 
HETATM   17  C13 LIG X 999      41.208 125.021  24.624  1.00  0.00     0.272 C 
HETATM   18  C14 LIG X 999      41.748 124.094  22.462  1.00  0.00     0.272 C 
BRANCH  11  19
HETATM   19  O1  LIG X 999      49.338 126.048  24.625  1.00  0.00    -0.356 OA
HETATM   20  C5  LIG X 999      50.396 126.773  24.005  1.00  0.00     0.210 C 
ENDBRANCH  11  19
ENDBRANCH   1   4
TORSDOF 2
