REMARK VINA RESULT:      -4.8      4.787      7.285
REMARK  2 active torsions:
REMARK  status: ('A' for Active; 'I' for Inactive)
REMARK    1  A    between atoms: O1_2  and  C2_3 
REMARK    2  A    between atoms: C11_12  and  N1_13 
ROOT
HETATM    1  C2  LIG X 999      44.206 130.294  22.385  1.00  0.00     0.095 A 
HETATM    2  C3  LIG X 999      44.976 129.134  22.165  1.00  0.00     0.051 A 
HETATM    3  C4  LIG X 999      44.584 127.905  22.710  1.00  0.00    -0.023 A 
HETATM    4  C5  LIG X 999      45.355 126.745  22.492  1.00  0.00     0.021 A 
HETATM    5  C6  LIG X 999      44.925 125.541  23.051  1.00  0.00    -0.024 A 
HETATM    6  C7  LIG X 999      43.791 125.468  23.801  1.00  0.00    -0.024 A 
HETATM    7  C8  LIG X 999      43.004 126.594  24.046  1.00  0.00     0.021 A 
HETATM    8  C9  LIG X 999      43.399 127.828  23.493  1.00  0.00    -0.023 A 
HETATM    9  C10 LIG X 999      42.638 128.982  23.710  1.00  0.00     0.044 A 
HETATM   10  C11 LIG X 999      43.033 130.211  23.161  1.00  0.00     0.060 A 
HETATM   11  C12 LIG X 999      43.583 124.090  24.294  1.00  0.00     0.276 C 
HETATM   12  N2  LIG X 999      44.638 123.260  23.630  1.00  0.00    -0.067 N 
HETATM   13  C13 LIG X 999      44.021 122.376  22.612  1.00  0.00     0.272 C 
HETATM   14  C14 LIG X 999      45.349 122.425  24.624  1.00  0.00     0.272 C 
HETATM   15  C15 LIG X 999      45.582 124.219  22.972  1.00  0.00     0.276 C 
ENDROOT
BRANCH  10  16
HETATM   16  N1  LIG X 999      42.234 131.376  23.399  1.00  0.00    -0.397 N 
HETATM   17  H8  LIG X 999      41.261 131.440  23.024  1.00  0.00     0.156 HD
HETATM   18  H9  LIG X 999      42.597 132.185  23.950  1.00  0.00     0.156 HD
ENDBRANCH  10  16
BRANCH   1  19
HETATM   19  O1  LIG X 999      44.575 131.539  21.849  1.00  0.00    -0.354 OA
HETATM   20  C1  LIG X 999      45.369 131.714  20.680  1.00  0.00     0.210 C 
ENDBRANCH   1  19
TORSDOF 2
