REMARK VINA RESULT:       2.4      2.506      4.505
REMARK  4 active torsions:
REMARK  status: ('A' for Active; 'I' for Inactive)
REMARK    1  A    between atoms: C5_5  and  O1_6 
REMARK    2  A    between atoms: O1_6  and  C6_7 
REMARK       I    between atoms: C6_7  and  N1_9 
REMARK    3  A    between atoms: C9_13  and  N2_14 
REMARK    4  A    between atoms: C11_19  and  N5_20 
ROOT
HETATM    1  N2  LIG X 999      42.686 132.292  20.004  1.00  0.00    -0.068 NA
HETATM    2  N3  LIG X 999      41.809 132.960  20.552  1.00  0.00    -0.162 NA
HETATM    3  N4  LIG X 999      40.929 133.624  21.097  1.00  0.00     0.068 N 
ENDROOT
BRANCH   1   4
HETATM    4  C9  LIG X 999      43.863 131.835  20.695  1.00  0.00     0.151 C 
HETATM    5  C5  LIG X 999      45.061 132.540  20.485  1.00  0.00     0.114 C 
HETATM    6  C4  LIG X 999      45.400 133.049  19.213  1.00  0.00     0.040 C 
HETATM    7  C3  LIG X 999      45.042 132.460  17.982  1.00  0.00     0.003 C 
HETATM    8  C2  LIG X 999      44.619 131.129  17.792  1.00  0.00     0.000 C 
HETATM    9  C1  LIG X 999      44.854 130.084  18.693  1.00  0.00     0.000 C 
HETATM   10  C13 LIG X 999      45.996 130.037  19.496  1.00  0.00     0.002 C 
HETATM   11  C12 LIG X 999      45.985 129.651  20.840  1.00  0.00     0.036 C 
HETATM   12  C11 LIG X 999      44.900 129.804  21.745  1.00  0.00     0.117 C 
HETATM   13  C10 LIG X 999      43.819 130.706  21.552  1.00  0.00     0.100 C 
HETATM   14 CL1  LIG X 999      42.360 130.448  22.513  1.00  0.00    -0.079 Cl
BRANCH   5  15
HETATM   15  O1  LIG X 999      45.902 132.731  21.593  1.00  0.00    -0.254 OA
BRANCH  15  16
HETATM   16  C6  LIG X 999      47.292 132.933  21.550  1.00  0.00     0.461 C 
HETATM   17  O2  LIG X 999      48.055 132.069  21.037  1.00  0.00    -0.230 OA
HETATM   18  N1  LIG X 999      47.860 134.098  22.180  1.00  0.00     0.009 N 
HETATM   19  H5  LIG X 999      48.890 134.129  21.991  1.00  0.00     0.292 HD
HETATM   20  C7  LIG X 999      47.254 135.319  21.628  1.00  0.00     0.282 C 
HETATM   21  C8  LIG X 999      47.656 134.023  23.634  1.00  0.00     0.282 C 
ENDBRANCH  15  16
ENDBRANCH   5  15
BRANCH  12  22
HETATM   22  N5  LIG X 999      44.901 129.044  22.966  1.00  0.00    -0.071 NA
HETATM   23  N6  LIG X 999      44.609 127.847  23.007  1.00  0.00    -0.162 NA
HETATM   24  N7  LIG X 999      44.318 126.653  23.050  1.00  0.00     0.068 N 
ENDBRANCH  12  22
ENDBRANCH   1   4
TORSDOF 4
