REMARK VINA RESULT:      -4.8      2.834      5.968
REMARK  3 active torsions:
REMARK  status: ('A' for Active; 'I' for Inactive)
REMARK    1  A    between atoms: N2_3  and  N3_4 
REMARK    2  A    between atoms: C1_5  and  C2_6 
REMARK    3  A    between atoms: C3_8  and  C4_9 
REMARK       I    between atoms: N4_19  and  C14_20 
ROOT
HETATM    1  C2  LIG X 999      46.365 125.256  24.242  1.00  0.00     0.259 C 
HETATM    2  O1  LIG X 999      46.326 126.670  24.312  1.00  0.00    -0.335 OA
HETATM    3  C3  LIG X 999      44.988 127.038  24.080  1.00  0.00     0.280 C 
HETATM    4  N4  LIG X 999      44.340 125.867  23.534  1.00  0.00    -0.247 N 
HETATM    5  C14 LIG X 999      42.965 125.802  23.120  1.00  0.00     0.232 C 
HETATM    6  O2  LIG X 999      42.199 126.784  23.316  1.00  0.00    -0.272 OA
HETATM    7  C15 LIG X 999      42.417 124.562  22.487  1.00  0.00     0.119 C 
HETATM    8  N5  LIG X 999      45.183 124.760  23.534  1.00  0.00    -0.199 NA
HETATM    9  H15 LIG X 999      44.734 124.020  24.124  1.00  0.00     0.150 HD
ENDROOT
BRANCH   3  10
HETATM   10  C4  LIG X 999      44.935 128.198  23.094  1.00  0.00     0.003 A 
HETATM   11  C5  LIG X 999      45.652 128.053  21.890  1.00  0.00     0.012 A 
HETATM   12  C6  LIG X 999      45.683 129.067  20.938  1.00  0.00     0.002 A 
HETATM   13  C7  LIG X 999      44.991 130.252  21.154  1.00  0.00     0.012 A 
HETATM   14  C8  LIG X 999      44.242 130.430  22.324  1.00  0.00    -0.025 A 
HETATM   15  C9  LIG X 999      43.535 131.628  22.513  1.00  0.00     0.012 A 
HETATM   16  C13 LIG X 999      44.191 129.400  23.309  1.00  0.00    -0.015 A 
HETATM   17  C10 LIG X 999      42.766 131.819  23.658  1.00  0.00     0.001 A 
HETATM   18  C11 LIG X 999      42.689 130.817  24.622  1.00  0.00     0.001 A 
HETATM   19  C12 LIG X 999      43.388 129.619  24.454  1.00  0.00     0.013 A 
ENDBRANCH   3  10
BRANCH   1  20
HETATM   20  C1  LIG X 999      47.608 124.810  23.540  1.00  0.00     0.164 C 
HETATM   21  N3  LIG X 999      47.664 124.792  22.247  1.00  0.00    -0.143 NA
BRANCH  21  22
HETATM   22  N2  LIG X 999      48.824 124.376  21.588  1.00  0.00    -0.052 NA
HETATM   23  N1  LIG X 999      49.877 125.083  21.649  1.00  0.00    -0.184 NA
HETATM   24  H1  LIG X 999      50.743 124.773  21.157  1.00  0.00     0.214 HD
ENDBRANCH  21  22
ENDBRANCH   1  20
TORSDOF 3
