REMARK VINA RESULT:      -7.7      1.441      2.717
REMARK  2 active torsions:
REMARK  status: ('A' for Active; 'I' for Inactive)
REMARK    1  A    between atoms: C1_1  and  N1_14 
REMARK    2  A    between atoms: C2_2  and  C3_4 
ROOT
HETATM    1  C3  LIG X 999      44.982 131.136  16.544  1.00  0.00     0.003 A 
HETATM    2  C4  LIG X 999      45.898 130.698  17.521  1.00  0.00     0.015 A 
HETATM    3  C5  LIG X 999      45.592 130.799  18.880  1.00  0.00     0.013 A 
HETATM    4  C6  LIG X 999      44.370 131.345  19.292  1.00  0.00    -0.026 A 
HETATM    5  C7  LIG X 999      44.054 131.450  20.655  1.00  0.00     0.012 A 
HETATM    6  C8  LIG X 999      42.833 132.001  21.053  1.00  0.00     0.001 A 
HETATM    7  C9  LIG X 999      41.921 132.453  20.095  1.00  0.00     0.001 A 
HETATM    8  C10 LIG X 999      42.224 132.355  18.734  1.00  0.00     0.012 A 
HETATM    9  C11 LIG X 999      43.447 131.802  18.322  1.00  0.00    -0.025 A 
HETATM   10  C12 LIG X 999      43.762 131.699  16.958  1.00  0.00     0.026 A 
ENDROOT
BRANCH   1  11
HETATM   11  C2  LIG X 999      45.288 131.052  15.093  1.00  0.00     0.132 C 
HETATM   12  C1  LIG X 999      46.547 130.985  14.633  1.00  0.00     0.121 C 
HETATM   13  O1  LIG X 999      44.229 131.020  14.189  1.00  0.00    -0.190 OA
BRANCH  12  14
HETATM   14  N1  LIG X 999      46.832 130.910  13.234  1.00  0.00    -0.406 N 
HETATM   15  H9  LIG X 999      47.756 131.194  12.841  1.00  0.00     0.155 HD
HETATM   16  H10 LIG X 999      46.100 130.558  12.579  1.00  0.00     0.155 HD
ENDBRANCH  12  14
ENDBRANCH   1  11
TORSDOF 2
