REMARK VINA RESULT:      -5.9      2.384      3.077
REMARK  6 active torsions:
REMARK  status: ('A' for Active; 'I' for Inactive)
REMARK    1  A    between atoms: O1_2  and  C2_3 
REMARK    2  A    between atoms: C2_3  and  C3_5 
REMARK    3  A    between atoms: C6_9  and  N1_10 
REMARK    4  A    between atoms: N1_10  and  C7_11 
REMARK    5  A    between atoms: C7_11  and  N2_13 
REMARK    6  A    between atoms: N2_13  and  C8_14 
ROOT
HETATM    1  C7  LIG X 999      45.196 130.874  19.776  1.00  0.00     0.278 C 
HETATM    2  S2  LIG X 999      46.353 129.751  20.092  1.00  0.00    -0.033 SA
ENDROOT
BRANCH   1   3
HETATM    3  N1  LIG X 999      45.119 132.047  20.608  1.00  0.00     0.012 N 
HETATM    4  H6  LIG X 999      44.791 132.846  20.017  1.00  0.00     0.293 HD
HETATM    5  H7  LIG X 999      46.059 132.298  20.989  1.00  0.00     0.293 HD
BRANCH   3   6
HETATM    6  C6  LIG X 999      44.208 131.830  21.705  1.00  0.00     0.164 A 
HETATM    7  C3  LIG X 999      42.843 132.159  21.688  1.00  0.00     0.114 A 
HETATM    8  S1  LIG X 999      42.208 131.785  23.202  1.00  0.00    -0.094 SA
HETATM    9  C4  LIG X 999      43.628 131.209  23.886  1.00  0.00     0.053 A 
HETATM   10  C5  LIG X 999      44.635 131.304  22.937  1.00  0.00     0.046 A 
BRANCH   7  11
HETATM   11  C2  LIG X 999      42.054 132.750  20.592  1.00  0.00     0.302 C 
HETATM   12  O2  LIG X 999      40.995 133.380  20.863  1.00  0.00    -0.259 OA
BRANCH  11  13
HETATM   13  O1  LIG X 999      42.467 132.619  19.264  1.00  0.00    -0.322 OA
HETATM   14  C1  LIG X 999      41.586 132.228  18.219  1.00  0.00     0.213 C 
ENDBRANCH  11  13
ENDBRANCH   7  11
ENDBRANCH   3   6
ENDBRANCH   1   3
BRANCH   1  15
HETATM   15  N2  LIG X 999      44.543 130.864  18.496  1.00  0.00    -0.327 N 
HETATM   16  H8  LIG X 999      43.516 130.675  18.473  1.00  0.00     0.168 HD
BRANCH  15  17
HETATM   17  C8  LIG X 999      45.233 131.043  17.247  1.00  0.00     0.035 A 
HETATM   18  C9  LIG X 999      45.274 132.295  16.607  1.00  0.00     0.030 A 
HETATM   19  C10 LIG X 999      45.972 132.458  15.408  1.00  0.00     0.014 A 
HETATM   20  C11 LIG X 999      46.652 131.374  14.835  1.00  0.00    -0.026 A 
HETATM   21  C12 LIG X 999      47.357 131.527  13.631  1.00  0.00     0.012 A 
HETATM   22  C16 LIG X 999      46.634 130.115  15.481  1.00  0.00    -0.024 A 
HETATM   23  C13 LIG X 999      48.036 130.440  13.073  1.00  0.00     0.001 A 
HETATM   24  C14 LIG X 999      48.018 129.198  13.712  1.00  0.00     0.001 A 
HETATM   25  C15 LIG X 999      47.321 129.033  14.911  1.00  0.00     0.012 A 
HETATM   26  C17 LIG X 999      45.930 129.963  16.685  1.00  0.00     0.041 A 
ENDBRANCH  15  17
ENDBRANCH   1  15
TORSDOF 6
