MODEL 1
REMARK VINA RESULT:      -8.1      0.000      0.000
REMARK  1 active torsions:
REMARK  status: ('A' for Active; 'I' for Inactive)
REMARK    1  A    between atoms: C2_2  and  N1_3 
ROOT
HETATM    1  N1  LIG X 999      46.492 130.915  13.565  1.00  0.00    -0.073 NA
HETATM    2  N2  LIG X 999      47.491 130.195  13.538  1.00  0.00    -0.162 NA
HETATM    3  N3  LIG X 999      48.491 129.478  13.510  1.00  0.00     0.068 N 
ENDROOT
BRANCH   1   4
HETATM    4  C2  LIG X 999      45.711 131.099  14.754  1.00  0.00     0.094 A 
HETATM    5  C1  LIG X 999      44.420 131.629  14.635  1.00  0.00     0.035 A 
HETATM    6  C10 LIG X 999      43.623 131.826  15.766  1.00  0.00     0.014 A 
HETATM    7  C9  LIG X 999      44.109 131.496  17.038  1.00  0.00    -0.025 A 
HETATM    8  C4  LIG X 999      45.421 130.958  17.170  1.00  0.00    -0.023 A 
HETATM    9  C8  LIG X 999      43.312 131.690  18.183  1.00  0.00     0.021 A 
HETATM   10  C3  LIG X 999      46.210 130.763  16.027  1.00  0.00     0.046 A 
HETATM   11  C5  LIG X 999      45.913 130.622  18.447  1.00  0.00     0.021 A 
HETATM   12  C6  LIG X 999      45.095 130.835  19.557  1.00  0.00    -0.024 A 
HETATM   13  C7  LIG X 999      43.840 131.350  19.430  1.00  0.00    -0.024 A 
HETATM   14  C14 LIG X 999      45.392 130.539  20.975  1.00  0.00     0.276 C 
HETATM   15  C11 LIG X 999      43.181 131.446  20.750  1.00  0.00     0.276 C 
HETATM   16  N4  LIG X 999      44.232 131.080  21.752  1.00  0.00    -0.067 N 
HETATM   17  C12 LIG X 999      44.650 132.283  22.512  1.00  0.00     0.272 C 
HETATM   18  C13 LIG X 999      43.720 130.065  22.701  1.00  0.00     0.272 C 
ENDBRANCH   1   4
TORSDOF 1
ENDMDL
MODEL 2
REMARK VINA RESULT:      -8.0      1.405      2.927
REMARK  1 active torsions:
REMARK  status: ('A' for Active; 'I' for Inactive)
REMARK    1  A    between atoms: C2_2  and  N1_3 
ROOT
HETATM    1  N1  LIG X 999      44.332 131.548  15.151  1.00  0.00    -0.073 NA
HETATM    2  N2  LIG X 999      45.184 131.273  14.304  1.00  0.00    -0.162 NA
HETATM    3  N3  LIG X 999      46.034 131.000  13.457  1.00  0.00     0.068 N 
ENDROOT
BRANCH   1   4
HETATM    4  C2  LIG X 999      44.557 131.358  16.555  1.00  0.00     0.094 A 
HETATM    5  C1  LIG X 999      45.756 130.765  16.969  1.00  0.00     0.035 A 
HETATM    6  C10 LIG X 999      46.019 130.560  18.327  1.00  0.00     0.014 A 
HETATM    7  C9  LIG X 999      45.080 130.945  19.293  1.00  0.00    -0.025 A 
HETATM    8  C4  LIG X 999      43.857 131.549  18.882  1.00  0.00    -0.023 A 
HETATM    9  C8  LIG X 999      45.337 130.744  20.663  1.00  0.00     0.021 A 
HETATM   10  C3  LIG X 999      43.606 131.750  17.517  1.00  0.00     0.046 A 
HETATM   11  C5  LIG X 999      42.912 131.941  19.850  1.00  0.00     0.021 A 
HETATM   12  C6  LIG X 999      43.201 131.718  21.197  1.00  0.00    -0.024 A 
HETATM   13  C7  LIG X 999      44.371 131.141  21.589  1.00  0.00    -0.024 A 
HETATM   14  C14 LIG X 999      42.375 132.065  22.373  1.00  0.00     0.276 C 
HETATM   15  C11 LIG X 999      44.436 131.048  23.064  1.00  0.00     0.276 C 
HETATM   16  N4  LIG X 999      43.093 131.490  23.555  1.00  0.00    -0.067 N 
HETATM   17  C12 LIG X 999      42.340 130.329  24.088  1.00  0.00     0.272 C 
HETATM   18  C13 LIG X 999      43.234 132.504  24.625  1.00  0.00     0.272 C 
ENDBRANCH   1   4
TORSDOF 1
ENDMDL
MODEL 3
REMARK VINA RESULT:      -7.9      1.444      6.654
REMARK  1 active torsions:
REMARK  status: ('A' for Active; 'I' for Inactive)
REMARK    1  A    between atoms: C2_2  and  N1_3 
ROOT
HETATM    1  N1  LIG X 999      43.853 131.263  23.561  1.00  0.00    -0.073 NA
HETATM    2  N2  LIG X 999      44.130 130.186  24.091  1.00  0.00    -0.162 NA
HETATM    3  N3  LIG X 999      44.406 129.111  24.623  1.00  0.00     0.068 N 
ENDROOT
BRANCH   1   4
HETATM    4  C2  LIG X 999      43.779 131.420  22.137  1.00  0.00     0.094 A 
HETATM    5  C1  LIG X 999      42.676 132.086  21.590  1.00  0.00     0.035 A 
HETATM    6  C10 LIG X 999      42.561 132.263  20.208  1.00  0.00     0.014 A 
HETATM    7  C9  LIG X 999      43.554 131.773  19.351  1.00  0.00    -0.025 A 
HETATM    8  C4  LIG X 999      44.681 131.093  19.896  1.00  0.00    -0.023 A 
HETATM    9  C8  LIG X 999      43.448 131.948  17.957  1.00  0.00     0.021 A 
HETATM   10  C3  LIG X 999      44.784 130.923  21.284  1.00  0.00     0.046 A 
HETATM   11  C5  LIG X 999      45.683 130.601  19.037  1.00  0.00     0.021 A 
HETATM   12  C6  LIG X 999      45.537 130.789  17.662  1.00  0.00    -0.024 A 
HETATM   13  C7  LIG X 999      44.459 131.439  17.141  1.00  0.00    -0.024 A 
HETATM   14  C14 LIG X 999      46.466 130.381  16.586  1.00  0.00     0.276 C 
HETATM   15  C11 LIG X 999      44.567 131.526  15.668  1.00  0.00     0.276 C 
HETATM   16  N4  LIG X 999      45.767 130.708  15.302  1.00  0.00    -0.067 N 
HETATM   17  C12 LIG X 999      45.342 129.460  14.625  1.00  0.00     0.272 C 
HETATM   18  C13 LIG X 999      46.661 131.466  14.399  1.00  0.00     0.272 C 
ENDBRANCH   1   4
TORSDOF 1
ENDMDL
MODEL 4
REMARK VINA RESULT:      -7.7      1.257      1.940
REMARK  1 active torsions:
REMARK  status: ('A' for Active; 'I' for Inactive)
REMARK    1  A    between atoms: C2_2  and  N1_3 
ROOT
HETATM    1  N1  LIG X 999      46.766 130.220  15.722  1.00  0.00    -0.073 NA
HETATM    2  N2  LIG X 999      46.651 130.628  14.565  1.00  0.00    -0.162 NA
HETATM    3  N3  LIG X 999      46.537 131.034  13.409  1.00  0.00     0.068 N 
ENDROOT
BRANCH   1   4
HETATM    4  C2  LIG X 999      45.882 130.634  16.773  1.00  0.00     0.094 A 
HETATM    5  C1  LIG X 999      44.767 131.414  16.445  1.00  0.00     0.035 A 
HETATM    6  C10 LIG X 999      43.877 131.840  17.436  1.00  0.00     0.014 A 
HETATM    7  C9  LIG X 999      44.094 131.490  18.775  1.00  0.00    -0.025 A 
HETATM    8  C4  LIG X 999      45.225 130.697  19.120  1.00  0.00    -0.023 A 
HETATM    9  C8  LIG X 999      43.202 131.913  19.779  1.00  0.00     0.021 A 
HETATM   10  C3  LIG X 999      46.109 130.275  18.116  1.00  0.00     0.046 A 
HETATM   11  C5  LIG X 999      45.445 130.340  20.465  1.00  0.00     0.021 A 
HETATM   12  C6  LIG X 999      44.542 130.785  21.431  1.00  0.00    -0.024 A 
HETATM   13  C7  LIG X 999      43.459 131.544  21.101  1.00  0.00    -0.024 A 
HETATM   14  C14 LIG X 999      44.561 130.516  22.885  1.00  0.00     0.276 C 
HETATM   15  C11 LIG X 999      42.655 131.853  22.303  1.00  0.00     0.276 C 
HETATM   16  N4  LIG X 999      43.447 131.333  23.463  1.00  0.00    -0.067 N 
HETATM   17  C12 LIG X 999      44.002 132.463  24.245  1.00  0.00     0.272 C 
HETATM   18  C13 LIG X 999      42.597 130.506  24.348  1.00  0.00     0.272 C 
ENDBRANCH   1   4
TORSDOF 1
ENDMDL
MODEL 5
REMARK VINA RESULT:      -6.0      1.431      6.982
REMARK  1 active torsions:
REMARK  status: ('A' for Active; 'I' for Inactive)
REMARK    1  A    between atoms: C2_2  and  N1_3 
ROOT
HETATM    1  N1  LIG X 999      42.671 132.062  22.669  1.00  0.00    -0.073 NA
HETATM    2  N2  LIG X 999      42.399 131.363  23.647  1.00  0.00    -0.162 NA
HETATM    3  N3  LIG X 999      42.126 130.667  24.624  1.00  0.00     0.068 N 
ENDROOT
BRANCH   1   4
HETATM    4  C2  LIG X 999      43.526 131.603  21.613  1.00  0.00     0.094 A 
HETATM    5  C1  LIG X 999      44.614 130.783  21.937  1.00  0.00     0.035 A 
HETATM    6  C10 LIG X 999      45.474 130.311  20.941  1.00  0.00     0.014 A 
HETATM    7  C9  LIG X 999      45.257 130.657  19.601  1.00  0.00    -0.025 A 
HETATM    8  C4  LIG X 999      44.154 131.491  19.260  1.00  0.00    -0.023 A 
HETATM    9  C8  LIG X 999      46.117 130.185  18.590  1.00  0.00     0.021 A 
HETATM   10  C3  LIG X 999      43.298 131.956  20.269  1.00  0.00     0.046 A 
HETATM   11  C5  LIG X 999      43.931 131.839  17.913  1.00  0.00     0.021 A 
HETATM   12  C6  LIG X 999      44.810 131.356  16.942  1.00  0.00    -0.024 A 
HETATM   13  C7  LIG X 999      45.865 130.559  17.269  1.00  0.00    -0.024 A 
HETATM   14  C14 LIG X 999      44.757 131.572  15.481  1.00  0.00     0.276 C 
HETATM   15  C11 LIG X 999      46.615 130.167  16.057  1.00  0.00     0.276 C 
HETATM   16  N4  LIG X 999      46.003 130.947  14.934  1.00  0.00    -0.067 N 
HETATM   17  C12 LIG X 999      46.940 132.001  14.478  1.00  0.00     0.272 C 
HETATM   18  C13 LIG X 999      45.684 130.059  13.793  1.00  0.00     0.272 C 
ENDBRANCH   1   4
TORSDOF 1
ENDMDL
