REMARK VINA RESULT:      -8.2      0.000      0.000
REMARK  5 active torsions:
REMARK  status: ('A' for Active; 'I' for Inactive)
REMARK    1  A    between atoms: N1_1  and  C1_2 
REMARK    2  A    between atoms: C1_2  and  C2_3 
REMARK    3  A    between atoms: C2_3  and  C3_4 
REMARK    4  A    between atoms: C3_4  and  O1_5 
REMARK    5  A    between atoms: O1_5  and  C4_6 
ROOT
HETATM    1  C4  LIG X 999      45.237 131.415  17.254  1.00  0.00     0.069 A 
HETATM    2  C5  LIG X 999      45.566 130.070  17.511  1.00  0.00     0.037 A 
HETATM    3  C6  LIG X 999      46.323 129.338  16.592  1.00  0.00     0.015 A 
HETATM    4  C7  LIG X 999      46.765 129.936  15.405  1.00  0.00    -0.026 A 
HETATM    5  C8  LIG X 999      47.526 129.210  14.476  1.00  0.00     0.012 A 
HETATM    6  C9  LIG X 999      47.961 129.820  13.295  1.00  0.00     0.001 A 
HETATM    7  C10 LIG X 999      47.638 131.154  13.033  1.00  0.00     0.001 A 
HETATM    8  C11 LIG X 999      46.881 131.888  13.949  1.00  0.00     0.012 A 
HETATM    9  C12 LIG X 999      46.438 131.288  15.139  1.00  0.00    -0.023 A 
HETATM   10  C13 LIG X 999      45.678 132.015  16.067  1.00  0.00     0.049 A 
ENDROOT
BRANCH   1  11
HETATM   11  O1  LIG X 999      44.480 132.187  18.146  1.00  0.00    -0.351 OA
BRANCH  11  12
HETATM   12  C3  LIG X 999      44.527 132.059  19.566  1.00  0.00     0.177 C 
BRANCH  12  13
HETATM   13  C2  LIG X 999      43.146 131.681  20.106  1.00  0.00     0.056 C 
BRANCH  13  14
HETATM   14  C1  LIG X 999      42.081 132.755  19.850  1.00  0.00     0.269 C 
BRANCH  14  15
HETATM   15  N1  LIG X 999      41.636 132.731  18.459  1.00  0.00     0.078 N 
HETATM   16  H1  LIG X 999      42.159 131.975  17.959  1.00  0.00     0.312 HD
HETATM   17  H2  LIG X 999      40.632 132.441  18.450  1.00  0.00     0.312 HD
ENDBRANCH  14  15
ENDBRANCH  13  14
ENDBRANCH  12  13
ENDBRANCH  11  12
ENDBRANCH   1  11
TORSDOF 5
