MODEL 1
REMARK VINA RESULT:      -7.7      0.000      0.000
REMARK  3 active torsions:
REMARK  status: ('A' for Active; 'I' for Inactive)
REMARK    1  A    between atoms: C3_3  and  O1_4 
REMARK    2  A    between atoms: O1_4  and  C4_5 
REMARK    3  A    between atoms: C5_6  and  C6_7 
ROOT
HETATM    1  C1  LIG X 999      47.514 130.063  13.765  1.00  0.00     0.014 C 
HETATM    2  C2  LIG X 999      47.017 129.898  14.850  1.00  0.00    -0.091 C 
HETATM    3  C3  LIG X 999      46.412 129.698  16.168  1.00  0.00     0.268 C 
ENDROOT
BRANCH   3   4
HETATM    4  O1  LIG X 999      46.193 130.963  16.780  1.00  0.00    -0.338 OA
BRANCH   4   5
HETATM    5  C4  LIG X 999      44.954 131.295  17.336  1.00  0.00     0.094 A 
HETATM    6  C5  LIG X 999      43.876 131.646  16.495  1.00  0.00     0.036 A 
HETATM    7  C7  LIG X 999      42.641 131.997  17.066  1.00  0.00     0.018 A 
HETATM    8  C8  LIG X 999      42.468 131.992  18.450  1.00  0.00     0.013 A 
HETATM    9  C9  LIG X 999      43.525 131.629  19.293  1.00  0.00    -0.023 A 
HETATM   10  C10 LIG X 999      43.348 131.615  20.686  1.00  0.00     0.012 A 
HETATM   11  C14 LIG X 999      44.779 131.272  18.737  1.00  0.00     0.009 A 
HETATM   12  C11 LIG X 999      44.401 131.245  21.524  1.00  0.00     0.001 A 
HETATM   13  C12 LIG X 999      45.637 130.886  20.982  1.00  0.00     0.001 A 
HETATM   14  C13 LIG X 999      45.828 130.897  19.598  1.00  0.00     0.015 A 
BRANCH   6  15
HETATM   15  C6  LIG X 999      44.040 131.638  15.026  1.00  0.00     0.272 C 
HETATM   16  O2  LIG X 999      43.040 131.673  14.260  1.00  0.00    -0.301 OA
ENDBRANCH   6  15
ENDBRANCH   4   5
ENDBRANCH   3   4
TORSDOF 3
ENDMDL
MODEL 2
REMARK VINA RESULT:      -7.0      1.471      5.001
REMARK  3 active torsions:
REMARK  status: ('A' for Active; 'I' for Inactive)
REMARK    1  A    between atoms: C3_3  and  O1_4 
REMARK    2  A    between atoms: O1_4  and  C4_5 
REMARK    3  A    between atoms: C5_6  and  C6_7 
ROOT
HETATM    1  C1  LIG X 999      44.964 130.336  21.579  1.00  0.00     0.014 C 
HETATM    2  C2  LIG X 999      45.468 130.628  20.524  1.00  0.00    -0.091 C 
HETATM    3  C3  LIG X 999      46.079 130.982  19.243  1.00  0.00     0.268 C 
ENDROOT
BRANCH   3   4
HETATM    4  O1  LIG X 999      45.541 130.152  18.221  1.00  0.00    -0.338 OA
BRANCH   4   5
HETATM    5  C4  LIG X 999      45.093 130.690  17.010  1.00  0.00     0.094 A 
HETATM    6  C5  LIG X 999      43.882 131.414  16.968  1.00  0.00     0.036 A 
HETATM    7  C7  LIG X 999      43.431 131.933  15.742  1.00  0.00     0.018 A 
HETATM    8  C8  LIG X 999      44.170 131.748  14.574  1.00  0.00     0.013 A 
HETATM    9  C9  LIG X 999      45.381 131.046  14.608  1.00  0.00    -0.023 A 
HETATM   10  C10 LIG X 999      46.130 130.868  13.434  1.00  0.00     0.012 A 
HETATM   11  C14 LIG X 999      45.853 130.515  15.834  1.00  0.00     0.009 A 
HETATM   12  C11 LIG X 999      47.341 130.174  13.471  1.00  0.00     0.001 A 
HETATM   13  C12 LIG X 999      47.814 129.654  14.677  1.00  0.00     0.001 A 
HETATM   14  C13 LIG X 999      47.079 129.821  15.853  1.00  0.00     0.015 A 
BRANCH   6  15
HETATM   15  C6  LIG X 999      43.097 131.634  18.201  1.00  0.00     0.272 C 
HETATM   16  O2  LIG X 999      42.012 132.274  18.176  1.00  0.00    -0.301 OA
ENDBRANCH   6  15
ENDBRANCH   4   5
ENDBRANCH   3   4
TORSDOF 3
ENDMDL
MODEL 3
REMARK VINA RESULT:      -6.1      3.335      5.789
REMARK  3 active torsions:
REMARK  status: ('A' for Active; 'I' for Inactive)
REMARK    1  A    between atoms: C3_3  and  O1_4 
REMARK    2  A    between atoms: O1_4  and  C4_5 
REMARK    3  A    between atoms: C5_6  and  C6_7 
ROOT
HETATM    1  C1  LIG X 999      45.591 126.909  22.197  1.00  0.00     0.014 C 
HETATM    2  C2  LIG X 999      44.978 127.839  22.656  1.00  0.00    -0.091 C 
HETATM    3  C3  LIG X 999      44.233 128.969  23.213  1.00  0.00     0.268 C 
ENDROOT
BRANCH   3   4
HETATM    4  O1  LIG X 999      44.758 130.182  22.686  1.00  0.00    -0.338 OA
BRANCH   4   5
HETATM    5  C4  LIG X 999      44.024 130.958  21.783  1.00  0.00     0.094 A 
HETATM    6  C5  LIG X 999      42.901 131.685  22.232  1.00  0.00     0.036 A 
HETATM    7  C7  LIG X 999      42.159 132.446  21.312  1.00  0.00     0.018 A 
HETATM    8  C8  LIG X 999      42.528 132.497  19.968  1.00  0.00     0.013 A 
HETATM    9  C9  LIG X 999      43.650 131.792  19.515  1.00  0.00    -0.023 A 
HETATM   10  C10 LIG X 999      44.026 131.851  18.164  1.00  0.00     0.012 A 
HETATM   11  C14 LIG X 999      44.411 131.019  20.427  1.00  0.00     0.009 A 
HETATM   12  C11 LIG X 999      45.150 131.154  17.717  1.00  0.00     0.001 A 
HETATM   13  C12 LIG X 999      45.907 130.395  18.612  1.00  0.00     0.001 A 
HETATM   14  C13 LIG X 999      45.544 130.326  19.959  1.00  0.00     0.015 A 
BRANCH   6  15
HETATM   15  C6  LIG X 999      42.509 131.656  23.657  1.00  0.00     0.272 C 
HETATM   16  O2  LIG X 999      43.108 132.364  24.511  1.00  0.00    -0.301 OA
ENDBRANCH   6  15
ENDBRANCH   4   5
ENDBRANCH   3   4
TORSDOF 3
ENDMDL
MODEL 4
REMARK VINA RESULT:      -5.6      1.936      5.741
REMARK  3 active torsions:
REMARK  status: ('A' for Active; 'I' for Inactive)
REMARK    1  A    between atoms: C3_3  and  O1_4 
REMARK    2  A    between atoms: O1_4  and  C4_5 
REMARK    3  A    between atoms: C5_6  and  C6_7 
ROOT
HETATM    1  C1  LIG X 999      41.257 133.297  20.876  1.00  0.00     0.014 C 
HETATM    2  C2  LIG X 999      41.576 132.709  19.873  1.00  0.00    -0.091 C 
HETATM    3  C3  LIG X 999      41.964 131.994  18.657  1.00  0.00     0.268 C 
ENDROOT
BRANCH   3   4
HETATM    4  O1  LIG X 999      43.219 132.485  18.204  1.00  0.00    -0.338 OA
BRANCH   4   5
HETATM    5  C4  LIG X 999      44.293 131.622  17.967  1.00  0.00     0.094 A 
HETATM    6  C5  LIG X 999      45.030 131.100  19.052  1.00  0.00     0.036 A 
HETATM    7  C7  LIG X 999      46.120 130.249  18.801  1.00  0.00     0.018 A 
HETATM    8  C8  LIG X 999      46.472 129.909  17.495  1.00  0.00     0.013 A 
HETATM    9  C9  LIG X 999      45.739 130.408  16.412  1.00  0.00    -0.023 A 
HETATM   10  C10 LIG X 999      46.088 130.057  15.098  1.00  0.00     0.012 A 
HETATM   11  C14 LIG X 999      44.636 131.267  16.644  1.00  0.00     0.009 A 
HETATM   12  C11 LIG X 999      45.349 130.548  14.020  1.00  0.00     0.001 A 
HETATM   13  C12 LIG X 999      44.259 131.391  14.243  1.00  0.00     0.001 A 
HETATM   14  C13 LIG X 999      43.900 131.749  15.544  1.00  0.00     0.015 A 
BRANCH   6  15
HETATM   15  C6  LIG X 999      44.656 131.438  20.442  1.00  0.00     0.272 C 
HETATM   16  O2  LIG X 999      44.867 130.631  21.386  1.00  0.00    -0.301 OA
ENDBRANCH   6  15
ENDBRANCH   4   5
ENDBRANCH   3   4
TORSDOF 3
ENDMDL
MODEL 5
REMARK VINA RESULT:      -5.5      1.611      3.273
REMARK  3 active torsions:
REMARK  status: ('A' for Active; 'I' for Inactive)
REMARK    1  A    between atoms: C3_3  and  O1_4 
REMARK    2  A    between atoms: O1_4  and  C4_5 
REMARK    3  A    between atoms: C5_6  and  C6_7 
ROOT
HETATM    1  C1  LIG X 999      44.777 131.324  14.174  1.00  0.00     0.014 C 
HETATM    2  C2  LIG X 999      44.137 131.354  15.194  1.00  0.00    -0.091 C 
HETATM    3  C3  LIG X 999      43.358 131.391  16.433  1.00  0.00     0.268 C 
ENDROOT
BRANCH   3   4
HETATM    4  O1  LIG X 999      44.073 132.132  17.414  1.00  0.00    -0.338 OA
BRANCH   4   5
HETATM    5  C4  LIG X 999      44.426 131.561  18.640  1.00  0.00     0.094 A 
HETATM    6  C5  LIG X 999      45.566 130.732  18.729  1.00  0.00     0.036 A 
HETATM    7  C7  LIG X 999      45.899 130.147  19.962  1.00  0.00     0.018 A 
HETATM    8  C8  LIG X 999      45.125 130.385  21.097  1.00  0.00     0.013 A 
HETATM    9  C9  LIG X 999      44.002 131.218  21.024  1.00  0.00    -0.023 A 
HETATM   10  C10 LIG X 999      43.228 131.466  22.169  1.00  0.00     0.012 A 
HETATM   11  C14 LIG X 999      43.648 131.818  19.790  1.00  0.00     0.009 A 
HETATM   12  C11 LIG X 999      42.114 132.304  22.097  1.00  0.00     0.001 A 
HETATM   13  C12 LIG X 999      41.764 132.902  20.884  1.00  0.00     0.001 A 
HETATM   14  C13 LIG X 999      42.524 132.664  19.737  1.00  0.00     0.015 A 
BRANCH   6  15
HETATM   15  C6  LIG X 999      46.407 130.486  17.538  1.00  0.00     0.272 C 
HETATM   16  O2  LIG X 999      46.253 129.451  16.836  1.00  0.00    -0.301 OA
ENDBRANCH   6  15
ENDBRANCH   4   5
ENDBRANCH   3   4
TORSDOF 3
ENDMDL
MODEL 6
REMARK VINA RESULT:      -5.3      2.405      5.131
REMARK  3 active torsions:
REMARK  status: ('A' for Active; 'I' for Inactive)
REMARK    1  A    between atoms: C3_3  and  O1_4 
REMARK    2  A    between atoms: O1_4  and  C4_5 
REMARK    3  A    between atoms: C5_6  and  C6_7 
ROOT
HETATM    1  C1  LIG X 999      44.713 128.560  22.853  1.00  0.00     0.014 C 
HETATM    2  C2  LIG X 999      44.519 129.698  22.508  1.00  0.00    -0.091 C 
HETATM    3  C3  LIG X 999      44.282 131.080  22.089  1.00  0.00     0.268 C 
ENDROOT
BRANCH   3   4
HETATM    4  O1  LIG X 999      44.836 131.278  20.794  1.00  0.00    -0.338 OA
BRANCH   4   5
HETATM    5  C4  LIG X 999      44.022 131.553  19.691  1.00  0.00     0.094 A 
HETATM    6  C5  LIG X 999      42.748 132.131  19.882  1.00  0.00     0.036 A 
HETATM    7  C7  LIG X 999      41.931 132.383  18.768  1.00  0.00     0.018 A 
HETATM    8  C8  LIG X 999      42.368 132.079  17.479  1.00  0.00     0.013 A 
HETATM    9  C9  LIG X 999      43.636 131.521  17.276  1.00  0.00    -0.023 A 
HETATM   10  C10 LIG X 999      44.080 131.224  15.977  1.00  0.00     0.012 A 
HETATM   11  C14 LIG X 999      44.476 131.258  18.387  1.00  0.00     0.009 A 
HETATM   12  C11 LIG X 999      45.347 130.675  15.777  1.00  0.00     0.001 A 
HETATM   13  C12 LIG X 999      46.182 130.419  16.867  1.00  0.00     0.001 A 
HETATM   14  C13 LIG X 999      45.753 130.709  18.165  1.00  0.00     0.015 A 
BRANCH   6  15
HETATM   15  C6  LIG X 999      42.279 132.475  21.241  1.00  0.00     0.272 C 
HETATM   16  O2  LIG X 999      41.249 133.180  21.414  1.00  0.00    -0.301 OA
ENDBRANCH   6  15
ENDBRANCH   4   5
ENDBRANCH   3   4
TORSDOF 3
ENDMDL
