MODEL 1
REMARK VINA RESULT:      -8.5      0.000      0.000
REMARK  4 active torsions:
REMARK  status: ('A' for Active; 'I' for Inactive)
REMARK       I    between atoms: N1_1  and  C1_2 
REMARK    1  A    between atoms: C1_2  and  C2_4 
REMARK    2  A    between atoms: C11_13  and  O2_14 
REMARK    3  A    between atoms: O2_14  and  C12_15 
REMARK    4  A    between atoms: C12_15  and  C13_17 
ROOT
HETATM    1  C2  LIG X 999      43.401 131.770  18.159  1.00  0.00     0.068 A 
HETATM    2  C3  LIG X 999      43.292 131.668  16.758  1.00  0.00     0.032 A 
HETATM    3  C4  LIG X 999      44.399 131.328  15.971  1.00  0.00    -0.025 A 
HETATM    4  C5  LIG X 999      44.283 131.229  14.574  1.00  0.00     0.012 A 
HETATM    5  C6  LIG X 999      45.391 130.880  13.799  1.00  0.00     0.001 A 
HETATM    6  C7  LIG X 999      46.622 130.624  14.409  1.00  0.00     0.001 A 
HETATM    7  C8  LIG X 999      46.750 130.719  15.797  1.00  0.00     0.012 A 
HETATM    8  C9  LIG X 999      45.644 131.072  16.586  1.00  0.00    -0.023 A 
HETATM    9  C10 LIG X 999      45.761 131.168  17.978  1.00  0.00     0.050 A 
HETATM   10  C11 LIG X 999      44.656 131.530  18.771  1.00  0.00     0.096 A 
ENDROOT
BRANCH  10  11
HETATM   11  O2  LIG X 999      44.775 131.601  20.168  1.00  0.00    -0.274 OA
BRANCH  11  12
HETATM   12  C12 LIG X 999      44.958 130.506  21.025  1.00  0.00     0.298 C 
HETATM   13  O3  LIG X 999      45.833 129.634  20.769  1.00  0.00    -0.259 OA
BRANCH  12  14
HETATM   14  C13 LIG X 999      44.158 130.409  22.266  1.00  0.00     0.039 A 
HETATM   15  C14 LIG X 999      43.341 131.482  22.669  1.00  0.00     0.017 A 
HETATM   16  C15 LIG X 999      42.584 131.393  23.842  1.00  0.00     0.001 A 
HETATM   17  C16 LIG X 999      42.634 130.236  24.623  1.00  0.00     0.000 A 
HETATM   18  C17 LIG X 999      43.440 129.165  24.232  1.00  0.00     0.001 A 
HETATM   19  C18 LIG X 999      44.199 129.248  23.060  1.00  0.00     0.017 A 
ENDBRANCH  12  14
ENDBRANCH  11  12
ENDBRANCH  10  11
BRANCH   1  20
HETATM   20  C1  LIG X 999      42.194 132.138  18.950  1.00  0.00     0.273 C 
HETATM   21  N1  LIG X 999      42.133 133.359  19.684  1.00  0.00    -0.263 NA
HETATM   22  H1  LIG X 999      41.283 133.614  20.236  1.00  0.00     0.190 HD
HETATM   23  O1  LIG X 999      41.195 131.369  18.973  1.00  0.00    -0.266 OA
ENDBRANCH   1  20
TORSDOF 4
ENDMDL
MODEL 2
REMARK VINA RESULT:      -8.0      2.257      7.183
REMARK  4 active torsions:
REMARK  status: ('A' for Active; 'I' for Inactive)
REMARK       I    between atoms: N1_1  and  C1_2 
REMARK    1  A    between atoms: C1_2  and  C2_4 
REMARK    2  A    between atoms: C11_13  and  O2_14 
REMARK    3  A    between atoms: O2_14  and  C12_15 
REMARK    4  A    between atoms: C12_15  and  C13_17 
ROOT
HETATM    1  C2  LIG X 999      44.544 131.502  17.910  1.00  0.00     0.068 A 
HETATM    2  C3  LIG X 999      43.665 131.971  18.906  1.00  0.00     0.032 A 
HETATM    3  C4  LIG X 999      43.779 131.534  20.232  1.00  0.00    -0.025 A 
HETATM    4  C5  LIG X 999      42.898 132.006  21.220  1.00  0.00     0.012 A 
HETATM    5  C6  LIG X 999      43.025 131.571  22.541  1.00  0.00     0.001 A 
HETATM    6  C7  LIG X 999      44.031 130.666  22.888  1.00  0.00     0.001 A 
HETATM    7  C8  LIG X 999      44.913 130.190  21.915  1.00  0.00     0.012 A 
HETATM    8  C9  LIG X 999      44.793 130.617  20.583  1.00  0.00    -0.023 A 
HETATM    9  C10 LIG X 999      45.672 130.147  19.600  1.00  0.00     0.050 A 
HETATM   10  C11 LIG X 999      45.549 130.568  18.263  1.00  0.00     0.096 A 
ENDROOT
BRANCH  10  11
HETATM   11  O2  LIG X 999      46.450 130.111  17.287  1.00  0.00    -0.274 OA
BRANCH  11  12
HETATM   12  C12 LIG X 999      46.095 129.501  16.075  1.00  0.00     0.298 C 
HETATM   13  O3  LIG X 999      45.119 128.703  16.024  1.00  0.00    -0.259 OA
BRANCH  12  14
HETATM   14  C13 LIG X 999      46.834 129.847  14.841  1.00  0.00     0.039 A 
HETATM   15  C14 LIG X 999      47.956 129.093  14.451  1.00  0.00     0.017 A 
HETATM   16  C15 LIG X 999      48.656 129.418  13.284  1.00  0.00     0.001 A 
HETATM   17  C16 LIG X 999      48.244 130.494  12.496  1.00  0.00     0.000 A 
HETATM   18  C17 LIG X 999      47.131 131.249  12.873  1.00  0.00     0.001 A 
HETATM   19  C18 LIG X 999      46.428 130.929  14.038  1.00  0.00     0.017 A 
ENDBRANCH  12  14
ENDBRANCH  11  12
ENDBRANCH  10  11
BRANCH   1  20
HETATM   20  C1  LIG X 999      44.379 131.995  16.514  1.00  0.00     0.273 C 
HETATM   21  N1  LIG X 999      45.382 132.790  15.885  1.00  0.00    -0.263 NA
HETATM   22  H1  LIG X 999      45.263 133.132  14.905  1.00  0.00     0.190 HD
HETATM   23  O1  LIG X 999      43.341 131.704  15.860  1.00  0.00    -0.266 OA
ENDBRANCH   1  20
TORSDOF 4
ENDMDL
MODEL 3
REMARK VINA RESULT:      -7.7      1.661      6.861
REMARK  4 active torsions:
REMARK  status: ('A' for Active; 'I' for Inactive)
REMARK       I    between atoms: N1_1  and  C1_2 
REMARK    1  A    between atoms: C1_2  and  C2_4 
REMARK    2  A    between atoms: C11_13  and  O2_14 
REMARK    3  A    between atoms: O2_14  and  C12_15 
REMARK    4  A    between atoms: C12_15  and  C13_17 
ROOT
HETATM    1  C2  LIG X 999      43.225 131.902  19.163  1.00  0.00     0.068 A 
HETATM    2  C3  LIG X 999      42.448 131.949  20.337  1.00  0.00     0.032 A 
HETATM    3  C4  LIG X 999      43.028 131.733  21.594  1.00  0.00    -0.025 A 
HETATM    4  C5  LIG X 999      42.246 131.780  22.761  1.00  0.00     0.012 A 
HETATM    5  C6  LIG X 999      42.836 131.573  24.010  1.00  0.00     0.001 A 
HETATM    6  C7  LIG X 999      44.206 131.320  24.107  1.00  0.00     0.001 A 
HETATM    7  C8  LIG X 999      44.994 131.271  22.954  1.00  0.00     0.012 A 
HETATM    8  C9  LIG X 999      44.412 131.474  21.692  1.00  0.00    -0.023 A 
HETATM    9  C10 LIG X 999      45.192 131.429  20.531  1.00  0.00     0.050 A 
HETATM   10  C11 LIG X 999      44.611 131.625  19.264  1.00  0.00     0.096 A 
ENDROOT
BRANCH  10  11
HETATM   11  O2  LIG X 999      45.404 131.601  18.105  1.00  0.00    -0.274 OA
BRANCH  11  12
HETATM   12  C12 LIG X 999      45.827 130.446  17.434  1.00  0.00     0.298 C 
HETATM   13  O3  LIG X 999      45.721 129.314  17.981  1.00  0.00    -0.259 OA
BRANCH  12  14
HETATM   14  C13 LIG X 999      46.343 130.553  16.051  1.00  0.00     0.039 A 
HETATM   15  C14 LIG X 999      46.964 129.449  15.437  1.00  0.00     0.017 A 
HETATM   16  C15 LIG X 999      47.453 129.549  14.131  1.00  0.00     0.001 A 
HETATM   17  C16 LIG X 999      47.326 130.747  13.423  1.00  0.00     0.000 A 
HETATM   18  C17 LIG X 999      46.710 131.848  14.022  1.00  0.00     0.001 A 
HETATM   19  C18 LIG X 999      46.220 131.754  15.328  1.00  0.00     0.017 A 
ENDBRANCH  12  14
ENDBRANCH  11  12
ENDBRANCH  10  11
BRANCH   1  20
HETATM   20  C1  LIG X 999      42.560 132.135  17.851  1.00  0.00     0.273 C 
HETATM   21  N1  LIG X 999      41.373 132.920  17.750  1.00  0.00    -0.263 NA
HETATM   22  H1  LIG X 999      40.912 133.083  16.827  1.00  0.00     0.190 HD
HETATM   23  O1  LIG X 999      43.049 131.643  16.798  1.00  0.00    -0.266 OA
ENDBRANCH   1  20
TORSDOF 4
ENDMDL
MODEL 4
REMARK VINA RESULT:      -7.5      2.040      6.685
REMARK  4 active torsions:
REMARK  status: ('A' for Active; 'I' for Inactive)
REMARK       I    between atoms: N1_1  and  C1_2 
REMARK    1  A    between atoms: C1_2  and  C2_4 
REMARK    2  A    between atoms: C11_13  and  O2_14 
REMARK    3  A    between atoms: O2_14  and  C12_15 
REMARK    4  A    between atoms: C12_15  and  C13_17 
ROOT
HETATM    1  C2  LIG X 999      43.813 130.427  23.044  1.00  0.00     0.068 A 
HETATM    2  C3  LIG X 999      43.653 129.301  23.876  1.00  0.00     0.032 A 
HETATM    3  C4  LIG X 999      44.264 128.080  23.563  1.00  0.00    -0.025 A 
HETATM    4  C5  LIG X 999      44.098 126.962  24.397  1.00  0.00     0.012 A 
HETATM    5  C6  LIG X 999      44.720 125.752  24.082  1.00  0.00     0.001 A 
HETATM    6  C7  LIG X 999      45.512 125.647  22.935  1.00  0.00     0.001 A 
HETATM    7  C8  LIG X 999      45.684 126.752  22.098  1.00  0.00     0.012 A 
HETATM    8  C9  LIG X 999      45.062 127.973  22.404  1.00  0.00    -0.023 A 
HETATM    9  C10 LIG X 999      45.229 129.087  21.573  1.00  0.00     0.050 A 
HETATM   10  C11 LIG X 999      44.601 130.310  21.872  1.00  0.00     0.096 A 
ENDROOT
BRANCH  10  11
HETATM   11  O2  LIG X 999      44.793 131.430  21.046  1.00  0.00    -0.274 OA
BRANCH  11  12
HETATM   12  C12 LIG X 999      43.999 131.771  19.941  1.00  0.00     0.298 C 
HETATM   13  O3  LIG X 999      42.950 132.454  20.096  1.00  0.00    -0.259 OA
BRANCH  12  14
HETATM   14  C13 LIG X 999      44.432 131.376  18.583  1.00  0.00     0.039 A 
HETATM   15  C14 LIG X 999      43.650 131.712  17.463  1.00  0.00     0.017 A 
HETATM   16  C15 LIG X 999      44.057 131.340  16.178  1.00  0.00     0.001 A 
HETATM   17  C16 LIG X 999      45.248 130.632  15.996  1.00  0.00     0.000 A 
HETATM   18  C17 LIG X 999      46.033 130.294  17.101  1.00  0.00     0.001 A 
HETATM   19  C18 LIG X 999      45.630 130.663  18.388  1.00  0.00     0.017 A 
ENDBRANCH  12  14
ENDBRANCH  11  12
ENDBRANCH  10  11
BRANCH   1  20
HETATM   20  C1  LIG X 999      43.140 131.701  23.420  1.00  0.00     0.273 C 
HETATM   21  N1  LIG X 999      41.963 132.145  22.746  1.00  0.00    -0.263 NA
HETATM   22  H1  LIG X 999      41.493 133.038  23.015  1.00  0.00     0.190 HD
HETATM   23  O1  LIG X 999      43.602 132.409  24.356  1.00  0.00    -0.266 OA
ENDBRANCH   1  20
TORSDOF 4
ENDMDL
MODEL 5
REMARK VINA RESULT:      -7.5      1.629      6.539
REMARK  4 active torsions:
REMARK  status: ('A' for Active; 'I' for Inactive)
REMARK       I    between atoms: N1_1  and  C1_2 
REMARK    1  A    between atoms: C1_2  and  C2_4 
REMARK    2  A    between atoms: C11_13  and  O2_14 
REMARK    3  A    between atoms: O2_14  and  C12_15 
REMARK    4  A    between atoms: C12_15  and  C13_17 
ROOT
HETATM    1  C2  LIG X 999      43.084 131.795  20.287  1.00  0.00     0.068 A 
HETATM    2  C3  LIG X 999      42.796 131.162  21.513  1.00  0.00     0.032 A 
HETATM    3  C4  LIG X 999      43.629 130.155  22.017  1.00  0.00    -0.025 A 
HETATM    4  C5  LIG X 999      43.335 129.528  23.240  1.00  0.00     0.012 A 
HETATM    5  C6  LIG X 999      44.177 128.532  23.738  1.00  0.00     0.001 A 
HETATM    6  C7  LIG X 999      45.318 128.154  23.026  1.00  0.00     0.001 A 
HETATM    7  C8  LIG X 999      45.621 128.771  21.809  1.00  0.00     0.012 A 
HETATM    8  C9  LIG X 999      44.780 129.772  21.296  1.00  0.00    -0.023 A 
HETATM    9  C10 LIG X 999      45.076 130.397  20.079  1.00  0.00     0.050 A 
HETATM   10  C11 LIG X 999      44.231 131.395  19.558  1.00  0.00     0.096 A 
ENDROOT
BRANCH  10  11
HETATM   11  O2  LIG X 999      44.546 132.034  18.348  1.00  0.00    -0.274 OA
BRANCH  11  12
HETATM   12  C12 LIG X 999      44.187 131.580  17.071  1.00  0.00     0.298 C 
HETATM   13  O3  LIG X 999      42.987 131.639  16.687  1.00  0.00    -0.259 OA
BRANCH  12  14
HETATM   14  C13 LIG X 999      45.235 131.086  16.150  1.00  0.00     0.039 A 
HETATM   15  C14 LIG X 999      45.916 131.981  15.305  1.00  0.00     0.017 A 
HETATM   16  C15 LIG X 999      46.907 131.517  14.434  1.00  0.00     0.001 A 
HETATM   17  C16 LIG X 999      47.230 130.158  14.399  1.00  0.00     0.000 A 
HETATM   18  C17 LIG X 999      46.561 129.261  15.235  1.00  0.00     0.001 A 
HETATM   19  C18 LIG X 999      45.569 129.720  16.107  1.00  0.00     0.017 A 
ENDBRANCH  12  14
ENDBRANCH  11  12
ENDBRANCH  10  11
BRANCH   1  20
HETATM   20  C1  LIG X 999      42.164 132.857  19.793  1.00  0.00     0.273 C 
HETATM   21  N1  LIG X 999      41.708 132.873  18.442  1.00  0.00    -0.263 NA
HETATM   22  H1  LIG X 999      41.061 133.620  18.100  1.00  0.00     0.190 HD
HETATM   23  O1  LIG X 999      41.766 133.763  20.575  1.00  0.00    -0.266 OA
ENDBRANCH   1  20
TORSDOF 4
ENDMDL
MODEL 6
REMARK VINA RESULT:      -7.5      1.364      2.713
REMARK  4 active torsions:
REMARK  status: ('A' for Active; 'I' for Inactive)
REMARK       I    between atoms: N1_1  and  C1_2 
REMARK    1  A    between atoms: C1_2  and  C2_4 
REMARK    2  A    between atoms: C11_13  and  O2_14 
REMARK    3  A    between atoms: O2_14  and  C12_15 
REMARK    4  A    between atoms: C12_15  and  C13_17 
ROOT
HETATM    1  C2  LIG X 999      45.596 130.858  18.858  1.00  0.00     0.068 A 
HETATM    2  C3  LIG X 999      46.333 130.224  17.838  1.00  0.00     0.032 A 
HETATM    3  C4  LIG X 999      46.026 130.437  16.488  1.00  0.00    -0.025 A 
HETATM    4  C5  LIG X 999      46.765 129.800  15.476  1.00  0.00     0.012 A 
HETATM    5  C6  LIG X 999      46.456 130.027  14.133  1.00  0.00     0.001 A 
HETATM    6  C7  LIG X 999      45.413 130.889  13.787  1.00  0.00     0.001 A 
HETATM    7  C8  LIG X 999      44.671 131.528  14.784  1.00  0.00     0.012 A 
HETATM    8  C9  LIG X 999      44.969 131.305  16.138  1.00  0.00    -0.023 A 
HETATM    9  C10 LIG X 999      44.233 131.941  17.145  1.00  0.00     0.050 A 
HETATM   10  C11 LIG X 999      44.525 131.715  18.502  1.00  0.00     0.096 A 
ENDROOT
BRANCH  10  11
HETATM   11  O2  LIG X 999      43.798 132.375  19.506  1.00  0.00    -0.274 OA
BRANCH  11  12
HETATM   12  C12 LIG X 999      42.636 131.888  20.122  1.00  0.00     0.298 C 
HETATM   13  O3  LIG X 999      41.566 131.770  19.463  1.00  0.00    -0.259 OA
BRANCH  12  14
HETATM   14  C13 LIG X 999      42.686 131.454  21.536  1.00  0.00     0.039 A 
HETATM   15  C14 LIG X 999      42.386 132.362  22.568  1.00  0.00     0.017 A 
HETATM   16  C15 LIG X 999      42.433 131.954  23.904  1.00  0.00     0.001 A 
HETATM   17  C16 LIG X 999      42.776 130.639  24.225  1.00  0.00     0.000 A 
HETATM   18  C17 LIG X 999      43.074 129.728  23.209  1.00  0.00     0.001 A 
HETATM   19  C18 LIG X 999      43.029 130.131  21.870  1.00  0.00     0.017 A 
ENDBRANCH  12  14
ENDBRANCH  11  12
ENDBRANCH  10  11
BRANCH   1  20
HETATM   20  C1  LIG X 999      45.960 130.596  20.278  1.00  0.00     0.273 C 
HETATM   21  N1  LIG X 999      46.249 131.664  21.179  1.00  0.00    -0.263 NA
HETATM   22  H1  LIG X 999      46.502 131.475  22.174  1.00  0.00     0.190 HD
HETATM   23  O1  LIG X 999      46.011 129.412  20.709  1.00  0.00    -0.266 OA
ENDBRANCH   1  20
TORSDOF 4
ENDMDL
MODEL 7
REMARK VINA RESULT:      -7.2      3.669      7.837
REMARK  4 active torsions:
REMARK  status: ('A' for Active; 'I' for Inactive)
REMARK       I    between atoms: N1_1  and  C1_2 
REMARK    1  A    between atoms: C1_2  and  C2_4 
REMARK    2  A    between atoms: C11_13  and  O2_14 
REMARK    3  A    between atoms: O2_14  and  C12_15 
REMARK    4  A    between atoms: C12_15  and  C13_17 
ROOT
HETATM    1  C2  LIG X 999      43.471 127.263  23.523  1.00  0.00     0.068 A 
HETATM    2  C3  LIG X 999      42.775 126.045  23.399  1.00  0.00     0.032 A 
HETATM    3  C4  LIG X 999      41.382 125.993  23.537  1.00  0.00    -0.025 A 
HETATM    4  C5  LIG X 999      40.695 124.774  23.413  1.00  0.00     0.012 A 
HETATM    5  C6  LIG X 999      39.304 124.735  23.543  1.00  0.00     0.001 A 
HETATM    6  C7  LIG X 999      38.589 125.908  23.795  1.00  0.00     0.001 A 
HETATM    7  C8  LIG X 999      39.262 127.127  23.920  1.00  0.00     0.012 A 
HETATM    8  C9  LIG X 999      40.659 127.178  23.795  1.00  0.00    -0.023 A 
HETATM    9  C10 LIG X 999      41.342 128.394  23.917  1.00  0.00     0.050 A 
HETATM   10  C11 LIG X 999      42.744 128.447  23.799  1.00  0.00     0.096 A 
ENDROOT
BRANCH  10  11
HETATM   11  O2  LIG X 999      43.420 129.674  23.899  1.00  0.00    -0.274 OA
BRANCH  11  12
HETATM   12  C12 LIG X 999      43.103 130.837  23.182  1.00  0.00     0.298 C 
HETATM   13  O3  LIG X 999      42.368 131.724  23.696  1.00  0.00    -0.259 OA
BRANCH  12  14
HETATM   14  C13 LIG X 999      43.689 131.048  21.839  1.00  0.00     0.039 A 
HETATM   15  C14 LIG X 999      44.990 130.596  21.553  1.00  0.00     0.017 A 
HETATM   16  C15 LIG X 999      45.545 130.794  20.285  1.00  0.00     0.001 A 
HETATM   17  C16 LIG X 999      44.809 131.443  19.290  1.00  0.00     0.000 A 
HETATM   18  C17 LIG X 999      43.516 131.895  19.563  1.00  0.00     0.001 A 
HETATM   19  C18 LIG X 999      42.956 131.700  20.830  1.00  0.00     0.017 A 
ENDBRANCH  12  14
ENDBRANCH  11  12
ENDBRANCH  10  11
BRANCH   1  20
HETATM   20  C1  LIG X 999      44.953 127.264  23.371  1.00  0.00     0.273 C 
HETATM   21  N1  LIG X 999      45.814 127.428  24.496  1.00  0.00    -0.263 NA
HETATM   22  H1  LIG X 999      46.853 127.426  24.384  1.00  0.00     0.190 HD
HETATM   23  O1  LIG X 999      45.471 127.109  22.231  1.00  0.00    -0.266 OA
ENDBRANCH   1  20
TORSDOF 4
ENDMDL
MODEL 8
REMARK VINA RESULT:      -5.9      1.733      2.434
REMARK  4 active torsions:
REMARK  status: ('A' for Active; 'I' for Inactive)
REMARK       I    between atoms: N1_1  and  C1_2 
REMARK    1  A    between atoms: C1_2  and  C2_4 
REMARK    2  A    between atoms: C11_13  and  O2_14 
REMARK    3  A    between atoms: O2_14  and  C12_15 
REMARK    4  A    between atoms: C12_15  and  C13_17 
ROOT
HETATM    1  C2  LIG X 999      43.449 131.912  19.618  1.00  0.00     0.068 A 
HETATM    2  C3  LIG X 999      43.227 131.758  18.235  1.00  0.00     0.032 A 
HETATM    3  C4  LIG X 999      44.186 131.153  17.413  1.00  0.00    -0.025 A 
HETATM    4  C5  LIG X 999      43.958 131.005  16.035  1.00  0.00     0.012 A 
HETATM    5  C6  LIG X 999      44.917 130.392  15.225  1.00  0.00     0.001 A 
HETATM    6  C7  LIG X 999      46.108 129.920  15.782  1.00  0.00     0.001 A 
HETATM    7  C8  LIG X 999      46.347 130.061  17.152  1.00  0.00     0.012 A 
HETATM    8  C9  LIG X 999      45.391 130.679  17.975  1.00  0.00    -0.023 A 
HETATM    9  C10 LIG X 999      45.620 130.825  19.348  1.00  0.00     0.050 A 
HETATM   10  C11 LIG X 999      44.668 131.450  20.174  1.00  0.00     0.096 A 
ENDROOT
BRANCH  10  11
HETATM   11  O2  LIG X 999      44.893 131.571  21.556  1.00  0.00    -0.274 OA
BRANCH  11  12
HETATM   12  C12 LIG X 999      44.276 130.799  22.550  1.00  0.00     0.298 C 
HETATM   13  O3  LIG X 999      43.538 131.345  23.416  1.00  0.00    -0.259 OA
BRANCH  12  14
HETATM   14  C13 LIG X 999      44.444 129.329  22.542  1.00  0.00     0.039 A 
HETATM   15  C14 LIG X 999      45.508 128.740  21.835  1.00  0.00     0.017 A 
HETATM   16  C15 LIG X 999      45.669 127.351  21.826  1.00  0.00     0.001 A 
HETATM   17  C16 LIG X 999      44.774 126.536  22.523  1.00  0.00     0.000 A 
HETATM   18  C17 LIG X 999      43.715 127.110  23.230  1.00  0.00     0.001 A 
HETATM   19  C18 LIG X 999      43.549 128.498  23.242  1.00  0.00     0.017 A 
ENDBRANCH  12  14
ENDBRANCH  11  12
ENDBRANCH  10  11
BRANCH   1  20
HETATM   20  C1  LIG X 999      42.399 132.565  20.447  1.00  0.00     0.273 C 
HETATM   21  N1  LIG X 999      42.070 132.076  21.747  1.00  0.00    -0.263 NA
HETATM   22  H1  LIG X 999      41.333 132.539  22.326  1.00  0.00     0.190 HD
HETATM   23  O1  LIG X 999      41.785 133.576  20.010  1.00  0.00    -0.266 OA
ENDBRANCH   1  20
TORSDOF 4
ENDMDL
MODEL 9
REMARK VINA RESULT:      -5.6      5.198      8.684
REMARK  4 active torsions:
REMARK  status: ('A' for Active; 'I' for Inactive)
REMARK       I    between atoms: N1_1  and  C1_2 
REMARK    1  A    between atoms: C1_2  and  C2_4 
REMARK    2  A    between atoms: C11_13  and  O2_14 
REMARK    3  A    between atoms: O2_14  and  C12_15 
REMARK    4  A    between atoms: C12_15  and  C13_17 
ROOT
HETATM    1  C2  LIG X 999      44.000 124.384  23.481  1.00  0.00     0.068 A 
HETATM    2  C3  LIG X 999      43.108 123.307  23.311  1.00  0.00     0.032 A 
HETATM    3  C4  LIG X 999      41.728 123.480  23.482  1.00  0.00    -0.025 A 
HETATM    4  C5  LIG X 999      40.844 122.401  23.312  1.00  0.00     0.012 A 
HETATM    5  C6  LIG X 999      39.470 122.586  23.477  1.00  0.00     0.001 A 
HETATM    6  C7  LIG X 999      38.965 123.846  23.810  1.00  0.00     0.001 A 
HETATM    7  C8  LIG X 999      39.835 124.927  23.981  1.00  0.00     0.012 A 
HETATM    8  C9  LIG X 999      41.218 124.752  23.822  1.00  0.00    -0.023 A 
HETATM    9  C10 LIG X 999      42.098 125.828  23.990  1.00  0.00     0.050 A 
HETATM   10  C11 LIG X 999      43.486 125.654  23.839  1.00  0.00     0.096 A 
ENDROOT
BRANCH  10  11
HETATM   11  O2  LIG X 999      44.360 126.744  23.986  1.00  0.00    -0.274 OA
BRANCH  11  12
HETATM   12  C12 LIG X 999      44.683 127.668  22.981  1.00  0.00     0.298 C 
HETATM   13  O3  LIG X 999      45.420 127.329  22.015  1.00  0.00    -0.259 OA
BRANCH  12  14
HETATM   14  C13 LIG X 999      44.103 129.029  23.027  1.00  0.00     0.039 A 
HETATM   15  C14 LIG X 999      44.539 130.017  22.126  1.00  0.00     0.017 A 
HETATM   16  C15 LIG X 999      43.992 131.303  22.168  1.00  0.00     0.001 A 
HETATM   17  C16 LIG X 999      43.005 131.616  23.106  1.00  0.00     0.000 A 
HETATM   18  C17 LIG X 999      42.564 130.643  24.005  1.00  0.00     0.001 A 
HETATM   19  C18 LIG X 999      43.107 129.355  23.967  1.00  0.00     0.017 A 
ENDBRANCH  12  14
ENDBRANCH  11  12
ENDBRANCH  10  11
BRANCH   1  20
HETATM   20  C1  LIG X 999      45.458 124.147  23.290  1.00  0.00     0.273 C 
HETATM   21  N1  LIG X 999      46.417 124.618  24.235  1.00  0.00    -0.263 NA
HETATM   22  H1  LIG X 999      47.438 124.447  24.098  1.00  0.00     0.190 HD
HETATM   23  O1  LIG X 999      45.868 123.510  22.281  1.00  0.00    -0.266 OA
ENDBRANCH   1  20
TORSDOF 4
ENDMDL
