REMARK VINA RESULT:      -5.0      3.763      7.662
REMARK  5 active torsions:
REMARK  status: ('A' for Active; 'I' for Inactive)
REMARK    1  A    between atoms: C3_3  and  C4_4 
REMARK    2  A    between atoms: C4_4  and  S1_5 
REMARK    3  A    between atoms: S1_5  and  C5_6 
REMARK    4  A    between atoms: C6_7  and  N1_8 
REMARK    5  A    between atoms: C10_12  and  N2_13 
ROOT
HETATM    1  C1  LIG X 999      45.341 131.529  16.649  1.00  0.00     0.112 C 
HETATM    2  C2  LIG X 999      44.774 131.443  17.994  1.00  0.00    -0.110 C 
HETATM    3  C3  LIG X 999      44.306 131.381  19.103  1.00  0.00    -0.097 C 
ENDROOT
BRANCH   3   4
HETATM    4  C4  LIG X 999      43.734 131.315  20.450  1.00  0.00     0.173 C 
BRANCH   4   5
HETATM    5  S1  LIG X 999      45.011 130.832  21.662  1.00  0.00    -0.115 SA
BRANCH   5   6
HETATM    6  C5  LIG X 999      43.903 129.802  22.662  1.00  0.00     0.038 A 
HETATM    7  C6  LIG X 999      42.727 130.367  23.204  1.00  0.00     0.043 A 
HETATM    8  C7  LIG X 999      41.860 129.574  23.957  1.00  0.00     0.031 A 
HETATM    9  C8  LIG X 999      42.134 128.229  24.187  1.00  0.00     0.017 A 
HETATM   10  C9  LIG X 999      43.293 127.628  23.665  1.00  0.00     0.002 A 
HETATM   11  C10 LIG X 999      43.590 126.250  23.893  1.00  0.00     0.045 A 
HETATM   12  C14 LIG X 999      44.205 128.436  22.911  1.00  0.00    -0.004 A 
HETATM   13  C11 LIG X 999      44.795 125.740  23.390  1.00  0.00     0.003 A 
HETATM   14  C12 LIG X 999      45.661 126.516  22.688  1.00  0.00    -0.021 A 
HETATM   15  C18 LIG X 999      45.330 124.360  23.506  1.00  0.00     0.278 C 
HETATM   16  C13 LIG X 999      45.401 127.855  22.430  1.00  0.00     0.023 A 
HETATM   17  C15 LIG X 999      46.856 125.744  22.284  1.00  0.00     0.276 C 
HETATM   18  N3  LIG X 999      46.567 124.327  22.663  1.00  0.00    -0.067 N 
HETATM   19  C16 LIG X 999      46.331 123.513  21.446  1.00  0.00     0.272 C 
HETATM   20  C17 LIG X 999      47.701 123.745  23.419  1.00  0.00     0.272 C 
BRANCH   7  21
HETATM   21  N1  LIG X 999      42.401 131.753  23.019  1.00  0.00    -0.398 N 
HETATM   22  H6  LIG X 999      43.093 132.406  22.587  1.00  0.00     0.156 HD
HETATM   23  H7  LIG X 999      41.477 132.154  23.289  1.00  0.00     0.156 HD
ENDBRANCH   7  21
BRANCH  11  24
HETATM   24  N2  LIG X 999      42.697 125.372  24.599  1.00  0.00    -0.398 N 
HETATM   25  H10 LIG X 999      42.812 124.337  24.608  1.00  0.00     0.156 HD
HETATM   26  H11 LIG X 999      41.958 125.757  25.228  1.00  0.00     0.156 HD
ENDBRANCH  11  24
ENDBRANCH   5   6
ENDBRANCH   4   5
ENDBRANCH   3   4
TORSDOF 5
