MODEL 1
REMARK VINA RESULT:      -8.0      0.000      0.000
REMARK  3 active torsions:
REMARK  status: ('A' for Active; 'I' for Inactive)
REMARK    1  A    between atoms: N1_1  and  C1_2 
REMARK    2  A    between atoms: C1_2  and  C2_3 
REMARK    3  A    between atoms: C2_3  and  C3_5 
ROOT
HETATM    1  C3  LIG X 999      45.913 130.908  15.226  1.00  0.00     0.012 A 
HETATM    2  C4  LIG X 999      44.642 131.345  14.808  1.00  0.00     0.016 A 
HETATM    3  C5  LIG X 999      43.656 131.676  15.740  1.00  0.00     0.013 A 
HETATM    4  C6  LIG X 999      43.919 131.576  17.112  1.00  0.00    -0.026 A 
HETATM    5  C7  LIG X 999      42.934 131.906  18.057  1.00  0.00     0.012 A 
HETATM    6  C8  LIG X 999      43.208 131.800  19.423  1.00  0.00     0.001 A 
HETATM    7  C9  LIG X 999      44.462 131.362  19.856  1.00  0.00     0.001 A 
HETATM    8  C10 LIG X 999      45.452 131.030  18.926  1.00  0.00     0.012 A 
HETATM    9  C11 LIG X 999      45.190 131.134  17.550  1.00  0.00    -0.025 A 
HETATM   10  C12 LIG X 999      46.175 130.803  16.607  1.00  0.00     0.027 A 
ENDROOT
BRANCH   1  11
HETATM   11  C2  LIG X 999      46.946 130.560  14.213  1.00  0.00     0.187 C 
HETATM   12  O1  LIG X 999      47.240 131.398  13.317  1.00  0.00    -0.290 OA
BRANCH  11  13
HETATM   13  C1  LIG X 999      47.626 129.213  14.209  1.00  0.00     0.350 C 
BRANCH  13  14
HETATM   14  N1  LIG X 999      48.785 129.210  13.321  1.00  0.00     0.085 N 
HETATM   15  H1  LIG X 999      48.736 128.345  12.736  1.00  0.00     0.313 HD
HETATM   16  H2  LIG X 999      49.647 129.122  13.908  1.00  0.00     0.313 HD
ENDBRANCH  13  14
ENDBRANCH  11  13
ENDBRANCH   1  11
TORSDOF 3
ENDMDL
MODEL 2
REMARK VINA RESULT:      -8.0      1.550      2.077
REMARK  3 active torsions:
REMARK  status: ('A' for Active; 'I' for Inactive)
REMARK    1  A    between atoms: N1_1  and  C1_2 
REMARK    2  A    between atoms: C1_2  and  C2_3 
REMARK    3  A    between atoms: C2_3  and  C3_5 
ROOT
HETATM    1  C3  LIG X 999      45.258 131.176  16.822  1.00  0.00     0.012 A 
HETATM    2  C4  LIG X 999      43.925 131.601  16.672  1.00  0.00     0.016 A 
HETATM    3  C5  LIG X 999      43.111 131.814  17.787  1.00  0.00     0.013 A 
HETATM    4  C6  LIG X 999      43.612 131.603  19.078  1.00  0.00    -0.026 A 
HETATM    5  C7  LIG X 999      42.801 131.814  20.205  1.00  0.00     0.012 A 
HETATM    6  C8  LIG X 999      43.312 131.599  21.487  1.00  0.00     0.001 A 
HETATM    7  C9  LIG X 999      44.632 131.171  21.655  1.00  0.00     0.001 A 
HETATM    8  C10 LIG X 999      45.450 130.958  20.542  1.00  0.00     0.012 A 
HETATM    9  C11 LIG X 999      44.948 131.172  19.247  1.00  0.00    -0.025 A 
HETATM   10  C12 LIG X 999      45.760 130.961  18.122  1.00  0.00     0.027 A 
ENDROOT
BRANCH   1  11
HETATM   11  C2  LIG X 999      46.105 130.956  15.619  1.00  0.00     0.187 C 
HETATM   12  O1  LIG X 999      46.461 131.947  14.924  1.00  0.00    -0.290 OA
BRANCH  11  13
HETATM   13  C1  LIG X 999      46.519 129.571  15.187  1.00  0.00     0.350 C 
BRANCH  13  14
HETATM   14  N1  LIG X 999      45.448 128.604  15.416  1.00  0.00     0.085 N 
HETATM   15  H1  LIG X 999      45.363 128.015  14.556  1.00  0.00     0.313 HD
HETATM   16  H2  LIG X 999      44.548 129.129  15.506  1.00  0.00     0.313 HD
ENDBRANCH  13  14
ENDBRANCH  11  13
ENDBRANCH   1  11
TORSDOF 3
ENDMDL
MODEL 3
REMARK VINA RESULT:      -7.9      3.136      5.307
REMARK  3 active torsions:
REMARK  status: ('A' for Active; 'I' for Inactive)
REMARK    1  A    between atoms: N1_1  and  C1_2 
REMARK    2  A    between atoms: C1_2  and  C2_3 
REMARK    3  A    between atoms: C2_3  and  C3_5 
ROOT
HETATM    1  C3  LIG X 999      45.517 131.126  17.420  1.00  0.00     0.012 A 
HETATM    2  C4  LIG X 999      45.318 132.295  16.661  1.00  0.00     0.016 A 
HETATM    3  C5  LIG X 999      45.839 132.409  15.370  1.00  0.00     0.013 A 
HETATM    4  C6  LIG X 999      46.574 131.356  14.810  1.00  0.00    -0.026 A 
HETATM    5  C7  LIG X 999      47.102 131.461  13.513  1.00  0.00     0.012 A 
HETATM    6  C8  LIG X 999      47.835 130.405  12.967  1.00  0.00     0.001 A 
HETATM    7  C9  LIG X 999      48.048 129.240  13.707  1.00  0.00     0.001 A 
HETATM    8  C10 LIG X 999      47.527 129.122  14.999  1.00  0.00     0.012 A 
HETATM    9  C11 LIG X 999      46.787 130.176  15.560  1.00  0.00    -0.025 A 
HETATM   10  C12 LIG X 999      46.260 130.069  16.856  1.00  0.00     0.027 A 
ENDROOT
BRANCH   1  11
HETATM   11  C2  LIG X 999      44.952 131.030  18.793  1.00  0.00     0.187 C 
HETATM   12  O1  LIG X 999      43.799 131.489  19.020  1.00  0.00    -0.290 OA
BRANCH  11  13
HETATM   13  C1  LIG X 999      45.739 130.429  19.930  1.00  0.00     0.350 C 
BRANCH  13  14
HETATM   14  N1  LIG X 999      46.132 131.450  20.898  1.00  0.00     0.085 N 
HETATM   15  H1  LIG X 999      46.970 131.095  21.414  1.00  0.00     0.313 HD
HETATM   16  H2  LIG X 999      45.366 131.541  21.606  1.00  0.00     0.313 HD
ENDBRANCH  13  14
ENDBRANCH  11  13
ENDBRANCH   1  11
TORSDOF 3
ENDMDL
MODEL 4
REMARK VINA RESULT:      -7.8      3.895      5.968
REMARK  3 active torsions:
REMARK  status: ('A' for Active; 'I' for Inactive)
REMARK    1  A    between atoms: N1_1  and  C1_2 
REMARK    2  A    between atoms: C1_2  and  C2_3 
REMARK    3  A    between atoms: C2_3  and  C3_5 
ROOT
HETATM    1  C3  LIG X 999      43.892 131.609  18.855  1.00  0.00     0.012 A 
HETATM    2  C4  LIG X 999      45.110 130.978  19.172  1.00  0.00     0.016 A 
HETATM    3  C5  LIG X 999      45.974 130.543  18.164  1.00  0.00     0.013 A 
HETATM    4  C6  LIG X 999      45.638 130.727  16.818  1.00  0.00    -0.026 A 
HETATM    5  C7  LIG X 999      46.501 130.292  15.798  1.00  0.00     0.012 A 
HETATM    6  C8  LIG X 999      46.154 130.480  14.458  1.00  0.00     0.001 A 
HETATM    7  C9  LIG X 999      44.946 131.099  14.125  1.00  0.00     0.001 A 
HETATM    8  C10 LIG X 999      44.078 131.536  15.130  1.00  0.00     0.012 A 
HETATM    9  C11 LIG X 999      44.416 131.355  16.481  1.00  0.00    -0.025 A 
HETATM   10  C12 LIG X 999      43.553 131.790  17.499  1.00  0.00     0.027 A 
ENDROOT
BRANCH   1  11
HETATM   11  C2  LIG X 999      42.987 132.062  19.946  1.00  0.00     0.187 C 
HETATM   12  O1  LIG X 999      42.063 132.879  19.682  1.00  0.00    -0.290 OA
BRANCH  11  13
HETATM   13  C1  LIG X 999      43.171 131.598  21.369  1.00  0.00     0.350 C 
BRANCH  13  14
HETATM   14  N1  LIG X 999      42.119 132.122  22.236  1.00  0.00     0.085 N 
HETATM   15  H1  LIG X 999      42.573 132.487  23.105  1.00  0.00     0.313 HD
HETATM   16  H2  LIG X 999      41.511 131.324  22.532  1.00  0.00     0.313 HD
ENDBRANCH  13  14
ENDBRANCH  11  13
ENDBRANCH   1  11
TORSDOF 3
ENDMDL
MODEL 5
REMARK VINA RESULT:      -7.7      3.341      5.615
REMARK  3 active torsions:
REMARK  status: ('A' for Active; 'I' for Inactive)
REMARK    1  A    between atoms: N1_1  and  C1_2 
REMARK    2  A    between atoms: C1_2  and  C2_3 
REMARK    3  A    between atoms: C2_3  and  C3_5 
ROOT
HETATM    1  C3  LIG X 999      44.560 131.329  18.021  1.00  0.00     0.012 A 
HETATM    2  C4  LIG X 999      45.533 130.390  18.411  1.00  0.00     0.016 A 
HETATM    3  C5  LIG X 999      46.421 129.849  17.478  1.00  0.00     0.013 A 
HETATM    4  C6  LIG X 999      46.354 130.235  16.134  1.00  0.00    -0.026 A 
HETATM    5  C7  LIG X 999      47.243 129.696  15.189  1.00  0.00     0.012 A 
HETATM    6  C8  LIG X 999      47.165 130.087  13.850  1.00  0.00     0.001 A 
HETATM    7  C9  LIG X 999      46.202 131.014  13.444  1.00  0.00     0.001 A 
HETATM    8  C10 LIG X 999      45.311 131.558  14.374  1.00  0.00     0.012 A 
HETATM    9  C11 LIG X 999      45.380 131.174  15.723  1.00  0.00    -0.025 A 
HETATM   10  C12 LIG X 999      44.491 131.713  16.666  1.00  0.00     0.027 A 
ENDROOT
BRANCH   1  11
HETATM   11  C2  LIG X 999      43.624 131.890  19.032  1.00  0.00     0.187 C 
HETATM   12  O1  LIG X 999      44.090 132.448  20.063  1.00  0.00    -0.290 OA
BRANCH  11  13
HETATM   13  C1  LIG X 999      42.128 131.775  18.875  1.00  0.00     0.350 C 
BRANCH  13  14
HETATM   14  N1  LIG X 999      41.579 132.938  18.183  1.00  0.00     0.085 N 
HETATM   15  H1  LIG X 999      40.556 132.981  18.395  1.00  0.00     0.313 HD
HETATM   16  H2  LIG X 999      41.662 132.775  17.153  1.00  0.00     0.313 HD
ENDBRANCH  13  14
ENDBRANCH  11  13
ENDBRANCH   1  11
TORSDOF 3
ENDMDL
MODEL 6
REMARK VINA RESULT:      -7.5      1.623      2.854
REMARK  3 active torsions:
REMARK  status: ('A' for Active; 'I' for Inactive)
REMARK    1  A    between atoms: N1_1  and  C1_2 
REMARK    2  A    between atoms: C1_2  and  C2_3 
REMARK    3  A    between atoms: C2_3  and  C3_5 
ROOT
HETATM    1  C3  LIG X 999      44.667 131.214  16.649  1.00  0.00     0.012 A 
HETATM    2  C4  LIG X 999      45.758 130.674  17.355  1.00  0.00     0.016 A 
HETATM    3  C5  LIG X 999      45.763 130.646  18.752  1.00  0.00     0.013 A 
HETATM    4  C6  LIG X 999      44.678 131.159  19.473  1.00  0.00    -0.026 A 
HETATM    5  C7  LIG X 999      44.676 131.135  20.877  1.00  0.00     0.012 A 
HETATM    6  C8  LIG X 999      43.588 131.653  21.585  1.00  0.00     0.001 A 
HETATM    7  C9  LIG X 999      42.499 132.198  20.901  1.00  0.00     0.001 A 
HETATM    8  C10 LIG X 999      42.489 132.229  19.503  1.00  0.00     0.012 A 
HETATM    9  C11 LIG X 999      43.576 131.710  18.779  1.00  0.00    -0.025 A 
HETATM   10  C12 LIG X 999      43.577 131.735  17.376  1.00  0.00     0.027 A 
ENDROOT
BRANCH   1  11
HETATM   11  C2  LIG X 999      44.685 131.235  15.161  1.00  0.00     0.187 C 
HETATM   12  O1  LIG X 999      43.709 131.736  14.539  1.00  0.00    -0.290 OA
BRANCH  11  13
HETATM   13  C1  LIG X 999      45.825 130.636  14.377  1.00  0.00     0.350 C 
BRANCH  13  14
HETATM   14  N1  LIG X 999      46.858 131.632  14.103  1.00  0.00     0.085 N 
HETATM   15  H1  LIG X 999      46.701 132.440  14.749  1.00  0.00     0.313 HD
HETATM   16  H2  LIG X 999      46.712 131.997  13.132  1.00  0.00     0.313 HD
ENDBRANCH  13  14
ENDBRANCH  11  13
ENDBRANCH   1  11
TORSDOF 3
ENDMDL
MODEL 7
REMARK VINA RESULT:      -7.5      3.590      5.462
REMARK  3 active torsions:
REMARK  status: ('A' for Active; 'I' for Inactive)
REMARK    1  A    between atoms: N1_1  and  C1_2 
REMARK    2  A    between atoms: C1_2  and  C2_3 
REMARK    3  A    between atoms: C2_3  and  C3_5 
ROOT
HETATM    1  C3  LIG X 999      44.687 131.190  18.766  1.00  0.00     0.012 A 
HETATM    2  C4  LIG X 999      43.617 131.757  18.047  1.00  0.00     0.016 A 
HETATM    3  C5  LIG X 999      43.622 131.774  16.650  1.00  0.00     0.013 A 
HETATM    4  C6  LIG X 999      44.698 131.226  15.941  1.00  0.00    -0.026 A 
HETATM    5  C7  LIG X 999      44.712 131.239  14.537  1.00  0.00     0.012 A 
HETATM    6  C8  LIG X 999      45.792 130.691  13.841  1.00  0.00     0.001 A 
HETATM    7  C9  LIG X 999      46.865 130.130  14.537  1.00  0.00     0.001 A 
HETATM    8  C10 LIG X 999      46.864 130.111  15.935  1.00  0.00     0.012 A 
HETATM    9  C11 LIG X 999      45.783 130.657  16.647  1.00  0.00    -0.025 A 
HETATM   10  C12 LIG X 999      45.771 130.643  18.050  1.00  0.00     0.027 A 
ENDROOT
BRANCH   1  11
HETATM   11  C2  LIG X 999      44.659 131.185  20.253  1.00  0.00     0.187 C 
HETATM   12  O1  LIG X 999      45.597 130.628  20.886  1.00  0.00    -0.290 OA
BRANCH  11  13
HETATM   13  C1  LIG X 999      43.518 131.800  21.024  1.00  0.00     0.350 C 
BRANCH  13  14
HETATM   14  N1  LIG X 999      42.794 130.789  21.791  1.00  0.00     0.085 N 
HETATM   15  H1  LIG X 999      43.497 130.241  22.339  1.00  0.00     0.313 HD
HETATM   16  H2  LIG X 999      42.355 130.119  21.118  1.00  0.00     0.313 HD
ENDBRANCH  13  14
ENDBRANCH  11  13
ENDBRANCH   1  11
TORSDOF 3
ENDMDL
MODEL 8
REMARK VINA RESULT:      -6.1      4.542      6.367
REMARK  3 active torsions:
REMARK  status: ('A' for Active; 'I' for Inactive)
REMARK    1  A    between atoms: N1_1  and  C1_2 
REMARK    2  A    between atoms: C1_2  and  C2_3 
REMARK    3  A    between atoms: C2_3  and  C3_5 
ROOT
HETATM    1  C3  LIG X 999      43.823 131.326  20.909  1.00  0.00     0.012 A 
HETATM    2  C4  LIG X 999      42.679 131.859  20.285  1.00  0.00     0.016 A 
HETATM    3  C5  LIG X 999      42.618 131.995  18.896  1.00  0.00     0.013 A 
HETATM    4  C6  LIG X 999      43.702 131.603  18.100  1.00  0.00    -0.026 A 
HETATM    5  C7  LIG X 999      43.650 131.737  16.703  1.00  0.00     0.012 A 
HETATM    6  C8  LIG X 999      44.738 131.344  15.920  1.00  0.00     0.001 A 
HETATM    7  C9  LIG X 999      45.884 130.818  16.522  1.00  0.00     0.001 A 
HETATM    8  C10 LIG X 999      45.949 130.680  17.912  1.00  0.00     0.012 A 
HETATM    9  C11 LIG X 999      44.861 131.070  18.711  1.00  0.00    -0.025 A 
HETATM   10  C12 LIG X 999      44.915 130.936  20.106  1.00  0.00     0.027 A 
ENDROOT
BRANCH   1  11
HETATM   11  C2  LIG X 999      43.865 131.192  22.390  1.00  0.00     0.187 C 
HETATM   12  O1  LIG X 999      44.506 132.041  23.069  1.00  0.00    -0.290 OA
BRANCH  11  13
HETATM   13  C1  LIG X 999      43.189 130.045  23.099  1.00  0.00     0.350 C 
BRANCH  13  14
HETATM   14  N1  LIG X 999      42.001 130.495  23.818  1.00  0.00     0.085 N 
HETATM   15  H1  LIG X 999      42.319 130.989  24.684  1.00  0.00     0.313 HD
HETATM   16  H2  LIG X 999      41.471 129.651  24.137  1.00  0.00     0.313 HD
ENDBRANCH  13  14
ENDBRANCH  11  13
ENDBRANCH   1  11
TORSDOF 3
ENDMDL
MODEL 9
REMARK VINA RESULT:      -6.0      4.922      7.133
REMARK  3 active torsions:
REMARK  status: ('A' for Active; 'I' for Inactive)
REMARK    1  A    between atoms: N1_1  and  C1_2 
REMARK    2  A    between atoms: C1_2  and  C2_3 
REMARK    3  A    between atoms: C2_3  and  C3_5 
ROOT
HETATM    1  C3  LIG X 999      43.613 131.214  21.987  1.00  0.00     0.012 A 
HETATM    2  C4  LIG X 999      44.953 130.801  21.865  1.00  0.00     0.016 A 
HETATM    3  C5  LIG X 999      45.574 130.744  20.615  1.00  0.00     0.013 A 
HETATM    4  C6  LIG X 999      44.868 131.098  19.459  1.00  0.00    -0.026 A 
HETATM    5  C7  LIG X 999      45.484 131.044  18.198  1.00  0.00     0.012 A 
HETATM    6  C8  LIG X 999      44.768 131.398  17.052  1.00  0.00     0.001 A 
HETATM    7  C9  LIG X 999      43.436 131.805  17.154  1.00  0.00     0.001 A 
HETATM    8  C10 LIG X 999      42.810 131.863  18.402  1.00  0.00     0.012 A 
HETATM    9  C11 LIG X 999      43.519 131.512  19.563  1.00  0.00    -0.025 A 
HETATM   10  C12 LIG X 999      42.902 131.566  20.822  1.00  0.00     0.027 A 
ENDROOT
BRANCH   1  11
HETATM   11  C2  LIG X 999      42.973 131.264  23.329  1.00  0.00     0.187 C 
HETATM   12  O1  LIG X 999      42.687 132.384  23.836  1.00  0.00    -0.290 OA
BRANCH  11  13
HETATM   13  C1  LIG X 999      42.691 130.010  24.118  1.00  0.00     0.350 C 
BRANCH  13  14
HETATM   14  N1  LIG X 999      41.682 129.187  23.457  1.00  0.00     0.085 N 
HETATM   15  H1  LIG X 999      42.139 128.290  23.171  1.00  0.00     0.313 HD
HETATM   16  H2  LIG X 999      41.395 129.668  22.573  1.00  0.00     0.313 HD
ENDBRANCH  13  14
ENDBRANCH  11  13
ENDBRANCH   1  11
TORSDOF 3
ENDMDL
