REMARK VINA RESULT:      -5.6      3.126      4.573
REMARK  4 active torsions:
REMARK  status: ('A' for Active; 'I' for Inactive)
REMARK    1  A    between atoms: C1_2  and  C2_4 
REMARK    2  A    between atoms: C8_10  and  C9_11 
REMARK       I    between atoms: C9_11  and  N1_13 
REMARK    3  A    between atoms: N1_13  and  S1_14 
REMARK    4  A    between atoms: S1_14  and  C10_17 
ROOT
HETATM    1  C9  LIG X 999      42.923 131.428  20.608  1.00  0.00     0.259 C 
HETATM    2  O3  LIG X 999      42.416 132.581  20.637  1.00  0.00    -0.270 OA
HETATM    3  N1  LIG X 999      43.556 130.954  19.417  1.00  0.00    -0.122 NA
ENDROOT
BRANCH   3   4
HETATM    4  S1  LIG X 999      43.892 131.996  18.078  1.00  0.00     0.286 S 
HETATM    5  O4  LIG X 999      42.604 132.357  17.393  1.00  0.00    -0.198 OA
HETATM    6  O5  LIG X 999      44.544 133.260  18.566  1.00  0.00    -0.198 OA
BRANCH   4   7
HETATM    7  C10 LIG X 999      44.941 131.149  16.947  1.00  0.00     0.082 A 
HETATM    8  C11 LIG X 999      45.286 129.812  17.184  1.00  0.00     0.026 A 
HETATM    9  C12 LIG X 999      46.164 129.146  16.325  1.00  0.00     0.014 A 
HETATM   10  C13 LIG X 999      46.712 129.813  15.221  1.00  0.00    -0.026 A 
HETATM   11  C14 LIG X 999      47.600 129.156  14.356  1.00  0.00     0.012 A 
HETATM   12  C18 LIG X 999      46.370 131.165  14.979  1.00  0.00    -0.025 A 
HETATM   13  C15 LIG X 999      48.145 129.834  13.261  1.00  0.00     0.001 A 
HETATM   14  C16 LIG X 999      47.808 131.170  13.023  1.00  0.00     0.001 A 
HETATM   15  C17 LIG X 999      46.925 131.836  13.877  1.00  0.00     0.012 A 
HETATM   16  C19 LIG X 999      45.485 131.825  15.846  1.00  0.00     0.037 A 
ENDBRANCH   4   7
ENDBRANCH   3   4
BRANCH   1  17
HETATM   17  C8  LIG X 999      42.936 130.554  21.842  1.00  0.00     0.099 C 
HETATM   18  C2  LIG X 999      44.351 130.059  22.275  1.00  0.00     0.104 C 
HETATM   19  C3  LIG X 999      44.461 130.593  23.727  1.00  0.00     0.001 C 
HETATM   20  C4  LIG X 999      43.527 129.758  24.624  1.00  0.00     0.006 C 
HETATM   21  C7  LIG X 999      43.707 131.903  23.660  1.00  0.00     0.011 C 
HETATM   22  C5  LIG X 999      42.127 130.234  24.197  1.00  0.00     0.006 C 
HETATM   23  C6  LIG X 999      42.437 131.286  23.114  1.00  0.00    -0.000 C 
BRANCH  18  24
HETATM   24  C1  LIG X 999      45.498 130.511  21.396  1.00  0.00     0.178 C 
HETATM   25  O1  LIG X 999      46.079 129.710  20.617  1.00  0.00    -0.648 OA
HETATM   26  O2  LIG X 999      45.950 131.822  21.484  1.00  0.00    -0.648 OA
ENDBRANCH  18  24
ENDBRANCH   1  17
TORSDOF 4
