REMARK VINA RESULT:      -3.8      4.397      6.910
REMARK  4 active torsions:
REMARK  status: ('A' for Active; 'I' for Inactive)
REMARK    1  A    between atoms: C5_5  and  C6_6 
REMARK    2  A    between atoms: C7_7  and  C8_8 
REMARK    3  A    between atoms: C11_13  and  C12_14 
REMARK    4  A    between atoms: C13_17  and  N3_18 
ROOT
HETATM    1  N3  LIG X 999      43.884 132.091  20.143  1.00  0.00    -0.023 NA
HETATM    2  N4  LIG X 999      42.915 132.085  19.384  1.00  0.00    -0.158 NA
HETATM    3  N5  LIG X 999      41.946 132.078  18.626  1.00  0.00     0.068 N 
ENDROOT
BRANCH   1   4
HETATM    4  C13 LIG X 999      44.145 130.982  21.001  1.00  0.00     0.326 A 
HETATM    5  N2  LIG X 999      45.326 130.343  21.051  1.00  0.00    -0.099 NA
HETATM    6  N1  LIG X 999      45.179 129.385  21.952  1.00  0.00    -0.124 NA
HETATM    7  C12 LIG X 999      43.911 129.474  22.410  1.00  0.00     0.184 A 
HETATM    8  O3  LIG X 999      43.272 130.465  21.830  1.00  0.00    -0.255 OA
BRANCH   7   9
HETATM    9  C11 LIG X 999      43.326 128.581  23.488  1.00  0.00     0.054 C 
HETATM   10  C3  LIG X 999      42.877 127.204  22.883  1.00  0.00     0.030 C 
HETATM   11  C2  LIG X 999      41.950 126.466  23.826  1.00  0.00    -0.021 C 
HETATM   12  C4  LIG X 999      44.081 126.327  22.476  1.00  0.00     0.027 C 
HETATM   13  C1  LIG X 999      41.084 127.141  24.588  1.00  0.00    -0.004 C 
HETATM   14  C15 LIG X 999      41.110 128.614  24.625  1.00  0.00    -0.003 C 
HETATM   15  C14 LIG X 999      42.121 129.296  24.076  1.00  0.00    -0.008 C 
HETATM   16  C5  LIG X 999      45.074 126.139  23.636  1.00  0.00     0.066 C 
HETATM   17  C9  LIG X 999      45.551 127.499  24.167  1.00  0.00     0.019 C 
HETATM   18  C10 LIG X 999      44.361 128.352  24.625  1.00  0.00     0.024 C 
BRANCH  16  19
HETATM   19  C6  LIG X 999      46.227 125.345  23.185  1.00  0.00    -0.090 C 
HETATM   20  C7  LIG X 999      47.172 124.694  22.816  1.00  0.00     0.005 C 
BRANCH  20  21
HETATM   21  C8  LIG X 999      48.297 123.920  22.377  1.00  0.00     0.258 C 
HETATM   22  O1  LIG X 999      49.155 123.528  23.210  1.00  0.00    -0.637 OA
HETATM   23  O2  LIG X 999      48.439 123.602  21.034  1.00  0.00    -0.637 OA
ENDBRANCH  20  21
ENDBRANCH  16  19
ENDBRANCH   7   9
ENDBRANCH   1   4
TORSDOF 4
