REMARK VINA RESULT:      -6.3      2.910      4.635
REMARK  2 active torsions:
REMARK  status: ('A' for Active; 'I' for Inactive)
REMARK    1  A    between atoms: C6_6  and  C7_7 
REMARK    2  A    between atoms: C7_7  and  N1_8 
ROOT
HETATM    1  N1  LIG X 999      42.746 130.285  22.757  1.00  0.00    -0.106 NA
HETATM    2  N2  LIG X 999      43.514 129.361  23.032  1.00  0.00    -0.167 NA
HETATM    3  N3  LIG X 999      44.280 128.439  23.307  1.00  0.00     0.068 N 
ENDROOT
BRANCH   1   4
HETATM    4  C7  LIG X 999      43.255 131.567  22.279  1.00  0.00     0.174 C 
HETATM    5  C8  LIG X 999      44.607 131.854  22.933  1.00  0.00     0.042 C 
BRANCH   4   6
HETATM    6  C6  LIG X 999      43.388 131.565  20.771  1.00  0.00    -0.030 A 
HETATM    7  C5  LIG X 999      44.565 131.103  20.154  1.00  0.00     0.021 A 
HETATM    8  C4  LIG X 999      44.691 131.120  18.757  1.00  0.00    -0.025 A 
HETATM    9  C3  LIG X 999      45.862 130.654  18.138  1.00  0.00     0.012 A 
HETATM   10  C11 LIG X 999      43.627 131.611  17.962  1.00  0.00    -0.026 A 
HETATM   11  C2  LIG X 999      45.975 130.675  16.746  1.00  0.00     0.001 A 
HETATM   12  C1  LIG X 999      44.925 131.160  15.961  1.00  0.00     0.001 A 
HETATM   13  C12 LIG X 999      43.754 131.628  16.565  1.00  0.00     0.012 A 
HETATM   14  C10 LIG X 999      42.460 132.080  18.581  1.00  0.00     0.013 A 
HETATM   15  C9  LIG X 999      42.343 132.060  19.973  1.00  0.00     0.010 A 
ENDBRANCH   4   6
ENDBRANCH   1   4
TORSDOF 2
