REMARK VINA RESULT:      -1.3      7.641      8.995
REMARK  4 active torsions:
REMARK  status: ('A' for Active; 'I' for Inactive)
REMARK    1  A    between atoms: C5_5  and  O1_6 
REMARK    2  A    between atoms: O1_6  and  C6_7 
REMARK       I    between atoms: C6_7  and  N1_9 
REMARK    3  A    between atoms: C9_12  and  N2_13 
REMARK    4  A    between atoms: C11_18  and  N5_19 
ROOT
HETATM    1  N2  LIG X 999      42.520 131.709  19.741  1.00  0.00    -0.068 NA
HETATM    2  N3  LIG X 999      41.753 132.643  19.976  1.00  0.00    -0.162 NA
HETATM    3  N4  LIG X 999      40.982 133.573  20.208  1.00  0.00     0.068 N 
ENDROOT
BRANCH   1   4
HETATM    4  C9  LIG X 999      43.637 131.381  20.587  1.00  0.00     0.151 C 
HETATM    5  C5  LIG X 999      44.924 131.650  20.055  1.00  0.00     0.114 C 
HETATM    6  C4  LIG X 999      46.106 131.812  20.823  1.00  0.00     0.040 C 
HETATM    7  C3  LIG X 999      46.162 132.083  22.192  1.00  0.00     0.003 C 
HETATM    8  C2  LIG X 999      45.182 132.808  22.874  1.00  0.00     0.000 C 
HETATM    9  C1  LIG X 999      44.747 132.446  24.152  1.00  0.00     0.000 C 
HETATM   10  C13 LIG X 999      44.684 131.121  24.625  1.00  0.00     0.002 C 
HETATM   11  C12 LIG X 999      44.659 129.957  23.829  1.00  0.00     0.036 C 
HETATM   12  C11 LIG X 999      44.329 129.905  22.453  1.00  0.00     0.117 C 
HETATM   13  C10 LIG X 999      43.421 130.812  21.870  1.00  0.00     0.100 C 
HETATM   14 CL1  LIG X 999      41.984 131.271  22.792  1.00  0.00    -0.079 Cl
BRANCH   5  15
HETATM   15  O1  LIG X 999      45.003 131.785  18.659  1.00  0.00    -0.259 OA
BRANCH  15  16
HETATM   16  C6  LIG X 999      45.392 130.769  17.775  1.00  0.00     0.367 C 
HETATM   17  O2  LIG X 999      46.218 129.888  18.142  1.00  0.00    -0.238 OA
HETATM   18  N1  LIG X 999      44.804 130.701  16.465  1.00  0.00    -0.336 N 
HETATM   19  C7  LIG X 999      45.191 129.628  15.545  1.00  0.00     0.154 C 
HETATM   20  C8  LIG X 999      43.825 131.715  16.066  1.00  0.00     0.154 C 
ENDBRANCH  15  16
ENDBRANCH   5  15
BRANCH  12  21
HETATM   21  N5  LIG X 999      44.906 128.896  21.609  1.00  0.00    -0.071 NA
HETATM   22  N6  LIG X 999      45.239 127.789  22.036  1.00  0.00    -0.162 NA
HETATM   23  N7  LIG X 999      45.572 126.684  22.461  1.00  0.00     0.068 N 
ENDBRANCH  12  21
ENDBRANCH   1   4
TORSDOF 4
