REMARK VINA RESULT:      -2.9      4.514      6.835
REMARK  5 active torsions:
REMARK  status: ('A' for Active; 'I' for Inactive)
REMARK    1  A    between atoms: O1_2  and  C1_3 
REMARK    2  A    between atoms: C1_3  and  C15_22 
REMARK    3  A    between atoms: N1_4  and  C2_5 
REMARK    4  A    between atoms: C3_6  and  O2_7 
REMARK    5  A    between atoms: O2_7  and  C4_8 
REMARK       I    between atoms: C4_8  and  N2_10 
ROOT
HETATM    1  C2  LIG X 999      43.941 130.578  21.346  1.00  0.00     0.104 A 
HETATM    2  C3  LIG X 999      43.203 131.714  21.737  1.00  0.00     0.110 A 
HETATM    3  C7  LIG X 999      42.812 131.862  23.078  1.00  0.00     0.041 A 
HETATM    4  C8  LIG X 999      43.148 130.895  24.026  1.00  0.00     0.015 A 
HETATM    5  C9  LIG X 999      43.896 129.771  23.655  1.00  0.00    -0.024 A 
HETATM    6  C10 LIG X 999      44.248 128.807  24.613  1.00  0.00     0.012 A 
HETATM    7  C11 LIG X 999      45.001 127.692  24.244  1.00  0.00     0.001 A 
HETATM    8  C12 LIG X 999      45.411 127.529  22.920  1.00  0.00     0.001 A 
HETATM    9  C13 LIG X 999      45.069 128.478  21.955  1.00  0.00     0.014 A 
HETATM   10  C14 LIG X 999      44.310 129.611  22.307  1.00  0.00     0.006 A 
ENDROOT
BRANCH   1  11
HETATM   11  N1  LIG X 999      44.385 130.445  19.984  1.00  0.00    -0.221 NA
HETATM   12  C1  LIG X 999      45.115 131.307  19.335  1.00  0.00     0.176 C 
BRANCH  12  13
HETATM   13  O1  LIG X 999      45.458 132.546  19.884  1.00  0.00    -0.344 OA
HETATM   14  H1  LIG X 999      44.802 133.310  19.974  1.00  0.00     0.219 HD
ENDBRANCH  12  13
BRANCH  12  15
HETATM   15  C15 LIG X 999      45.576 130.982  17.979  1.00  0.00     0.053 A 
HETATM   16  C16 LIG X 999      46.182 129.815  17.548  1.00  0.00     0.156 A 
HETATM   17  N3  LIG X 999      46.447 129.916  16.231  1.00  0.00    -0.185 NA
HETATM   18  N4  LIG X 999      46.039 131.111  15.832  1.00  0.00    -0.285 N 
HETATM   19  C17 LIG X 999      46.099 131.571  14.451  1.00  0.00     0.179 C 
HETATM   20  C18 LIG X 999      45.494 131.784  16.861  1.00  0.00     0.129 A 
ENDBRANCH  12  15
ENDBRANCH   1  11
BRANCH   2  21
HETATM   21  O2  LIG X 999      42.923 132.699  20.779  1.00  0.00    -0.254 OA
BRANCH  21  22
HETATM   22  C4  LIG X 999      41.657 132.976  20.242  1.00  0.00     0.461 C 
HETATM   23  O3  LIG X 999      40.810 133.637  20.904  1.00  0.00    -0.230 OA
HETATM   24  N2  LIG X 999      41.291 132.429  18.961  1.00  0.00     0.009 N 
HETATM   25  H2  LIG X 999      40.329 132.756  18.703  1.00  0.00     0.292 HD
HETATM   26  C5  LIG X 999      41.279 130.959  19.031  1.00  0.00     0.282 C 
HETATM   27  C6  LIG X 999      42.229 132.895  17.929  1.00  0.00     0.282 C 
ENDBRANCH  21  22
ENDBRANCH   2  21
TORSDOF 5
