REMARK VINA RESULT:      -8.7      0.000      0.000
REMARK  3 active torsions:
REMARK  status: ('A' for Active; 'I' for Inactive)
REMARK    1  A    between atoms: N2_3  and  N3_4 
REMARK    2  A    between atoms: C1_5  and  C2_6 
REMARK    3  A    between atoms: C7_12  and  N5_13 
ROOT
HETATM    1  N5  LIG X 999      46.371 130.764  13.685  1.00  0.00    -0.073 NA
HETATM    2  N6  LIG X 999      47.385 130.063  13.697  1.00  0.00    -0.162 NA
HETATM    3  N7  LIG X 999      48.396 129.364  13.706  1.00  0.00     0.068 N 
ENDROOT
BRANCH   1   4
HETATM    4  C7  LIG X 999      45.599 131.016  14.868  1.00  0.00     0.094 A 
HETATM    5  C6  LIG X 999      46.125 130.799  16.155  1.00  0.00     0.046 A 
HETATM    6  C5  LIG X 999      45.345 131.054  17.292  1.00  0.00    -0.021 A 
HETATM    7  C4  LIG X 999      45.871 130.837  18.586  1.00  0.00     0.046 A 
HETATM    8  C10 LIG X 999      44.008 131.539  17.137  1.00  0.00    -0.024 A 
HETATM    9  C3  LIG X 999      45.049 131.109  19.676  1.00  0.00     0.086 A 
HETATM   10  N4  LIG X 999      45.346 130.973  20.981  1.00  0.00    -0.228 NA
HETATM   11  C12 LIG X 999      43.778 131.570  19.524  1.00  0.00     0.063 A 
HETATM   12  C2  LIG X 999      44.200 131.372  21.596  1.00  0.00     0.148 A 
HETATM   13  N8  LIG X 999      43.224 131.742  20.729  1.00  0.00    -0.338 N 
HETATM   14  H8  LIG X 999      42.262 132.084  20.950  1.00  0.00     0.167 HD
HETATM   15  C11 LIG X 999      43.212 131.801  18.273  1.00  0.00     0.044 A 
HETATM   16  C9  LIG X 999      43.499 131.750  15.849  1.00  0.00     0.014 A 
HETATM   17  C8  LIG X 999      44.289 131.490  14.726  1.00  0.00     0.035 A 
BRANCH  12  18
HETATM   18  C1  LIG X 999      44.009 131.410  23.061  1.00  0.00     0.193 C 
HETATM   19  N3  LIG X 999      43.342 130.516  23.729  1.00  0.00    -0.140 NA
BRANCH  19  20
HETATM   20  N2  LIG X 999      42.725 129.410  23.132  1.00  0.00    -0.051 NA
HETATM   21  N1  LIG X 999      41.558 129.063  23.490  1.00  0.00    -0.184 NA
HETATM   22  H1  LIG X 999      41.100 128.238  23.044  1.00  0.00     0.214 HD
ENDBRANCH  19  20
ENDBRANCH  12  18
ENDBRANCH   1   4
TORSDOF 3
