MODEL 1
REMARK VINA RESULT:      -8.5      0.000      0.000
REMARK  2 active torsions:
REMARK  status: ('A' for Active; 'I' for Inactive)
REMARK    1  A    between atoms: C1_1  and  N1_14 
REMARK    2  A    between atoms: C2_2  and  C3_4 
ROOT
HETATM    1  C3  LIG X 999      45.922 130.839  15.061  1.00  0.00     0.003 A 
HETATM    2  C4  LIG X 999      44.646 131.281  14.655  1.00  0.00     0.015 A 
HETATM    3  C5  LIG X 999      43.679 131.631  15.600  1.00  0.00     0.013 A 
HETATM    4  C6  LIG X 999      43.961 131.539  16.968  1.00  0.00    -0.026 A 
HETATM    5  C7  LIG X 999      42.995 131.888  17.925  1.00  0.00     0.012 A 
HETATM    6  C8  LIG X 999      43.289 131.789  19.288  1.00  0.00     0.001 A 
HETATM    7  C9  LIG X 999      44.545 131.338  19.705  1.00  0.00     0.001 A 
HETATM    8  C10 LIG X 999      45.515 130.987  18.763  1.00  0.00     0.012 A 
HETATM    9  C11 LIG X 999      45.233 131.083  17.390  1.00  0.00    -0.025 A 
HETATM   10  C12 LIG X 999      46.199 130.733  16.435  1.00  0.00     0.026 A 
ENDROOT
BRANCH   1  11
HETATM   11  C2  LIG X 999      46.963 130.449  14.076  1.00  0.00     0.132 C 
HETATM   12  C1  LIG X 999      47.750 129.378  14.259  1.00  0.00     0.121 C 
HETATM   13  O1  LIG X 999      47.103 131.210  12.919  1.00  0.00    -0.190 OA
BRANCH  12  14
HETATM   14  N1  LIG X 999      48.754 129.014  13.307  1.00  0.00    -0.406 N 
HETATM   15  H9  LIG X 999      49.687 129.480  13.281  1.00  0.00     0.155 HD
HETATM   16  H10 LIG X 999      48.556 128.256  12.618  1.00  0.00     0.155 HD
ENDBRANCH  12  14
ENDBRANCH   1  11
TORSDOF 2
ENDMDL
MODEL 2
REMARK VINA RESULT:      -8.3      3.922      5.973
REMARK  2 active torsions:
REMARK  status: ('A' for Active; 'I' for Inactive)
REMARK    1  A    between atoms: C1_1  and  N1_14 
REMARK    2  A    between atoms: C2_2  and  C3_4 
ROOT
HETATM    1  C3  LIG X 999      43.939 131.572  18.883  1.00  0.00     0.003 A 
HETATM    2  C4  LIG X 999      45.160 130.931  19.176  1.00  0.00     0.015 A 
HETATM    3  C5  LIG X 999      46.007 130.508  18.149  1.00  0.00     0.013 A 
HETATM    4  C6  LIG X 999      45.649 130.707  16.810  1.00  0.00    -0.026 A 
HETATM    5  C7  LIG X 999      46.494 130.284  15.772  1.00  0.00     0.012 A 
HETATM    6  C8  LIG X 999      46.123 130.487  14.440  1.00  0.00     0.001 A 
HETATM    7  C9  LIG X 999      44.909 131.108  14.134  1.00  0.00     0.001 A 
HETATM    8  C10 LIG X 999      44.059 131.532  15.158  1.00  0.00     0.012 A 
HETATM    9  C11 LIG X 999      44.420 131.336  16.501  1.00  0.00    -0.025 A 
HETATM   10  C12 LIG X 999      43.574 131.758  17.538  1.00  0.00     0.026 A 
ENDROOT
BRANCH   1  11
HETATM   11  C2  LIG X 999      43.014 132.020  19.957  1.00  0.00     0.132 C 
HETATM   12  C1  LIG X 999      43.153 131.618  21.229  1.00  0.00     0.121 C 
HETATM   13  O1  LIG X 999      41.991 132.904  19.627  1.00  0.00    -0.190 OA
BRANCH  12  14
HETATM   14  N1  LIG X 999      42.254 132.050  22.254  1.00  0.00    -0.406 N 
HETATM   15  H9  LIG X 999      42.366 132.969  22.738  1.00  0.00     0.155 HD
HETATM   16  H10 LIG X 999      41.456 131.437  22.529  1.00  0.00     0.155 HD
ENDBRANCH  12  14
ENDBRANCH   1  11
TORSDOF 2
ENDMDL
MODEL 3
REMARK VINA RESULT:      -8.2      1.360      1.708
REMARK  2 active torsions:
REMARK  status: ('A' for Active; 'I' for Inactive)
REMARK    1  A    between atoms: C1_1  and  N1_14 
REMARK    2  A    between atoms: C2_2  and  C3_4 
ROOT
HETATM    1  C3  LIG X 999      45.460 130.871  16.209  1.00  0.00     0.003 A 
HETATM    2  C4  LIG X 999      44.175 131.438  16.090  1.00  0.00     0.015 A 
HETATM    3  C5  LIG X 999      43.434 131.768  17.227  1.00  0.00     0.013 A 
HETATM    4  C6  LIG X 999      43.956 131.530  18.505  1.00  0.00    -0.026 A 
HETATM    5  C7  LIG X 999      43.217 131.858  19.653  1.00  0.00     0.012 A 
HETATM    6  C8  LIG X 999      43.749 131.612  20.922  1.00  0.00     0.001 A 
HETATM    7  C9  LIG X 999      45.015 131.035  21.055  1.00  0.00     0.001 A 
HETATM    8  C10 LIG X 999      45.759 130.704  19.920  1.00  0.00     0.012 A 
HETATM    9  C11 LIG X 999      45.238 130.946  18.639  1.00  0.00    -0.025 A 
HETATM   10  C12 LIG X 999      45.976 130.617  17.492  1.00  0.00     0.026 A 
ENDROOT
BRANCH   1  11
HETATM   11  C2  LIG X 999      46.263 130.499  15.015  1.00  0.00     0.132 C 
HETATM   12  C1  LIG X 999      46.879 131.418  14.257  1.00  0.00     0.121 C 
HETATM   13  O1  LIG X 999      46.393 129.150  14.695  1.00  0.00    -0.190 OA
BRANCH  12  14
HETATM   14  N1  LIG X 999      47.645 131.051  13.107  1.00  0.00    -0.406 N 
HETATM   15  H9  LIG X 999      48.605 130.648  13.186  1.00  0.00     0.155 HD
HETATM   16  H10 LIG X 999      47.236 131.181  12.155  1.00  0.00     0.155 HD
ENDBRANCH  12  14
ENDBRANCH   1  11
TORSDOF 2
ENDMDL
MODEL 4
REMARK VINA RESULT:      -8.1      3.928      5.957
REMARK  2 active torsions:
REMARK  status: ('A' for Active; 'I' for Inactive)
REMARK    1  A    between atoms: C1_1  and  N1_14 
REMARK    2  A    between atoms: C2_2  and  C3_4 
ROOT
HETATM    1  C3  LIG X 999      44.137 131.516  18.727  1.00  0.00     0.003 A 
HETATM    2  C4  LIG X 999      45.302 130.782  19.031  1.00  0.00     0.015 A 
HETATM    3  C5  LIG X 999      46.133 130.310  18.012  1.00  0.00     0.013 A 
HETATM    4  C6  LIG X 999      45.814 130.554  16.670  1.00  0.00    -0.026 A 
HETATM    5  C7  LIG X 999      46.644 130.083  15.639  1.00  0.00     0.012 A 
HETATM    6  C8  LIG X 999      46.312 130.331  14.305  1.00  0.00     0.001 A 
HETATM    7  C9  LIG X 999      45.153 131.045  13.989  1.00  0.00     0.001 A 
HETATM    8  C10 LIG X 999      44.319 131.518  15.004  1.00  0.00     0.012 A 
HETATM    9  C11 LIG X 999      44.640 131.277  16.350  1.00  0.00    -0.025 A 
HETATM   10  C12 LIG X 999      43.810 131.747  17.380  1.00  0.00     0.026 A 
ENDROOT
BRANCH   1  11
HETATM   11  C2  LIG X 999      43.230 132.018  19.792  1.00  0.00     0.132 C 
HETATM   12  C1  LIG X 999      42.116 132.709  19.510  1.00  0.00     0.121 C 
HETATM   13  O1  LIG X 999      43.543 131.735  21.119  1.00  0.00    -0.190 OA
BRANCH  12  14
HETATM   14  N1  LIG X 999      41.252 133.192  20.543  1.00  0.00    -0.406 N 
HETATM   15  H9  LIG X 999      41.446 133.018  21.554  1.00  0.00     0.155 HD
HETATM   16  H10 LIG X 999      40.401 133.740  20.286  1.00  0.00     0.155 HD
ENDBRANCH  12  14
ENDBRANCH   1  11
TORSDOF 2
ENDMDL
MODEL 5
REMARK VINA RESULT:      -8.0      3.282      5.317
REMARK  2 active torsions:
REMARK  status: ('A' for Active; 'I' for Inactive)
REMARK    1  A    between atoms: C1_1  and  N1_14 
REMARK    2  A    between atoms: C2_2  and  C3_4 
ROOT
HETATM    1  C3  LIG X 999      45.543 131.140  17.492  1.00  0.00     0.003 A 
HETATM    2  C4  LIG X 999      45.323 132.305  16.731  1.00  0.00     0.015 A 
HETATM    3  C5  LIG X 999      45.811 132.407  15.425  1.00  0.00     0.013 A 
HETATM    4  C6  LIG X 999      46.534 131.351  14.857  1.00  0.00    -0.026 A 
HETATM    5  C7  LIG X 999      47.028 131.445  13.546  1.00  0.00     0.012 A 
HETATM    6  C8  LIG X 999      47.751 130.384  12.992  1.00  0.00     0.001 A 
HETATM    7  C9  LIG X 999      47.989 129.229  13.740  1.00  0.00     0.001 A 
HETATM    8  C10 LIG X 999      47.504 129.123  15.046  1.00  0.00     0.012 A 
HETATM    9  C11 LIG X 999      46.775 130.181  15.615  1.00  0.00    -0.025 A 
HETATM   10  C12 LIG X 999      46.283 130.087  16.926  1.00  0.00     0.026 A 
ENDROOT
BRANCH   1  11
HETATM   11  C2  LIG X 999      45.046 131.012  18.887  1.00  0.00     0.132 C 
HETATM   12  C1  LIG X 999      45.806 130.506  19.869  1.00  0.00     0.121 C 
HETATM   13  O1  LIG X 999      43.760 131.457  19.177  1.00  0.00    -0.190 OA
BRANCH  12  14
HETATM   14  N1  LIG X 999      45.317 130.383  21.208  1.00  0.00    -0.406 N 
HETATM   15  H9  LIG X 999      45.332 131.182  21.879  1.00  0.00     0.155 HD
HETATM   16  H10 LIG X 999      44.927 129.469  21.529  1.00  0.00     0.155 HD
ENDBRANCH  12  14
ENDBRANCH   1  11
TORSDOF 2
ENDMDL
MODEL 6
REMARK VINA RESULT:      -7.7      3.653      5.470
REMARK  2 active torsions:
REMARK  status: ('A' for Active; 'I' for Inactive)
REMARK    1  A    between atoms: C1_1  and  N1_14 
REMARK    2  A    between atoms: C2_2  and  C3_4 
ROOT
HETATM    1  C3  LIG X 999      44.649 131.204  18.633  1.00  0.00     0.003 A 
HETATM    2  C4  LIG X 999      43.602 131.770  17.878  1.00  0.00     0.015 A 
HETATM    3  C5  LIG X 999      43.653 131.776  16.482  1.00  0.00     0.013 A 
HETATM    4  C6  LIG X 999      44.753 131.226  15.812  1.00  0.00    -0.026 A 
HETATM    5  C7  LIG X 999      44.812 131.228  14.409  1.00  0.00     0.012 A 
HETATM    6  C8  LIG X 999      45.917 130.679  13.753  1.00  0.00     0.001 A 
HETATM    7  C9  LIG X 999      46.969 130.128  14.489  1.00  0.00     0.001 A 
HETATM    8  C10 LIG X 999      46.923 130.120  15.885  1.00  0.00     0.012 A 
HETATM    9  C11 LIG X 999      45.818 130.668  16.558  1.00  0.00    -0.025 A 
HETATM   10  C12 LIG X 999      45.760 130.666  17.960  1.00  0.00     0.026 A 
ENDROOT
BRANCH   1  11
HETATM   11  C2  LIG X 999      44.626 131.197  20.119  1.00  0.00     0.132 C 
HETATM   12  C1  LIG X 999      43.527 131.526  20.814  1.00  0.00     0.121 C 
HETATM   13  O1  LIG X 999      45.777 130.812  20.800  1.00  0.00    -0.190 OA
BRANCH  12  14
HETATM   14  N1  LIG X 999      43.516 131.521  22.245  1.00  0.00    -0.406 N 
HETATM   15  H9  LIG X 999      43.358 132.390  22.801  1.00  0.00     0.155 HD
HETATM   16  H10 LIG X 999      43.666 130.623  22.756  1.00  0.00     0.155 HD
ENDBRANCH  12  14
ENDBRANCH   1  11
TORSDOF 2
ENDMDL
MODEL 7
REMARK VINA RESULT:      -7.6      1.539      2.875
REMARK  2 active torsions:
REMARK  status: ('A' for Active; 'I' for Inactive)
REMARK    1  A    between atoms: C1_1  and  N1_14 
REMARK    2  A    between atoms: C2_2  and  C3_4 
ROOT
HETATM    1  C3  LIG X 999      44.942 131.153  16.765  1.00  0.00     0.003 A 
HETATM    2  C4  LIG X 999      45.884 130.656  17.689  1.00  0.00     0.015 A 
HETATM    3  C5  LIG X 999      45.634 130.713  19.062  1.00  0.00     0.013 A 
HETATM    4  C6  LIG X 999      44.444 131.275  19.541  1.00  0.00    -0.026 A 
HETATM    5  C7  LIG X 999      44.185 131.336  20.920  1.00  0.00     0.012 A 
HETATM    6  C8  LIG X 999      42.995 131.903  21.385  1.00  0.00     0.001 A 
HETATM    7  C9  LIG X 999      42.059 132.413  20.481  1.00  0.00     0.001 A 
HETATM    8  C10 LIG X 999      42.305 132.359  19.107  1.00  0.00     0.012 A 
HETATM    9  C11 LIG X 999      43.497 131.791  18.626  1.00  0.00    -0.025 A 
HETATM   10  C12 LIG X 999      43.755 131.731  17.248  1.00  0.00     0.026 A 
ENDROOT
BRANCH   1  11
HETATM   11  C2  LIG X 999      45.190 131.116  15.300  1.00  0.00     0.132 C 
HETATM   12  C1  LIG X 999      46.418 130.940  14.791  1.00  0.00     0.121 C 
HETATM   13  O1  LIG X 999      44.104 131.245  14.439  1.00  0.00    -0.190 OA
BRANCH  12  14
HETATM   14  N1  LIG X 999      46.647 130.912  13.379  1.00  0.00    -0.406 N 
HETATM   15  H9  LIG X 999      46.994 131.747  12.857  1.00  0.00     0.155 HD
HETATM   16  H10 LIG X 999      46.468 130.031  12.848  1.00  0.00     0.155 HD
ENDBRANCH  12  14
ENDBRANCH   1  11
TORSDOF 2
ENDMDL
MODEL 8
REMARK VINA RESULT:      -6.2      4.710      6.735
REMARK  2 active torsions:
REMARK  status: ('A' for Active; 'I' for Inactive)
REMARK    1  A    between atoms: C1_1  and  N1_14 
REMARK    2  A    between atoms: C2_2  and  C3_4 
ROOT
HETATM    1  C3  LIG X 999      44.329 131.311  20.970  1.00  0.00     0.003 A 
HETATM    2  C4  LIG X 999      45.565 130.647  20.833  1.00  0.00     0.015 A 
HETATM    3  C5  LIG X 999      46.098 130.387  19.568  1.00  0.00     0.013 A 
HETATM    4  C6  LIG X 999      45.406 130.776  18.415  1.00  0.00    -0.026 A 
HETATM    5  C7  LIG X 999      45.934 130.519  17.140  1.00  0.00     0.012 A 
HETATM    6  C8  LIG X 999      45.231 130.910  15.998  1.00  0.00     0.001 A 
HETATM    7  C9  LIG X 999      43.997 131.556  16.118  1.00  0.00     0.001 A 
HETATM    8  C10 LIG X 999      43.460 131.817  17.381  1.00  0.00     0.012 A 
HETATM    9  C11 LIG X 999      44.157 131.431  18.538  1.00  0.00    -0.025 A 
HETATM   10  C12 LIG X 999      43.627 131.688  19.811  1.00  0.00     0.026 A 
ENDROOT
BRANCH   1  11
HETATM   11  C2  LIG X 999      43.734 131.588  22.303  1.00  0.00     0.132 C 
HETATM   12  C1  LIG X 999      42.415 131.491  22.528  1.00  0.00     0.121 C 
HETATM   13  O1  LIG X 999      44.583 131.934  23.351  1.00  0.00    -0.190 OA
BRANCH  12  14
HETATM   14  N1  LIG X 999      41.852 131.765  23.814  1.00  0.00    -0.406 N 
HETATM   15  H9  LIG X 999      41.838 131.051  24.576  1.00  0.00     0.155 HD
HETATM   16  H10 LIG X 999      41.445 132.706  24.006  1.00  0.00     0.155 HD
ENDBRANCH  12  14
ENDBRANCH   1  11
TORSDOF 2
ENDMDL
