REMARK VINA RESULT:      -3.3      3.925      5.500
REMARK  6 active torsions:
REMARK  status: ('A' for Active; 'I' for Inactive)
REMARK    1  A    between atoms: C8_8  and  O1_9 
REMARK    2  A    between atoms: O1_9  and  C9_10 
REMARK    3  A    between atoms: C9_10  and  C10_11 
REMARK    4  A    between atoms: C10_11  and  C11_12 
REMARK    5  A    between atoms: C11_12  and  N1_13 
REMARK    6  A    between atoms: C13_18  and  N4_19 
ROOT
HETATM    1  N1  LIG X 999      45.624 130.693  16.229  1.00  0.00    -0.116 NA
HETATM    2  N2  LIG X 999      46.354 130.790  15.242  1.00  0.00    -0.168 NA
HETATM    3  N3  LIG X 999      47.082 130.884  14.254  1.00  0.00     0.068 N 
ENDROOT
BRANCH   1   4
HETATM    4  C11 LIG X 999      44.857 131.835  16.716  1.00  0.00     0.191 C 
BRANCH   4   5
HETATM    5  C10 LIG X 999      43.515 131.404  17.329  1.00  0.00     0.051 C 
BRANCH   5   6
HETATM    6  C9  LIG X 999      43.201 132.131  18.639  1.00  0.00     0.170 C 
BRANCH   6   7
HETATM    7  O1  LIG X 999      43.435 131.265  19.728  1.00  0.00    -0.384 OA
BRANCH   7   8
HETATM    8  C8  LIG X 999      44.567 131.677  20.478  1.00  0.00     0.146 C 
HETATM    9  C7  LIG X 999      44.111 132.278  21.813  1.00  0.00     0.072 C 
HETATM   10  C5  LIG X 999      43.490 131.245  22.722  1.00  0.00    -0.047 A 
HETATM   11  C4  LIG X 999      43.807 129.868  22.606  1.00  0.00    -0.023 A 
HETATM   12  C6  LIG X 999      42.635 131.675  23.750  1.00  0.00     0.008 A 
HETATM   13  C3  LIG X 999      43.193 128.952  23.480  1.00  0.00     0.010 A 
HETATM   14  C13 LIG X 999      44.690 129.343  21.485  1.00  0.00     0.199 C 
HETATM   15  C2  LIG X 999      42.332 129.394  24.486  1.00  0.00     0.001 A 
HETATM   16  C1  LIG X 999      42.059 130.754  24.625  1.00  0.00     0.001 A 
HETATM   17  C12 LIG X 999      45.463 130.462  20.755  1.00  0.00     0.143 C 
HETATM   18 CL1  LIG X 999      46.134 129.842  19.217  1.00  0.00    -0.120 Cl
BRANCH  14  19
HETATM   19  N4  LIG X 999      45.650 128.380  22.021  1.00  0.00    -0.104 NA
HETATM   20  N5  LIG X 999      45.377 127.181  22.090  1.00  0.00    -0.167 NA
HETATM   21  N6  LIG X 999      45.105 125.983  22.159  1.00  0.00     0.068 N 
ENDBRANCH  14  19
ENDBRANCH   7   8
ENDBRANCH   6   7
ENDBRANCH   5   6
ENDBRANCH   4   5
ENDBRANCH   1   4
TORSDOF 6
