REMARK VINA RESULT:      -6.6      2.593      4.067
REMARK  4 active torsions:
REMARK  status: ('A' for Active; 'I' for Inactive)
REMARK    1  A    between atoms: C3_3  and  O1_4 
REMARK    2  A    between atoms: O1_4  and  C4_5 
REMARK    3  A    between atoms: C4_5  and  O2_6 
REMARK    4  A    between atoms: C5_8  and  C6_9 
ROOT
HETATM    1  C1  LIG X 999      44.690 128.932  22.279  1.00  0.00     0.014 C 
HETATM    2  C2  LIG X 999      45.055 129.913  21.681  1.00  0.00    -0.091 C 
HETATM    3  C3  LIG X 999      45.493 131.104  20.954  1.00  0.00     0.266 C 
ENDROOT
BRANCH   3   4
HETATM    4  O1  LIG X 999      45.331 130.879  19.572  1.00  0.00    -0.319 OA
BRANCH   4   5
HETATM    5  C4  LIG X 999      44.172 131.548  19.131  1.00  0.00     0.314 A 
HETATM    6  O3  LIG X 999      44.525 132.721  18.437  1.00  0.00    -0.312 OA
HETATM    7  C5  LIG X 999      43.888 131.715  17.681  1.00  0.00     0.254 A 
BRANCH   5   8
HETATM    8  O2  LIG X 999      43.177 131.828  20.075  1.00  0.00    -0.341 OA
HETATM    9  H4  LIG X 999      43.574 132.502  20.683  1.00  0.00     0.215 HD
ENDBRANCH   5   8
BRANCH   7  10
HETATM   10  C6  LIG X 999      44.830 131.021  16.736  1.00  0.00    -0.021 A 
HETATM   11  C7  LIG X 999      45.057 129.638  16.826  1.00  0.00     0.011 A 
HETATM   12  C8  LIG X 999      45.941 129.008  15.946  1.00  0.00     0.013 A 
HETATM   13  C9  LIG X 999      46.620 129.754  14.973  1.00  0.00    -0.026 A 
HETATM   14  C10 LIG X 999      47.506 129.131  14.080  1.00  0.00     0.012 A 
HETATM   15  C14 LIG X 999      46.415 131.153  14.893  1.00  0.00    -0.025 A 
HETATM   16  C11 LIG X 999      48.181 129.887  13.118  1.00  0.00     0.001 A 
HETATM   17  C12 LIG X 999      47.978 131.268  13.039  1.00  0.00     0.001 A 
HETATM   18  C13 LIG X 999      47.099 131.902  13.922  1.00  0.00     0.012 A 
HETATM   19  C15 LIG X 999      45.529 131.777  15.783  1.00  0.00     0.022 A 
ENDBRANCH   7  10
ENDBRANCH   4   5
ENDBRANCH   3   4
TORSDOF 4
