REMARK VINA RESULT:      -7.9      2.776      6.404
REMARK  4 active torsions:
REMARK  status: ('A' for Active; 'I' for Inactive)
REMARK    1  A    between atoms: O1_2  and  C1_3 
REMARK    2  A    between atoms: C1_3  and  N1_6 
REMARK    3  A    between atoms: N1_6  and  C4_8 
REMARK    4  A    between atoms: C4_8  and  C5_9 
ROOT
HETATM    1  C5  LIG X 999      45.194 131.428  17.366  1.00  0.00    -0.035 A 
HETATM    2  C6  LIG X 999      45.502 130.076  17.597  1.00  0.00     0.010 A 
HETATM    3  C7  LIG X 999      46.248 129.348  16.667  1.00  0.00     0.013 A 
HETATM    4  C8  LIG X 999      46.690 129.956  15.485  1.00  0.00    -0.026 A 
HETATM    5  C9  LIG X 999      47.441 129.234  14.545  1.00  0.00     0.012 A 
HETATM    6  C10 LIG X 999      47.873 129.851  13.368  1.00  0.00     0.001 A 
HETATM    7  C11 LIG X 999      47.560 131.190  13.120  1.00  0.00     0.001 A 
HETATM    8  C12 LIG X 999      46.812 131.921  14.049  1.00  0.00     0.012 A 
HETATM    9  C13 LIG X 999      46.373 131.314  15.235  1.00  0.00    -0.025 A 
HETATM   10  C14 LIG X 999      45.623 132.037  16.174  1.00  0.00     0.021 A 
ENDROOT
BRANCH   1  11
HETATM   11  C4  LIG X 999      44.367 132.213  18.363  1.00  0.00     0.113 C 
HETATM   12  C15 LIG X 999      42.959 131.614  18.456  1.00  0.00     0.037 C 
BRANCH  11  13
HETATM   13  N1  LIG X 999      45.012 132.220  19.681  1.00  0.00    -0.363 N 
HETATM   14  H6  LIG X 999      45.778 132.911  19.857  1.00  0.00     0.162 HD
BRANCH  13  15
HETATM   15  C1  LIG X 999      44.625 131.342  20.756  1.00  0.00     0.131 C 
HETATM   16  C2  LIG X 999      43.460 131.541  21.384  1.00  0.00     0.024 C 
HETATM   17  C3  LIG X 999      43.003 130.662  22.505  1.00  0.00     0.040 C 
BRANCH  15  18
HETATM   18  O1  LIG X 999      45.444 130.282  21.156  1.00  0.00    -0.347 OA
HETATM   19  H1  LIG X 999      45.108 129.504  21.707  1.00  0.00     0.219 HD
ENDBRANCH  15  18
ENDBRANCH  13  15
ENDBRANCH  11  13
ENDBRANCH   1  11
TORSDOF 4
