REMARK VINA RESULT:      -6.6      1.497      1.936
REMARK  5 active torsions:
REMARK  status: ('A' for Active; 'I' for Inactive)
REMARK    1  A    between atoms: C6_6  and  C7_7 
REMARK       I    between atoms: C7_7  and  N1_9 
REMARK    2  A    between atoms: N1_9  and  C8_11 
REMARK    3  A    between atoms: C8_11  and  C9_12 
REMARK    4  A    between atoms: C9_12  and  N2_13 
REMARK    5  A    between atoms: C13_19  and  N5_20 
ROOT
HETATM    1  N2  LIG X 999      45.327 130.692  13.904  1.00  0.00    -0.114 NA
HETATM    2  N3  LIG X 999      44.227 131.224  14.052  1.00  0.00    -0.168 NA
HETATM    3  N4  LIG X 999      43.128 131.756  14.200  1.00  0.00     0.068 N 
ENDROOT
BRANCH   1   4
HETATM    4  C9  LIG X 999      45.764 129.632  14.801  1.00  0.00     0.208 C 
BRANCH   4   5
HETATM    5  C8  LIG X 999      46.895 130.136  15.697  1.00  0.00     0.147 C 
BRANCH   5   6
HETATM    6  N1  LIG X 999      46.503 130.098  17.106  1.00  0.00    -0.355 N 
HETATM    7  C7  LIG X 999      45.648 131.091  17.696  1.00  0.00     0.251 C 
HETATM    8  O1  LIG X 999      45.285 132.088  17.010  1.00  0.00    -0.268 OA
HETATM    9  H4  LIG X 999      46.881 129.320  17.691  1.00  0.00     0.162 HD
BRANCH   7  10
HETATM   10  C6  LIG X 999      45.194 130.978  19.102  1.00  0.00     0.032 A 
HETATM   11  C1  LIG X 999      45.894 130.156  19.999  1.00  0.00     0.017 A 
HETATM   12  C2  LIG X 999      45.485 130.044  21.328  1.00  0.00     0.011 A 
HETATM   13  C3  LIG X 999      44.376 130.764  21.799  1.00  0.00    -0.024 A 
HETATM   14  C4  LIG X 999      43.657 131.592  20.903  1.00  0.00    -0.049 A 
HETATM   15  C13 LIG X 999      43.926 130.559  23.228  1.00  0.00     0.179 C 
HETATM   16  C5  LIG X 999      44.086 131.705  19.570  1.00  0.00     0.024 A 
HETATM   17  C10 LIG X 999      42.511 132.457  21.372  1.00  0.00     0.039 C 
HETATM   18  C11 LIG X 999      41.907 131.980  22.695  1.00  0.00     0.007 C 
HETATM   19  C12 LIG X 999      43.013 131.700  23.713  1.00  0.00     0.035 C 
BRANCH  15  20
HETATM   20  N5  LIG X 999      43.239 129.272  23.325  1.00  0.00    -0.105 NA
HETATM   21  N6  LIG X 999      43.748 128.321  23.919  1.00  0.00    -0.167 NA
HETATM   22  N7  LIG X 999      44.255 127.370  24.511  1.00  0.00     0.068 N 
ENDBRANCH  15  20
ENDBRANCH   7  10
ENDBRANCH   5   6
ENDBRANCH   4   5
ENDBRANCH   1   4
TORSDOF 5
