REMARK VINA RESULT:      -6.1      0.000      0.000
REMARK  5 active torsions:
REMARK  status: ('A' for Active; 'I' for Inactive)
REMARK    1  A    between atoms: C3_3  and  C4_4 
REMARK    2  A    between atoms: C4_4  and  S1_5 
REMARK    3  A    between atoms: S1_5  and  C5_6 
REMARK    4  A    between atoms: C6_7  and  N1_8 
REMARK    5  A    between atoms: C10_12  and  N2_13 
ROOT
HETATM    1  C1  LIG X 999      46.684 125.590  22.087  1.00  0.00     0.112 C 
HETATM    2  C2  LIG X 999      45.754 126.683  22.366  1.00  0.00    -0.110 C 
HETATM    3  C3  LIG X 999      44.999 127.598  22.587  1.00  0.00    -0.097 C 
ENDROOT
BRANCH   3   4
HETATM    4  C4  LIG X 999      44.097 128.724  22.841  1.00  0.00     0.173 C 
BRANCH   4   5
HETATM    5  S1  LIG X 999      45.025 130.297  22.854  1.00  0.00    -0.115 SA
BRANCH   5   6
HETATM    6  C5  LIG X 999      43.760 131.239  21.957  1.00  0.00     0.038 A 
HETATM    7  C6  LIG X 999      42.698 131.833  22.672  1.00  0.00     0.043 A 
HETATM    8  C7  LIG X 999      41.700 132.524  21.981  1.00  0.00     0.031 A 
HETATM    9  C8  LIG X 999      41.726 132.627  20.593  1.00  0.00     0.017 A 
HETATM   10  C9  LIG X 999      42.765 132.044  19.846  1.00  0.00     0.002 A 
HETATM   11  C10 LIG X 999      42.800 132.128  18.421  1.00  0.00     0.045 A 
HETATM   12  C14 LIG X 999      43.820 131.374  20.544  1.00  0.00    -0.004 A 
HETATM   13  C11 LIG X 999      43.901 131.573  17.752  1.00  0.00     0.003 A 
HETATM   14  C12 LIG X 999      44.915 130.969  18.424  1.00  0.00    -0.021 A 
HETATM   15  C18 LIG X 999      44.168 131.531  16.292  1.00  0.00     0.278 C 
HETATM   16  C13 LIG X 999      44.911 130.858  19.808  1.00  0.00     0.023 A 
HETATM   17  C15 LIG X 999      45.954 130.482  17.491  1.00  0.00     0.276 C 
HETATM   18  N3  LIG X 999      45.384 130.675  16.124  1.00  0.00    -0.067 N 
HETATM   19  C16 LIG X 999      46.369 131.333  15.234  1.00  0.00     0.272 C 
HETATM   20  C17 LIG X 999      45.008 129.365  15.540  1.00  0.00     0.272 C 
BRANCH   7  21
HETATM   21  N1  LIG X 999      42.611 131.749  24.103  1.00  0.00    -0.398 N 
HETATM   22  H6  LIG X 999      42.579 130.820  24.577  1.00  0.00     0.156 HD
HETATM   23  H7  LIG X 999      42.566 132.593  24.713  1.00  0.00     0.156 HD
ENDBRANCH   7  21
BRANCH  11  24
HETATM   24  N2  LIG X 999      41.746 132.734  17.655  1.00  0.00    -0.398 N 
HETATM   25  H10 LIG X 999      41.806 132.875  16.625  1.00  0.00     0.156 HD
HETATM   26  H11 LIG X 999      40.920 133.162  18.130  1.00  0.00     0.156 HD
ENDBRANCH  11  24
ENDBRANCH   5   6
ENDBRANCH   4   5
ENDBRANCH   3   4
TORSDOF 5
