REMARK VINA RESULT:      -8.2      1.826      2.560
REMARK  3 active torsions:
REMARK  status: ('A' for Active; 'I' for Inactive)
REMARK    1  A    between atoms: C3_3  and  S1_4 
REMARK    2  A    between atoms: S1_4  and  C4_7 
REMARK    3  A    between atoms: C13_16  and  N1_17 
ROOT
HETATM    1  C1  LIG X 999      48.382 129.511  13.377  1.00  0.00     0.013 C 
HETATM    2  C2  LIG X 999      47.548 129.555  14.246  1.00  0.00    -0.102 C 
HETATM    3  C3  LIG X 999      46.534 129.612  15.302  1.00  0.00     0.238 C 
ENDROOT
BRANCH   3   4
HETATM    4  S1  LIG X 999      45.633 131.147  15.205  1.00  0.00     0.185 S 
HETATM    5  O1  LIG X 999      44.702 131.103  14.027  1.00  0.00    -0.222 OA
HETATM    6  O2  LIG X 999      46.595 132.287  15.012  1.00  0.00    -0.222 OA
BRANCH   4   7
HETATM    7  C4  LIG X 999      44.706 131.388  16.683  1.00  0.00     0.060 A 
HETATM    8  C5  LIG X 999      43.337 131.663  16.614  1.00  0.00     0.024 A 
HETATM    9  C6  LIG X 999      42.593 131.827  17.783  1.00  0.00     0.011 A 
HETATM   10  C7  LIG X 999      43.204 131.712  19.043  1.00  0.00    -0.022 A 
HETATM   11  C8  LIG X 999      44.591 131.436  19.116  1.00  0.00    -0.048 A 
HETATM   12  C13 LIG X 999      42.371 131.961  20.289  1.00  0.00     0.217 C 
HETATM   13  C9  LIG X 999      45.325 131.263  17.932  1.00  0.00     0.031 A 
HETATM   14  C10 LIG X 999      45.284 131.191  20.436  1.00  0.00     0.039 C 
HETATM   15  C11 LIG X 999      44.521 131.774  21.627  1.00  0.00     0.007 C 
HETATM   16  C12 LIG X 999      43.042 131.394  21.557  1.00  0.00     0.038 C 
BRANCH  12  17
HETATM   17  N1  LIG X 999      42.091 133.398  20.433  1.00  0.00    -0.071 N 
HETATM   18  H14 LIG X 999      41.639 133.587  21.357  1.00  0.00     0.275 HD
HETATM   19  H15 LIG X 999      41.428 133.706  19.684  1.00  0.00     0.275 HD
HETATM   20  H16 LIG X 999      42.968 133.961  20.354  1.00  0.00     0.275 HD
ENDBRANCH  12  17
ENDBRANCH   4   7
ENDBRANCH   3   4
TORSDOF 3
