REMARK VINA RESULT:      -7.3      2.148      4.793
REMARK  1 active torsions:
REMARK  status: ('A' for Active; 'I' for Inactive)
REMARK    1  A    between atoms: N1_2  and  C1_3 
ROOT
HETATM    1  C1  LIG X 999      44.173 131.481  17.090  1.00  0.00     0.120 C 
HETATM    2  C2  LIG X 999      45.226 130.996  17.866  1.00  0.00     0.057 C 
HETATM    3  C3  LIG X 999      45.160 131.047  19.265  1.00  0.00    -0.045 C 
HETATM    4  C4  LIG X 999      46.454 130.794  20.000  1.00  0.00     0.049 C 
HETATM    5  C5  LIG X 999      43.944 131.467  19.893  1.00  0.00     0.008 C 
HETATM    6  C6  LIG X 999      43.659 131.363  21.296  1.00  0.00    -0.013 C 
HETATM    7  C7  LIG X 999      44.352 130.491  22.171  1.00  0.00     0.013 C 
HETATM    8  C8  LIG X 999      44.075 130.470  23.539  1.00  0.00     0.001 C 
HETATM    9  C9  LIG X 999      43.071 131.277  24.065  1.00  0.00     0.001 C 
HETATM   10  C10 LIG X 999      42.299 132.066  23.217  1.00  0.00     0.012 C 
HETATM   11  C11 LIG X 999      42.557 132.086  21.836  1.00  0.00    -0.025 C 
HETATM   12  C12 LIG X 999      41.687 132.775  20.990  1.00  0.00     0.014 C 
HETATM   13  C13 LIG X 999      41.855 132.718  19.614  1.00  0.00     0.031 C 
HETATM   14  C14 LIG X 999      42.961 132.067  19.054  1.00  0.00     0.045 C 
HETATM   15  N2  LIG X 999      43.092 132.036  17.696  1.00  0.00    -0.341 N 
HETATM   16  H12 LIG X 999      42.340 132.448  17.095  1.00  0.00     0.167 HD
ENDROOT
BRANCH   1  17
HETATM   17  N1  LIG X 999      44.236 131.447  15.795  1.00  0.00    -0.284 NA
HETATM   18  H1  LIG X 999      43.466 131.804  15.184  1.00  0.00     0.188 HD
ENDBRANCH   1  17
TORSDOF 1
