REMARK VINA RESULT:      -6.2      0.000      0.000
REMARK  4 active torsions:
REMARK  status: ('A' for Active; 'I' for Inactive)
REMARK    1  A    between atoms: C4_4  and  N1_5 
REMARK    2  A    between atoms: C7_10  and  S1_11 
REMARK    3  A    between atoms: S1_11  and  C8_12 
REMARK    4  A    between atoms: C8_12  and  C9_13 
ROOT
HETATM    1  N1  LIG X 999      41.220 127.336  24.623  1.00  0.00    -0.071 NA
HETATM    2  N2  LIG X 999      40.130 127.252  24.056  1.00  0.00    -0.162 NA
HETATM    3  N3  LIG X 999      39.034 127.168  23.502  1.00  0.00     0.068 N 
ENDROOT
BRANCH   1   4
HETATM    4  C4  LIG X 999      42.440 127.720  23.963  1.00  0.00     0.108 A 
HETATM    5  C3  LIG X 999      43.267 126.694  23.492  1.00  0.00     0.008 A 
HETATM    6  C2  LIG X 999      44.467 126.948  22.911  1.00  0.00    -0.021 A 
HETATM    7  C15 LIG X 999      43.039 125.232  23.575  1.00  0.00     0.278 C 
HETATM    8  C1  LIG X 999      44.911 128.245  22.702  1.00  0.00     0.018 A 
HETATM    9  C18 LIG X 999      45.157 125.693  22.546  1.00  0.00     0.276 C 
HETATM   10  C6  LIG X 999      44.088 129.325  23.072  1.00  0.00    -0.035 A 
HETATM   11  C5  LIG X 999      42.846 129.075  23.742  1.00  0.00    -0.018 A 
HETATM   12  C7  LIG X 999      44.525 130.727  22.699  1.00  0.00     0.081 C 
HETATM   13  C14 LIG X 999      42.034 130.229  24.304  1.00  0.00     0.042 C 
HETATM   14  C13 LIG X 999      42.442 131.616  23.798  1.00  0.00     0.006 C 
HETATM   15  C12 LIG X 999      43.961 131.749  23.691  1.00  0.00     0.020 C 
HETATM   16  N4  LIG X 999      44.297 124.589  23.077  1.00  0.00    -0.067 N 
HETATM   17  C16 LIG X 999      44.989 123.894  24.189  1.00  0.00     0.272 C 
HETATM   18  C17 LIG X 999      43.994 123.606  22.012  1.00  0.00     0.272 C 
BRANCH  12  19
HETATM   19  S1  LIG X 999      43.967 131.164  20.996  1.00  0.00    -0.147 SA
BRANCH  19  20
HETATM   20  C8  LIG X 999      45.512 130.827  20.085  1.00  0.00     0.168 C 
BRANCH  20  21
HETATM   21  C9  LIG X 999      45.308 131.105  18.662  1.00  0.00    -0.097 C 
HETATM   22  C10 LIG X 999      45.158 131.346  17.491  1.00  0.00    -0.110 C 
HETATM   23  C11 LIG X 999      44.991 131.649  16.070  1.00  0.00     0.112 C 
ENDBRANCH  20  21
ENDBRANCH  19  20
ENDBRANCH  12  19
ENDBRANCH   1   4
TORSDOF 4
