MODEL 1
REMARK VINA RESULT:      -7.2      0.000      0.000
REMARK  3 active torsions:
REMARK  status: ('A' for Active; 'I' for Inactive)
REMARK       I    between atoms: N1_2  and  C3_4 
REMARK    1  A    between atoms: C3_4  and  O2_6 
REMARK    2  A    between atoms: O2_6  and  C4_7 
REMARK    3  A    between atoms: C7_10  and  N2_11 
ROOT
HETATM    1  C4  LIG X 999      45.035 130.884  18.260  1.00  0.00     0.092 A 
HETATM    2  C5  LIG X 999      46.083 130.473  19.096  1.00  0.00     0.040 A 
HETATM    3  C6  LIG X 999      46.039 130.721  20.464  1.00  0.00     0.033 A 
HETATM    4  C7  LIG X 999      44.946 131.377  21.046  1.00  0.00     0.037 A 
HETATM    5  C8  LIG X 999      43.850 131.762  20.228  1.00  0.00     0.003 A 
HETATM    6  C9  LIG X 999      42.690 132.368  20.761  1.00  0.00     0.014 A 
HETATM    7  C10 LIG X 999      41.633 132.740  19.930  1.00  0.00     0.001 A 
HETATM    8  C11 LIG X 999      41.702 132.510  18.558  1.00  0.00     0.001 A 
HETATM    9  C12 LIG X 999      42.826 131.899  18.007  1.00  0.00     0.015 A 
HETATM   10  C13 LIG X 999      43.906 131.512  18.826  1.00  0.00     0.010 A 
ENDROOT
BRANCH   1  11
HETATM   11  O2  LIG X 999      45.067 130.636  16.878  1.00  0.00    -0.261 OA
BRANCH  11  12
HETATM   12  C3  LIG X 999      45.828 131.351  15.940  1.00  0.00     0.367 C 
HETATM   13  N1  LIG X 999      46.486 130.646  14.875  1.00  0.00    -0.336 N 
HETATM   14  C1  LIG X 999      47.268 131.387  13.882  1.00  0.00     0.154 C 
HETATM   15  C2  LIG X 999      46.369 129.187  14.802  1.00  0.00     0.154 C 
HETATM   16  O1  LIG X 999      45.894 132.609  15.998  1.00  0.00    -0.238 OA
ENDBRANCH  11  12
ENDBRANCH   1  11
BRANCH   4  17
HETATM   17  N2  LIG X 999      44.990 131.638  22.458  1.00  0.00    -0.398 N 
HETATM   18  H9  LIG X 999      44.150 131.454  23.052  1.00  0.00     0.156 HD
HETATM   19  H10 LIG X 999      45.860 131.906  22.963  1.00  0.00     0.156 HD
ENDBRANCH   4  17
TORSDOF 3
ENDMDL
MODEL 2
REMARK VINA RESULT:      -6.9      1.479      2.871
REMARK  3 active torsions:
REMARK  status: ('A' for Active; 'I' for Inactive)
REMARK       I    between atoms: N1_2  and  C3_4 
REMARK    1  A    between atoms: C3_4  and  O2_6 
REMARK    2  A    between atoms: O2_6  and  C4_7 
REMARK    3  A    between atoms: C7_10  and  N2_11 
ROOT
HETATM    1  C4  LIG X 999      44.835 131.148  17.134  1.00  0.00     0.092 A 
HETATM    2  C5  LIG X 999      43.696 131.593  16.449  1.00  0.00     0.040 A 
HETATM    3  C6  LIG X 999      42.575 132.033  17.147  1.00  0.00     0.033 A 
HETATM    4  C7  LIG X 999      42.557 132.054  18.548  1.00  0.00     0.037 A 
HETATM    5  C8  LIG X 999      43.715 131.652  19.265  1.00  0.00     0.003 A 
HETATM    6  C9  LIG X 999      43.786 131.710  20.674  1.00  0.00     0.014 A 
HETATM    7  C10 LIG X 999      44.937 131.302  21.350  1.00  0.00     0.001 A 
HETATM    8  C11 LIG X 999      46.041 130.837  20.639  1.00  0.00     0.001 A 
HETATM    9  C12 LIG X 999      46.006 130.784  19.247  1.00  0.00     0.015 A 
HETATM   10  C13 LIG X 999      44.857 131.193  18.543  1.00  0.00     0.010 A 
ENDROOT
BRANCH   1  11
HETATM   11  O2  LIG X 999      45.973 130.703  16.440  1.00  0.00    -0.261 OA
BRANCH  11  12
HETATM   12  C3  LIG X 999      46.503 131.293  15.283  1.00  0.00     0.367 C 
HETATM   13  N1  LIG X 999      47.120 130.466  14.282  1.00  0.00    -0.336 N 
HETATM   14  C1  LIG X 999      47.660 131.074  13.064  1.00  0.00     0.154 C 
HETATM   15  C2  LIG X 999      47.203 129.020  14.502  1.00  0.00     0.154 C 
HETATM   16  O1  LIG X 999      46.397 132.536  15.095  1.00  0.00    -0.238 OA
ENDBRANCH  11  12
ENDBRANCH   1  11
BRANCH   4  17
HETATM   17  N2  LIG X 999      41.350 132.481  19.200  1.00  0.00    -0.398 N 
HETATM   18  H9  LIG X 999      41.307 133.414  19.667  1.00  0.00     0.156 HD
HETATM   19  H10 LIG X 999      40.454 131.952  19.148  1.00  0.00     0.156 HD
ENDBRANCH   4  17
TORSDOF 3
ENDMDL
MODEL 3
REMARK VINA RESULT:      -6.3      3.241      6.003
REMARK  3 active torsions:
REMARK  status: ('A' for Active; 'I' for Inactive)
REMARK       I    between atoms: N1_2  and  C3_4 
REMARK    1  A    between atoms: C3_4  and  O2_6 
REMARK    2  A    between atoms: O2_6  and  C4_7 
REMARK    3  A    between atoms: C7_10  and  N2_11 
ROOT
HETATM    1  C4  LIG X 999      43.926 131.486  21.187  1.00  0.00     0.092 A 
HETATM    2  C5  LIG X 999      42.680 132.081  21.430  1.00  0.00     0.040 A 
HETATM    3  C6  LIG X 999      41.894 132.538  20.377  1.00  0.00     0.033 A 
HETATM    4  C7  LIG X 999      42.318 132.408  19.048  1.00  0.00     0.037 A 
HETATM    5  C8  LIG X 999      43.556 131.767  18.772  1.00  0.00     0.003 A 
HETATM    6  C9  LIG X 999      44.011 131.546  17.453  1.00  0.00     0.014 A 
HETATM    7  C10 LIG X 999      45.235 130.918  17.216  1.00  0.00     0.001 A 
HETATM    8  C11 LIG X 999      46.024 130.491  18.280  1.00  0.00     0.001 A 
HETATM    9  C12 LIG X 999      45.593 130.680  19.592  1.00  0.00     0.015 A 
HETATM   10  C13 LIG X 999      44.360 131.309  19.857  1.00  0.00     0.010 A 
ENDROOT
BRANCH   1  11
HETATM   11  O2  LIG X 999      44.727 131.019  22.243  1.00  0.00    -0.261 OA
BRANCH  11  12
HETATM   12  C3  LIG X 999      44.264 130.329  23.372  1.00  0.00     0.367 C 
HETATM   13  N1  LIG X 999      44.409 128.900  23.441  1.00  0.00    -0.336 N 
HETATM   14  C1  LIG X 999      43.944 128.174  24.625  1.00  0.00     0.154 C 
HETATM   15  C2  LIG X 999      45.019 128.188  22.314  1.00  0.00     0.154 C 
HETATM   16  O1  LIG X 999      43.768 130.958  24.347  1.00  0.00    -0.238 OA
ENDBRANCH  11  12
ENDBRANCH   1  11
BRANCH   4  17
HETATM   17  N2  LIG X 999      41.474 132.942  18.015  1.00  0.00    -0.398 N 
HETATM   18  H9  LIG X 999      41.425 133.973  17.858  1.00  0.00     0.156 HD
HETATM   19  H10 LIG X 999      40.973 132.347  17.322  1.00  0.00     0.156 HD
ENDBRANCH   4  17
TORSDOF 3
ENDMDL
MODEL 4
REMARK VINA RESULT:      -5.6      1.102      2.805
REMARK  3 active torsions:
REMARK  status: ('A' for Active; 'I' for Inactive)
REMARK       I    between atoms: N1_2  and  C3_4 
REMARK    1  A    between atoms: C3_4  and  O2_6 
REMARK    2  A    between atoms: O2_6  and  C4_7 
REMARK    3  A    between atoms: C7_10  and  N2_11 
ROOT
HETATM    1  C4  LIG X 999      43.405 131.520  17.739  1.00  0.00     0.092 A 
HETATM    2  C5  LIG X 999      42.178 132.192  17.826  1.00  0.00     0.040 A 
HETATM    3  C6  LIG X 999      41.685 132.613  19.058  1.00  0.00     0.033 A 
HETATM    4  C7  LIG X 999      42.404 132.388  20.239  1.00  0.00     0.037 A 
HETATM    5  C8  LIG X 999      43.672 131.751  20.172  1.00  0.00     0.003 A 
HETATM    6  C9  LIG X 999      44.476 131.552  21.317  1.00  0.00     0.014 A 
HETATM    7  C10 LIG X 999      45.716 130.918  21.218  1.00  0.00     0.001 A 
HETATM    8  C11 LIG X 999      46.183 130.477  19.982  1.00  0.00     0.001 A 
HETATM    9  C12 LIG X 999      45.419 130.674  18.834  1.00  0.00     0.015 A 
HETATM   10  C13 LIG X 999      44.166 131.314  18.908  1.00  0.00     0.010 A 
ENDROOT
BRANCH   1  11
HETATM   11  O2  LIG X 999      43.913 131.093  16.500  1.00  0.00    -0.261 OA
BRANCH  11  12
HETATM   12  C3  LIG X 999      45.141 131.482  15.945  1.00  0.00     0.367 C 
HETATM   13  N1  LIG X 999      45.911 130.533  15.188  1.00  0.00    -0.336 N 
HETATM   14  C1  LIG X 999      47.186 130.938  14.590  1.00  0.00     0.154 C 
HETATM   15  C2  LIG X 999      45.407 129.166  15.031  1.00  0.00     0.154 C 
HETATM   16  O1  LIG X 999      45.547 132.671  16.064  1.00  0.00    -0.238 OA
ENDBRANCH  11  12
ENDBRANCH   1  11
BRANCH   4  17
HETATM   17  N2  LIG X 999      41.814 132.812  21.479  1.00  0.00    -0.398 N 
HETATM   18  H9  LIG X 999      42.246 133.589  22.027  1.00  0.00     0.156 HD
HETATM   19  H10 LIG X 999      40.898 132.458  21.826  1.00  0.00     0.156 HD
ENDBRANCH   4  17
TORSDOF 3
ENDMDL
MODEL 5
REMARK VINA RESULT:      -5.2      2.085      5.947
REMARK  3 active torsions:
REMARK  status: ('A' for Active; 'I' for Inactive)
REMARK       I    between atoms: N1_2  and  C3_4 
REMARK    1  A    between atoms: C3_4  and  O2_6 
REMARK    2  A    between atoms: O2_6  and  C4_7 
REMARK    3  A    between atoms: C7_10  and  N2_11 
ROOT
HETATM    1  C4  LIG X 999      44.936 131.075  17.398  1.00  0.00     0.092 A 
HETATM    2  C5  LIG X 999      43.641 131.610  17.344  1.00  0.00     0.040 A 
HETATM    3  C6  LIG X 999      43.029 131.864  16.120  1.00  0.00     0.033 A 
HETATM    4  C7  LIG X 999      43.681 131.583  14.913  1.00  0.00     0.037 A 
HETATM    5  C8  LIG X 999      44.976 130.997  14.941  1.00  0.00     0.003 A 
HETATM    6  C9  LIG X 999      45.661 130.629  13.761  1.00  0.00     0.014 A 
HETATM    7  C10 LIG X 999      46.934 130.060  13.823  1.00  0.00     0.001 A 
HETATM    8  C11 LIG X 999      47.546 129.838  15.054  1.00  0.00     0.001 A 
HETATM    9  C12 LIG X 999      46.887 130.175  16.234  1.00  0.00     0.015 A 
HETATM   10  C13 LIG X 999      45.600 130.748  16.198  1.00  0.00     0.010 A 
ENDROOT
BRANCH   1  11
HETATM   11  O2  LIG X 999      45.563 130.812  18.628  1.00  0.00    -0.261 OA
BRANCH  11  12
HETATM   12  C3  LIG X 999      45.209 131.383  19.860  1.00  0.00     0.367 C 
HETATM   13  N1  LIG X 999      45.141 130.554  21.033  1.00  0.00    -0.336 N 
HETATM   14  C1  LIG X 999      44.790 131.145  22.326  1.00  0.00     0.154 C 
HETATM   15  C2  LIG X 999      45.421 129.121  20.913  1.00  0.00     0.154 C 
HETATM   16  O1  LIG X 999      45.001 132.623  19.953  1.00  0.00    -0.238 OA
ENDBRANCH  11  12
ENDBRANCH   1  11
BRANCH   4  17
HETATM   17  N2  LIG X 999      43.005 131.911  13.689  1.00  0.00    -0.398 N 
HETATM   18  H9  LIG X 999      42.335 131.233  13.261  1.00  0.00     0.156 HD
HETATM   19  H10 LIG X 999      43.059 132.850  13.240  1.00  0.00     0.156 HD
ENDBRANCH   4  17
TORSDOF 3
ENDMDL
MODEL 6
REMARK VINA RESULT:      -5.0      3.064      5.820
REMARK  3 active torsions:
REMARK  status: ('A' for Active; 'I' for Inactive)
REMARK       I    between atoms: N1_2  and  C3_4 
REMARK    1  A    between atoms: C3_4  and  O2_6 
REMARK    2  A    between atoms: O2_6  and  C4_7 
REMARK    3  A    between atoms: C7_10  and  N2_11 
ROOT
HETATM    1  C4  LIG X 999      44.873 130.569  21.087  1.00  0.00     0.092 A 
HETATM    2  C5  LIG X 999      45.858 130.219  20.153  1.00  0.00     0.040 A 
HETATM    3  C6  LIG X 999      45.755 130.623  18.826  1.00  0.00     0.033 A 
HETATM    4  C7  LIG X 999      44.673 131.398  18.388  1.00  0.00     0.037 A 
HETATM    5  C8  LIG X 999      43.684 131.805  19.324  1.00  0.00     0.003 A 
HETATM    6  C9  LIG X 999      42.604 132.640  18.962  1.00  0.00     0.014 A 
HETATM    7  C10 LIG X 999      41.646 133.018  19.905  1.00  0.00     0.001 A 
HETATM    8  C11 LIG X 999      41.747 132.583  21.223  1.00  0.00     0.001 A 
HETATM    9  C12 LIG X 999      42.812 131.772  21.613  1.00  0.00     0.015 A 
HETATM   10  C13 LIG X 999      43.793 131.380  20.681  1.00  0.00     0.010 A 
ENDROOT
BRANCH   1  11
HETATM   11  O2  LIG X 999      44.969 130.168  22.430  1.00  0.00    -0.261 OA
BRANCH  11  12
HETATM   12  C3  LIG X 999      44.608 128.909  22.932  1.00  0.00     0.367 C 
HETATM   13  N1  LIG X 999      43.687 128.820  24.032  1.00  0.00    -0.336 N 
HETATM   14  C1  LIG X 999      43.291 127.508  24.550  1.00  0.00     0.154 C 
HETATM   15  C2  LIG X 999      43.160 130.052  24.625  1.00  0.00     0.154 C 
HETATM   16  O1  LIG X 999      45.046 127.857  22.391  1.00  0.00    -0.238 OA
ENDBRANCH  11  12
ENDBRANCH   1  11
BRANCH   4  17
HETATM   17  N2  LIG X 999      44.609 131.742  16.994  1.00  0.00    -0.398 N 
HETATM   18  H9  LIG X 999      44.452 130.999  16.277  1.00  0.00     0.156 HD
HETATM   19  H10 LIG X 999      44.604 132.724  16.647  1.00  0.00     0.156 HD
ENDBRANCH   4  17
TORSDOF 3
ENDMDL
MODEL 7
REMARK VINA RESULT:      -4.9      4.478      6.299
REMARK  3 active torsions:
REMARK  status: ('A' for Active; 'I' for Inactive)
REMARK       I    between atoms: N1_2  and  C3_4 
REMARK    1  A    between atoms: C3_4  and  O2_6 
REMARK    2  A    between atoms: O2_6  and  C4_7 
REMARK    3  A    between atoms: C7_10  and  N2_11 
ROOT
HETATM    1  C4  LIG X 999      44.698 128.479  22.828  1.00  0.00     0.092 A 
HETATM    2  C5  LIG X 999      43.738 128.408  23.847  1.00  0.00     0.040 A 
HETATM    3  C6  LIG X 999      42.836 129.448  24.046  1.00  0.00     0.033 A 
HETATM    4  C7  LIG X 999      42.853 130.587  23.231  1.00  0.00     0.037 A 
HETATM    5  C8  LIG X 999      43.786 130.664  22.162  1.00  0.00     0.003 A 
HETATM    6  C9  LIG X 999      43.814 131.754  21.264  1.00  0.00     0.014 A 
HETATM    7  C10 LIG X 999      44.747 131.801  20.226  1.00  0.00     0.001 A 
HETATM    8  C11 LIG X 999      45.663 130.765  20.057  1.00  0.00     0.001 A 
HETATM    9  C12 LIG X 999      45.647 129.669  20.917  1.00  0.00     0.015 A 
HETATM   10  C13 LIG X 999      44.714 129.597  21.970  1.00  0.00     0.010 A 
ENDROOT
BRANCH   1  11
HETATM   11  O2  LIG X 999      45.613 127.433  22.617  1.00  0.00    -0.261 OA
BRANCH  11  12
HETATM   12  C3  LIG X 999      45.277 126.086  22.414  1.00  0.00     0.367 C 
HETATM   13  N1  LIG X 999      46.315 125.093  22.383  1.00  0.00    -0.336 N 
HETATM   14  C1  LIG X 999      45.970 123.682  22.189  1.00  0.00     0.154 C 
HETATM   15  C2  LIG X 999      47.710 125.510  22.542  1.00  0.00     0.154 C 
HETATM   16  O1  LIG X 999      44.069 125.739  22.309  1.00  0.00    -0.238 OA
ENDBRANCH  11  12
ENDBRANCH   1  11
BRANCH   4  17
HETATM   17  N2  LIG X 999      41.921 131.641  23.522  1.00  0.00    -0.398 N 
HETATM   18  H9  LIG X 999      41.885 132.492  22.918  1.00  0.00     0.156 HD
HETATM   19  H10 LIG X 999      41.183 131.565  24.254  1.00  0.00     0.156 HD
ENDBRANCH   4  17
TORSDOF 3
ENDMDL
MODEL 8
REMARK VINA RESULT:      -4.8      1.958      3.457
REMARK  3 active torsions:
REMARK  status: ('A' for Active; 'I' for Inactive)
REMARK       I    between atoms: N1_2  and  C3_4 
REMARK    1  A    between atoms: C3_4  and  O2_6 
REMARK    2  A    between atoms: O2_6  and  C4_7 
REMARK    3  A    between atoms: C7_10  and  N2_11 
ROOT
HETATM    1  C4  LIG X 999      44.179 131.470  19.812  1.00  0.00     0.092 A 
HETATM    2  C5  LIG X 999      43.230 132.484  19.998  1.00  0.00     0.040 A 
HETATM    3  C6  LIG X 999      42.491 132.558  21.175  1.00  0.00     0.033 A 
HETATM    4  C7  LIG X 999      42.681 131.632  22.208  1.00  0.00     0.037 A 
HETATM    5  C8  LIG X 999      43.670 130.622  22.064  1.00  0.00     0.003 A 
HETATM    6  C9  LIG X 999      43.957 129.697  23.093  1.00  0.00     0.014 A 
HETATM    7  C10 LIG X 999      44.931 128.713  22.917  1.00  0.00     0.001 A 
HETATM    8  C11 LIG X 999      45.644 128.633  21.723  1.00  0.00     0.001 A 
HETATM    9  C12 LIG X 999      45.393 129.543  20.697  1.00  0.00     0.015 A 
HETATM   10  C13 LIG X 999      44.417 130.547  20.851  1.00  0.00     0.010 A 
ENDROOT
BRANCH   1  11
HETATM   11  O2  LIG X 999      44.932 131.387  18.629  1.00  0.00    -0.261 OA
BRANCH  11  12
HETATM   12  C3  LIG X 999      44.407 131.374  17.328  1.00  0.00     0.367 C 
HETATM   13  N1  LIG X 999      45.109 130.678  16.285  1.00  0.00    -0.336 N 
HETATM   14  C1  LIG X 999      44.557 130.645  14.929  1.00  0.00     0.154 C 
HETATM   15  C2  LIG X 999      46.376 130.012  16.597  1.00  0.00     0.154 C 
HETATM   16  O1  LIG X 999      43.300 131.927  17.082  1.00  0.00    -0.238 OA
ENDBRANCH  11  12
ENDBRANCH   1  11
BRANCH   4  17
HETATM   17  N2  LIG X 999      41.852 131.744  23.376  1.00  0.00    -0.398 N 
HETATM   18  H9  LIG X 999      42.264 132.057  24.283  1.00  0.00     0.156 HD
HETATM   19  H10 LIG X 999      40.817 131.633  23.355  1.00  0.00     0.156 HD
ENDBRANCH   4  17
TORSDOF 3
ENDMDL
MODEL 9
REMARK VINA RESULT:      -4.6      4.893      6.739
REMARK  3 active torsions:
REMARK  status: ('A' for Active; 'I' for Inactive)
REMARK       I    between atoms: N1_2  and  C3_4 
REMARK    1  A    between atoms: C3_4  and  O2_6 
REMARK    2  A    between atoms: O2_6  and  C4_7 
REMARK    3  A    between atoms: C7_10  and  N2_11 
ROOT
HETATM    1  C4  LIG X 999      43.499 128.990  23.295  1.00  0.00     0.092 A 
HETATM    2  C5  LIG X 999      42.260 129.139  23.934  1.00  0.00     0.040 A 
HETATM    3  C6  LIG X 999      41.529 128.026  24.334  1.00  0.00     0.033 A 
HETATM    4  C7  LIG X 999      42.012 126.728  24.122  1.00  0.00     0.037 A 
HETATM    5  C8  LIG X 999      43.287 126.550  23.518  1.00  0.00     0.003 A 
HETATM    6  C9  LIG X 999      43.860 125.272  23.335  1.00  0.00     0.014 A 
HETATM    7  C10 LIG X 999      45.112 125.131  22.733  1.00  0.00     0.001 A 
HETATM    8  C11 LIG X 999      45.820 126.254  22.312  1.00  0.00     0.001 A 
HETATM    9  C12 LIG X 999      45.286 127.528  22.495  1.00  0.00     0.015 A 
HETATM   10  C13 LIG X 999      44.026 127.696  23.102  1.00  0.00     0.010 A 
ENDROOT
BRANCH   1  11
HETATM   11  O2  LIG X 999      44.247 130.108  22.888  1.00  0.00    -0.261 OA
BRANCH  11  12
HETATM   12  C3  LIG X 999      43.846 131.051  21.930  1.00  0.00     0.367 C 
HETATM   13  N1  LIG X 999      44.599 131.193  20.715  1.00  0.00    -0.336 N 
HETATM   14  C1  LIG X 999      44.176 132.164  19.702  1.00  0.00     0.154 C 
HETATM   15  C2  LIG X 999      45.789 130.363  20.509  1.00  0.00     0.154 C 
HETATM   16  O1  LIG X 999      42.802 131.737  22.108  1.00  0.00    -0.238 OA
ENDBRANCH  11  12
ENDBRANCH   1  11
BRANCH   4  17
HETATM   17  N2  LIG X 999      41.184 125.625  24.523  1.00  0.00    -0.398 N 
HETATM   18  H9  LIG X 999      40.636 125.676  25.411  1.00  0.00     0.156 HD
HETATM   19  H10 LIG X 999      41.003 124.796  23.919  1.00  0.00     0.156 HD
ENDBRANCH   4  17
TORSDOF 3
ENDMDL
