MODEL 1
REMARK VINA RESULT:      -8.4      0.000      0.000
REMARK  4 active torsions:
REMARK  status: ('A' for Active; 'I' for Inactive)
REMARK    1  A    between atoms: C3_3  and  O1_4 
REMARK    2  A    between atoms: O1_4  and  C4_5 
REMARK    3  A    between atoms: C4_5  and  C5_7 
REMARK    4  A    between atoms: C5_7  and  C6_8 
ROOT
HETATM    1  C1  LIG X 999      48.423 129.348  13.495  1.00  0.00     0.014 C 
HETATM    2  C2  LIG X 999      47.642 130.259  13.613  1.00  0.00    -0.091 C 
HETATM    3  C3  LIG X 999      46.695 131.364  13.756  1.00  0.00     0.271 C 
ENDROOT
BRANCH   3   4
HETATM    4  O1  LIG X 999      45.469 130.865  14.278  1.00  0.00    -0.309 OA
BRANCH   4   5
HETATM    5  C4  LIG X 999      45.390 130.178  15.492  1.00  0.00     0.263 C 
HETATM    6  O2  LIG X 999      44.988 128.983  15.531  1.00  0.00    -0.265 OA
BRANCH   5   7
HETATM    7  C5  LIG X 999      45.824 130.855  16.753  1.00  0.00     0.150 C 
BRANCH   7   8
HETATM    8  C6  LIG X 999      44.619 131.289  17.559  1.00  0.00    -0.038 A 
HETATM    9  C7  LIG X 999      43.469 131.693  16.859  1.00  0.00     0.008 A 
HETATM   10  C8  LIG X 999      42.315 132.084  17.537  1.00  0.00     0.001 A 
HETATM   11  C9  LIG X 999      42.281 132.071  18.929  1.00  0.00     0.012 A 
HETATM   12  C10 LIG X 999      43.403 131.660  19.661  1.00  0.00    -0.025 A 
HETATM   13  C11 LIG X 999      43.353 131.640  21.063  1.00  0.00     0.012 A 
HETATM   14  C15 LIG X 999      44.588 131.259  18.982  1.00  0.00    -0.019 A 
HETATM   15  C12 LIG X 999      44.461 131.224  21.801  1.00  0.00     0.001 A 
HETATM   16  C13 LIG X 999      45.626 130.825  21.150  1.00  0.00     0.001 A 
HETATM   17  C14 LIG X 999      45.695 130.841  19.755  1.00  0.00     0.013 A 
ENDBRANCH   7   8
ENDBRANCH   5   7
ENDBRANCH   4   5
ENDBRANCH   3   4
TORSDOF 4
ENDMDL
MODEL 2
REMARK VINA RESULT:      -8.3      1.078      1.415
REMARK  4 active torsions:
REMARK  status: ('A' for Active; 'I' for Inactive)
REMARK    1  A    between atoms: C3_3  and  O1_4 
REMARK    2  A    between atoms: O1_4  and  C4_5 
REMARK    3  A    between atoms: C4_5  and  C5_7 
REMARK    4  A    between atoms: C5_7  and  C6_8 
ROOT
HETATM    1  C1  LIG X 999      47.628 130.982  13.014  1.00  0.00     0.014 C 
HETATM    2  C2  LIG X 999      46.721 131.267  13.756  1.00  0.00    -0.091 C 
HETATM    3  C3  LIG X 999      45.621 131.612  14.656  1.00  0.00     0.271 C 
ENDROOT
BRANCH   3   4
HETATM    4  O1  LIG X 999      46.087 131.572  16.000  1.00  0.00    -0.309 OA
BRANCH   4   5
HETATM    5  C4  LIG X 999      45.769 130.530  16.876  1.00  0.00     0.263 C 
HETATM    6  O2  LIG X 999      45.498 129.379  16.437  1.00  0.00    -0.265 OA
BRANCH   5   7
HETATM    7  C5  LIG X 999      45.787 130.775  18.352  1.00  0.00     0.150 C 
BRANCH   7   8
HETATM    8  C6  LIG X 999      44.454 131.327  18.810  1.00  0.00    -0.038 A 
HETATM    9  C7  LIG X 999      43.524 131.703  17.826  1.00  0.00     0.008 A 
HETATM   10  C8  LIG X 999      42.269 132.199  18.176  1.00  0.00     0.001 A 
HETATM   11  C9  LIG X 999      41.912 132.321  19.516  1.00  0.00     0.012 A 
HETATM   12  C10 LIG X 999      42.808 131.942  20.525  1.00  0.00    -0.025 A 
HETATM   13  C11 LIG X 999      42.432 132.059  21.872  1.00  0.00     0.012 A 
HETATM   14  C15 LIG X 999      44.093 131.436  20.183  1.00  0.00    -0.019 A 
HETATM   15  C12 LIG X 999      43.312 131.676  22.884  1.00  0.00     0.001 A 
HETATM   16  C13 LIG X 999      44.571 131.175  22.563  1.00  0.00     0.001 A 
HETATM   17  C14 LIG X 999      44.964 131.054  21.228  1.00  0.00     0.013 A 
ENDBRANCH   7   8
ENDBRANCH   5   7
ENDBRANCH   4   5
ENDBRANCH   3   4
TORSDOF 4
ENDMDL
MODEL 3
REMARK VINA RESULT:      -8.1      1.091      2.607
REMARK  4 active torsions:
REMARK  status: ('A' for Active; 'I' for Inactive)
REMARK    1  A    between atoms: C3_3  and  O1_4 
REMARK    2  A    between atoms: O1_4  and  C4_5 
REMARK    3  A    between atoms: C4_5  and  C5_7 
REMARK    4  A    between atoms: C5_7  and  C6_8 
ROOT
HETATM    1  C1  LIG X 999      47.813 130.807  12.969  1.00  0.00     0.014 C 
HETATM    2  C2  LIG X 999      47.170 130.251  13.824  1.00  0.00    -0.091 C 
HETATM    3  C3  LIG X 999      46.391 129.575  14.862  1.00  0.00     0.271 C 
ENDROOT
BRANCH   3   4
HETATM    4  O1  LIG X 999      45.187 130.300  15.088  1.00  0.00    -0.309 OA
BRANCH   4   5
HETATM    5  C4  LIG X 999      45.146 131.474  15.845  1.00  0.00     0.263 C 
HETATM    6  O2  LIG X 999      46.044 132.351  15.722  1.00  0.00    -0.265 OA
BRANCH   5   7
HETATM    7  C5  LIG X 999      44.003 131.709  16.781  1.00  0.00     0.150 C 
BRANCH   7   8
HETATM    8  C6  LIG X 999      44.410 131.377  18.201  1.00  0.00    -0.038 A 
HETATM    9  C7  LIG X 999      45.636 130.718  18.398  1.00  0.00     0.008 A 
HETATM   10  C8  LIG X 999      46.083 130.401  19.680  1.00  0.00     0.001 A 
HETATM   11  C9  LIG X 999      45.321 130.744  20.794  1.00  0.00     0.012 A 
HETATM   12  C10 LIG X 999      44.101 131.415  20.637  1.00  0.00    -0.025 A 
HETATM   13  C11 LIG X 999      43.347 131.765  21.768  1.00  0.00     0.012 A 
HETATM   14  C15 LIG X 999      43.631 131.744  19.335  1.00  0.00    -0.019 A 
HETATM   15  C12 LIG X 999      42.136 132.441  21.624  1.00  0.00     0.001 A 
HETATM   16  C13 LIG X 999      41.666 132.773  20.355  1.00  0.00     0.001 A 
HETATM   17  C14 LIG X 999      42.401 132.430  19.219  1.00  0.00     0.013 A 
ENDBRANCH   7   8
ENDBRANCH   5   7
ENDBRANCH   4   5
ENDBRANCH   3   4
TORSDOF 4
ENDMDL
MODEL 4
REMARK VINA RESULT:      -7.0      1.143      2.724
REMARK  4 active torsions:
REMARK  status: ('A' for Active; 'I' for Inactive)
REMARK    1  A    between atoms: C3_3  and  O1_4 
REMARK    2  A    between atoms: O1_4  and  C4_5 
REMARK    3  A    between atoms: C4_5  and  C5_7 
REMARK    4  A    between atoms: C5_7  and  C6_8 
ROOT
HETATM    1  C1  LIG X 999      48.683 129.552  13.449  1.00  0.00     0.014 C 
HETATM    2  C2  LIG X 999      47.548 129.813  13.763  1.00  0.00    -0.091 C 
HETATM    3  C3  LIG X 999      46.172 130.130  14.144  1.00  0.00     0.271 C 
ENDROOT
BRANCH   3   4
HETATM    4  O1  LIG X 999      46.141 131.411  14.762  1.00  0.00    -0.309 OA
BRANCH   4   5
HETATM    5  C4  LIG X 999      45.723 131.601  16.082  1.00  0.00     0.263 C 
HETATM    6  O2  LIG X 999      45.733 132.751  16.601  1.00  0.00    -0.265 OA
BRANCH   5   7
HETATM    7  C5  LIG X 999      45.223 130.434  16.873  1.00  0.00     0.150 C 
BRANCH   7   8
HETATM    8  C6  LIG X 999      45.106 130.802  18.337  1.00  0.00    -0.038 A 
HETATM    9  C7  LIG X 999      46.197 130.518  19.176  1.00  0.00     0.008 A 
HETATM   10  C8  LIG X 999      46.167 130.849  20.530  1.00  0.00     0.001 A 
HETATM   11  C9  LIG X 999      45.050 131.480  21.073  1.00  0.00     0.012 A 
HETATM   12  C10 LIG X 999      43.951 131.793  20.264  1.00  0.00    -0.025 A 
HETATM   13  C11 LIG X 999      42.836 132.439  20.820  1.00  0.00     0.012 A 
HETATM   14  C15 LIG X 999      43.966 131.460  18.880  1.00  0.00    -0.019 A 
HETATM   15  C12 LIG X 999      41.739 132.763  20.023  1.00  0.00     0.001 A 
HETATM   16  C13 LIG X 999      41.743 132.447  18.666  1.00  0.00     0.001 A 
HETATM   17  C14 LIG X 999      42.842 131.801  18.095  1.00  0.00     0.013 A 
ENDBRANCH   7   8
ENDBRANCH   5   7
ENDBRANCH   4   5
ENDBRANCH   3   4
TORSDOF 4
ENDMDL
MODEL 5
REMARK VINA RESULT:      -7.0      3.231      6.060
REMARK  4 active torsions:
REMARK  status: ('A' for Active; 'I' for Inactive)
REMARK    1  A    between atoms: C3_3  and  O1_4 
REMARK    2  A    between atoms: O1_4  and  C4_5 
REMARK    3  A    between atoms: C4_5  and  C5_7 
REMARK    4  A    between atoms: C5_7  and  C6_8 
ROOT
HETATM    1  C1  LIG X 999      45.116 126.500  22.189  1.00  0.00     0.014 C 
HETATM    2  C2  LIG X 999      44.748 127.478  22.793  1.00  0.00    -0.091 C 
HETATM    3  C3  LIG X 999      44.304 128.663  23.524  1.00  0.00     0.271 C 
ENDROOT
BRANCH   3   4
HETATM    4  O1  LIG X 999      43.820 129.630  22.599  1.00  0.00    -0.309 OA
BRANCH   4   5
HETATM    5  C4  LIG X 999      44.320 130.933  22.540  1.00  0.00     0.263 C 
HETATM    6  O2  LIG X 999      44.184 131.720  23.517  1.00  0.00    -0.265 OA
BRANCH   5   7
HETATM    7  C5  LIG X 999      45.055 131.388  21.319  1.00  0.00     0.150 C 
BRANCH   7   8
HETATM    8  C6  LIG X 999      44.085 131.651  20.188  1.00  0.00    -0.038 A 
HETATM    9  C7  LIG X 999      42.839 132.219  20.507  1.00  0.00     0.008 A 
HETATM   10  C8  LIG X 999      41.906 132.508  19.513  1.00  0.00     0.001 A 
HETATM   11  C9  LIG X 999      42.200 132.246  18.177  1.00  0.00     0.012 A 
HETATM   12  C10 LIG X 999      43.437 131.695  17.820  1.00  0.00    -0.025 A 
HETATM   13  C11 LIG X 999      43.726 131.446  16.469  1.00  0.00     0.012 A 
HETATM   14  C15 LIG X 999      44.399 131.393  18.824  1.00  0.00    -0.019 A 
HETATM   15  C12 LIG X 999      44.958 130.906  16.100  1.00  0.00     0.001 A 
HETATM   16  C13 LIG X 999      45.911 130.610  17.073  1.00  0.00     0.001 A 
HETATM   17  C14 LIG X 999      45.640 130.848  18.422  1.00  0.00     0.013 A 
ENDBRANCH   7   8
ENDBRANCH   5   7
ENDBRANCH   4   5
ENDBRANCH   3   4
TORSDOF 4
ENDMDL
MODEL 6
REMARK VINA RESULT:      -6.6      1.080      2.363
REMARK  4 active torsions:
REMARK  status: ('A' for Active; 'I' for Inactive)
REMARK    1  A    between atoms: C3_3  and  O1_4 
REMARK    2  A    between atoms: O1_4  and  C4_5 
REMARK    3  A    between atoms: C4_5  and  C5_7 
REMARK    4  A    between atoms: C5_7  and  C6_8 
ROOT
HETATM    1  C1  LIG X 999      48.165 129.397  14.044  1.00  0.00     0.014 C 
HETATM    2  C2  LIG X 999      47.373 130.304  13.995  1.00  0.00    -0.091 C 
HETATM    3  C3  LIG X 999      46.411 131.405  13.935  1.00  0.00     0.271 C 
ENDROOT
BRANCH   3   4
HETATM    4  O1  LIG X 999      45.614 131.395  15.114  1.00  0.00    -0.309 OA
BRANCH   4   5
HETATM    5  C4  LIG X 999      44.220 131.483  15.081  1.00  0.00     0.263 C 
HETATM    6  O2  LIG X 999      43.583 131.225  14.023  1.00  0.00    -0.265 OA
BRANCH   5   7
HETATM    7  C5  LIG X 999      43.474 131.850  16.325  1.00  0.00     0.150 C 
BRANCH   7   8
HETATM    8  C6  LIG X 999      44.245 131.408  17.551  1.00  0.00    -0.038 A 
HETATM    9  C7  LIG X 999      45.491 130.787  17.356  1.00  0.00     0.008 A 
HETATM   10  C8  LIG X 999      46.264 130.374  18.440  1.00  0.00     0.001 A 
HETATM   11  C9  LIG X 999      45.814 130.580  19.742  1.00  0.00     0.012 A 
HETATM   12  C10 LIG X 999      44.584 131.209  19.974  1.00  0.00    -0.025 A 
HETATM   13  C11 LIG X 999      44.146 131.421  21.291  1.00  0.00     0.012 A 
HETATM   14  C15 LIG X 999      43.783 131.635  18.878  1.00  0.00    -0.019 A 
HETATM   15  C12 LIG X 999      42.928 132.054  21.535  1.00  0.00     0.001 A 
HETATM   16  C13 LIG X 999      42.137 132.481  20.470  1.00  0.00     0.001 A 
HETATM   17  C14 LIG X 999      42.554 132.275  19.154  1.00  0.00     0.013 A 
ENDBRANCH   7   8
ENDBRANCH   5   7
ENDBRANCH   4   5
ENDBRANCH   3   4
TORSDOF 4
ENDMDL
MODEL 7
REMARK VINA RESULT:      -6.5      1.495      2.154
REMARK  4 active torsions:
REMARK  status: ('A' for Active; 'I' for Inactive)
REMARK    1  A    between atoms: C3_3  and  O1_4 
REMARK    2  A    between atoms: O1_4  and  C4_5 
REMARK    3  A    between atoms: C4_5  and  C5_7 
REMARK    4  A    between atoms: C5_7  and  C6_8 
ROOT
HETATM    1  C1  LIG X 999      47.231 131.012  13.103  1.00  0.00     0.014 C 
HETATM    2  C2  LIG X 999      46.957 130.622  14.210  1.00  0.00    -0.091 C 
HETATM    3  C3  LIG X 999      46.624 130.149  15.554  1.00  0.00     0.271 C 
ENDROOT
BRANCH   3   4
HETATM    4  O1  LIG X 999      46.128 131.238  16.324  1.00  0.00    -0.309 OA
BRANCH   4   5
HETATM    5  C4  LIG X 999      45.103 131.093  17.262  1.00  0.00     0.263 C 
HETATM    6  O2  LIG X 999      43.893 131.137  16.905  1.00  0.00    -0.265 OA
BRANCH   5   7
HETATM    7  C5  LIG X 999      45.444 130.846  18.697  1.00  0.00     0.150 C 
BRANCH   7   8
HETATM    8  C6  LIG X 999      44.343 131.365  19.597  1.00  0.00    -0.038 A 
HETATM    9  C7  LIG X 999      43.462 132.326  19.072  1.00  0.00     0.008 A 
HETATM   10  C8  LIG X 999      42.412 132.831  19.837  1.00  0.00     0.001 A 
HETATM   11  C9  LIG X 999      42.214 132.382  21.140  1.00  0.00     0.012 A 
HETATM   12  C10 LIG X 999      43.064 131.414  21.692  1.00  0.00    -0.025 A 
HETATM   13  C11 LIG X 999      42.847 130.961  23.002  1.00  0.00     0.012 A 
HETATM   14  C15 LIG X 999      44.140 130.890  20.923  1.00  0.00    -0.019 A 
HETATM   15  C12 LIG X 999      43.681 129.991  23.559  1.00  0.00     0.001 A 
HETATM   16  C13 LIG X 999      44.736 129.466  22.815  1.00  0.00     0.001 A 
HETATM   17  C14 LIG X 999      44.968 129.907  21.511  1.00  0.00     0.013 A 
ENDBRANCH   7   8
ENDBRANCH   5   7
ENDBRANCH   4   5
ENDBRANCH   3   4
TORSDOF 4
ENDMDL
MODEL 8
REMARK VINA RESULT:      -6.4      2.611      6.197
REMARK  4 active torsions:
REMARK  status: ('A' for Active; 'I' for Inactive)
REMARK    1  A    between atoms: C3_3  and  O1_4 
REMARK    2  A    between atoms: O1_4  and  C4_5 
REMARK    3  A    between atoms: C4_5  and  C5_7 
REMARK    4  A    between atoms: C5_7  and  C6_8 
ROOT
HETATM    1  C1  LIG X 999      42.480 129.743  23.966  1.00  0.00     0.014 C 
HETATM    2  C2  LIG X 999      43.432 129.757  23.225  1.00  0.00    -0.091 C 
HETATM    3  C3  LIG X 999      44.586 129.774  22.327  1.00  0.00     0.271 C 
ENDROOT
BRANCH   3   4
HETATM    4  O1  LIG X 999      44.607 131.008  21.617  1.00  0.00    -0.309 OA
BRANCH   4   5
HETATM    5  C4  LIG X 999      45.637 131.353  20.737  1.00  0.00     0.263 C 
HETATM    6  O2  LIG X 999      46.366 132.358  20.961  1.00  0.00    -0.265 OA
BRANCH   5   7
HETATM    7  C5  LIG X 999      45.900 130.499  19.537  1.00  0.00     0.150 C 
BRANCH   7   8
HETATM    8  C6  LIG X 999      45.003 130.913  18.390  1.00  0.00    -0.038 A 
HETATM    9  C7  LIG X 999      43.797 131.565  18.699  1.00  0.00     0.008 A 
HETATM   10  C8  LIG X 999      42.934 131.994  17.692  1.00  0.00     0.001 A 
HETATM   11  C9  LIG X 999      43.260 131.789  16.354  1.00  0.00     0.012 A 
HETATM   12  C10 LIG X 999      44.461 131.156  16.007  1.00  0.00    -0.025 A 
HETATM   13  C11 LIG X 999      44.785 130.965  14.655  1.00  0.00     0.012 A 
HETATM   14  C15 LIG X 999      45.352 130.712  17.025  1.00  0.00    -0.019 A 
HETATM   15  C12 LIG X 999      45.982 130.345  14.298  1.00  0.00     0.001 A 
HETATM   16  C13 LIG X 999      46.865 129.909  15.284  1.00  0.00     0.001 A 
HETATM   17  C14 LIG X 999      46.558 130.087  16.635  1.00  0.00     0.013 A 
ENDBRANCH   7   8
ENDBRANCH   5   7
ENDBRANCH   4   5
ENDBRANCH   3   4
TORSDOF 4
ENDMDL
MODEL 9
REMARK VINA RESULT:      -5.9      3.982      6.557
REMARK  4 active torsions:
REMARK  status: ('A' for Active; 'I' for Inactive)
REMARK    1  A    between atoms: C3_3  and  O1_4 
REMARK    2  A    between atoms: O1_4  and  C4_5 
REMARK    3  A    between atoms: C4_5  and  C5_7 
REMARK    4  A    between atoms: C5_7  and  C6_8 
ROOT
HETATM    1  C1  LIG X 999      45.431 126.828  22.110  1.00  0.00     0.014 C 
HETATM    2  C2  LIG X 999      44.999 127.377  23.093  1.00  0.00    -0.091 C 
HETATM    3  C3  LIG X 999      44.475 128.043  24.285  1.00  0.00     0.271 C 
ENDROOT
BRANCH   3   4
HETATM    4  O1  LIG X 999      44.614 129.451  24.133  1.00  0.00    -0.309 OA
BRANCH   4   5
HETATM    5  C4  LIG X 999      43.740 130.215  23.356  1.00  0.00     0.263 C 
HETATM    6  O2  LIG X 999      42.547 129.845  23.177  1.00  0.00    -0.265 OA
BRANCH   5   7
HETATM    7  C5  LIG X 999      44.214 131.503  22.762  1.00  0.00     0.150 C 
BRANCH   7   8
HETATM    8  C6  LIG X 999      44.544 131.317  21.296  1.00  0.00    -0.038 A 
HETATM    9  C7  LIG X 999      45.758 130.688  20.969  1.00  0.00     0.008 A 
HETATM   10  C8  LIG X 999      46.116 130.464  19.641  1.00  0.00     0.001 A 
HETATM   11  C9  LIG X 999      45.266 130.855  18.610  1.00  0.00     0.012 A 
HETATM   12  C10 LIG X 999      44.041 131.471  18.898  1.00  0.00    -0.025 A 
HETATM   13  C11 LIG X 999      43.187 131.850  17.850  1.00  0.00     0.012 A 
HETATM   14  C15 LIG X 999      43.662 131.707  20.249  1.00  0.00    -0.019 A 
HETATM   15  C12 LIG X 999      41.961 132.455  18.125  1.00  0.00     0.001 A 
HETATM   16  C13 LIG X 999      41.576 132.688  19.444  1.00  0.00     0.001 A 
HETATM   17  C14 LIG X 999      42.414 132.321  20.499  1.00  0.00     0.013 A 
ENDBRANCH   7   8
ENDBRANCH   5   7
ENDBRANCH   4   5
ENDBRANCH   3   4
TORSDOF 4
ENDMDL
