REMARK VINA RESULT:      -4.0      2.831      4.094
REMARK  5 active torsions:
REMARK  status: ('A' for Active; 'I' for Inactive)
REMARK    1  A    between atoms: C3_3  and  N1_4 
REMARK    2  A    between atoms: N1_4  and  C6_7 
REMARK    3  A    between atoms: C6_7  and  C7_8 
REMARK    4  A    between atoms: C9_10  and  C10_11 
REMARK    5  A    between atoms: C11_15  and  N4_16 
ROOT
HETATM    1  C1  LIG X 999      46.501 130.600  14.145  1.00  0.00     0.013 C 
HETATM    2  C2  LIG X 999      46.167 131.341  15.036  1.00  0.00    -0.089 C 
HETATM    3  C3  LIG X 999      45.757 132.248  16.126  1.00  0.00     0.329 C 
ENDROOT
BRANCH   3   4
HETATM    4  N1  LIG X 999      44.986 131.568  17.211  1.00  0.00    -0.061 N 
HETATM    5  C4  LIG X 999      45.592 130.233  17.445  1.00  0.00     0.273 C 
HETATM    6  C5  LIG X 999      43.586 131.351  16.765  1.00  0.00     0.273 C 
BRANCH   4   7
HETATM    7  C6  LIG X 999      44.959 132.358  18.485  1.00  0.00     0.275 C 
BRANCH   7   8
HETATM    8  C7  LIG X 999      44.888 131.518  19.746  1.00  0.00    -0.035 C 
HETATM    9  C8  LIG X 999      43.843 131.631  20.593  1.00  0.00     0.001 C 
HETATM   10  C9  LIG X 999      43.876 130.943  21.941  1.00  0.00     0.054 C 
HETATM   11  C12 LIG X 999      42.446 130.743  22.501  1.00  0.00     0.023 C 
HETATM   12  C16 LIG X 999      44.516 129.536  21.745  1.00  0.00     0.028 C 
HETATM   13  C13 LIG X 999      42.467 129.945  23.820  1.00  0.00     0.002 C 
HETATM   14  C14 LIG X 999      43.183 128.593  23.662  1.00  0.00     0.001 C 
HETATM   15  C15 LIG X 999      44.592 128.754  23.067  1.00  0.00     0.010 C 
HETATM   16  C17 LIG X 999      45.841 129.648  21.032  1.00  0.00    -0.020 C 
HETATM   17  C18 LIG X 999      45.977 130.547  20.048  1.00  0.00     0.005 C 
BRANCH  10  18
HETATM   18  C10 LIG X 999      44.684 131.839  22.867  1.00  0.00     0.182 A 
HETATM   19  N2  LIG X 999      44.451 131.963  24.194  1.00  0.00    -0.149 NA
HETATM   20  N3  LIG X 999      45.311 132.870  24.625  1.00  0.00    -0.236 N 
HETATM   21  H13 LIG X 999      45.394 133.199  25.611  1.00  0.00     0.193 HD
HETATM   22  C11 LIG X 999      46.024 133.272  23.564  1.00  0.00     0.301 A 
HETATM   23  O1  LIG X 999      45.646 132.649  22.475  1.00  0.00    -0.257 OA
BRANCH  22  24
HETATM   24  N4  LIG X 999      47.053 134.258  23.620  1.00  0.00    -0.025 NA
HETATM   25  N5  LIG X 999      47.821 134.418  22.670  1.00  0.00    -0.158 NA
HETATM   26  N6  LIG X 999      48.587 134.579  21.722  1.00  0.00     0.068 N 
ENDBRANCH  22  24
ENDBRANCH  10  18
ENDBRANCH   7   8
ENDBRANCH   4   7
ENDBRANCH   3   4
TORSDOF 5
