REMARK VINA RESULT:      -6.9      2.141      3.167
REMARK  4 active torsions:
REMARK  status: ('A' for Active; 'I' for Inactive)
REMARK    1  A    between atoms: C3_3  and  O1_4 
REMARK    2  A    between atoms: O1_4  and  C4_5 
REMARK    3  A    between atoms: C4_5  and  O2_6 
REMARK    4  A    between atoms: C5_8  and  C6_9 
ROOT
HETATM    1  C1  LIG X 999      48.373 134.002  22.277  1.00  0.00     0.014 C 
HETATM    2  C2  LIG X 999      47.396 133.572  21.717  1.00  0.00    -0.091 C 
HETATM    3  C3  LIG X 999      46.211 133.050  21.036  1.00  0.00     0.270 C 
ENDROOT
BRANCH   3   4
HETATM    4  O1  LIG X 999      46.515 131.778  20.480  1.00  0.00    -0.319 OA
BRANCH   4   5
HETATM    5  C4  LIG X 999      45.619 130.706  20.525  1.00  0.00     0.179 C 
HETATM    6  C5  LIG X 999      45.174 130.141  19.394  1.00  0.00     0.075 C 
BRANCH   5   7
HETATM    7  O2  LIG X 999      45.208 130.204  21.762  1.00  0.00    -0.341 OA
HETATM    8  H4  LIG X 999      45.650 130.485  22.631  1.00  0.00     0.220 HD
ENDBRANCH   5   7
BRANCH   6   9
HETATM    9  C6  LIG X 999      45.543 130.600  18.035  1.00  0.00    -0.031 A 
HETATM   10  C7  LIG X 999      45.119 131.844  17.531  1.00  0.00     0.012 A 
HETATM   11  C8  LIG X 999      45.463 132.240  16.236  1.00  0.00     0.013 A 
HETATM   12  C9  LIG X 999      46.221 131.393  15.416  1.00  0.00    -0.026 A 
HETATM   13  C10 LIG X 999      46.572 131.783  14.114  1.00  0.00     0.012 A 
HETATM   14  C14 LIG X 999      46.629 130.129  15.905  1.00  0.00    -0.025 A 
HETATM   15  C11 LIG X 999      47.323 130.925  13.305  1.00  0.00     0.001 A 
HETATM   16  C12 LIG X 999      47.725 129.677  13.786  1.00  0.00     0.001 A 
HETATM   17  C13 LIG X 999      47.382 129.277  15.080  1.00  0.00     0.012 A 
HETATM   18  C15 LIG X 999      46.279 129.739  17.206  1.00  0.00     0.024 A 
ENDBRANCH   6   9
ENDBRANCH   4   5
ENDBRANCH   3   4
TORSDOF 4
