REMARK VINA RESULT:      -4.9      4.871      6.723
REMARK  4 active torsions:
REMARK  status: ('A' for Active; 'I' for Inactive)
REMARK    1  A    between atoms: C3_4  and  O1_5 
REMARK    2  A    between atoms: C3_4  and  O2_6 
REMARK    3  A    between atoms: O2_6  and  C4_7 
REMARK    4  A    between atoms: C7_10  and  N2_11 
ROOT
HETATM    1  C4  LIG X 999      44.705 128.440  22.827  1.00  0.00     0.091 A 
HETATM    2  C5  LIG X 999      43.785 128.388  23.882  1.00  0.00     0.040 A 
HETATM    3  C6  LIG X 999      42.880 129.426  24.086  1.00  0.00     0.033 A 
HETATM    4  C7  LIG X 999      42.874 130.555  23.257  1.00  0.00     0.037 A 
HETATM    5  C8  LIG X 999      43.799 130.632  22.179  1.00  0.00     0.003 A 
HETATM    6  C9  LIG X 999      43.825 131.725  21.285  1.00  0.00     0.014 A 
HETATM    7  C10 LIG X 999      44.754 131.774  20.244  1.00  0.00     0.001 A 
HETATM    8  C11 LIG X 999      45.669 130.740  20.068  1.00  0.00     0.001 A 
HETATM    9  C12 LIG X 999      45.656 129.642  20.926  1.00  0.00     0.015 A 
HETATM   10  C13 LIG X 999      44.728 129.568  21.982  1.00  0.00     0.010 A 
ENDROOT
BRANCH   1  11
HETATM   11  O2  LIG X 999      45.634 127.405  22.627  1.00  0.00    -0.273 OA
BRANCH  11  12
HETATM   12  C3  LIG X 999      45.310 126.052  22.449  1.00  0.00     0.265 C 
HETATM   13  N1  LIG X 999      46.266 125.152  22.459  1.00  0.00    -0.350 N 
HETATM   14  C1  LIG X 999      47.656 125.579  22.680  1.00  0.00     0.153 C 
HETATM   15  C2  LIG X 999      45.979 123.725  22.259  1.00  0.00     0.153 C 
BRANCH  12  16
HETATM   16  O1  LIG X 999      43.972 125.701  22.222  1.00  0.00    -0.327 OA
HETATM   17  H7  LIG X 999      43.552 125.626  21.305  1.00  0.00     0.221 HD
ENDBRANCH  12  16
ENDBRANCH  11  12
ENDBRANCH   1  11
BRANCH   4  18
HETATM   18  N2  LIG X 999      41.934 131.602  23.549  1.00  0.00    -0.398 N 
HETATM   19  H10 LIG X 999      41.474 132.181  22.818  1.00  0.00     0.156 HD
HETATM   20  H11 LIG X 999      41.753 131.880  24.540  1.00  0.00     0.156 HD
ENDBRANCH   4  18
TORSDOF 4
