REMARK VINA RESULT:      -6.8      0.790      1.610
REMARK  4 active torsions:
REMARK  status: ('A' for Active; 'I' for Inactive)
REMARK    1  A    between atoms: C1_2  and  C2_4 
REMARK    2  A    between atoms: C8_10  and  C9_11 
REMARK       I    between atoms: C9_11  and  N1_13 
REMARK    3  A    between atoms: N1_13  and  S1_14 
REMARK    4  A    between atoms: S1_14  and  C10_17 
ROOT
HETATM    1  C9  LIG X 999      44.301 129.822  23.340  1.00  0.00     0.259 C 
HETATM    2  O3  LIG X 999      43.933 130.861  23.951  1.00  0.00    -0.270 OA
HETATM    3  N1  LIG X 999      44.549 129.871  21.932  1.00  0.00    -0.122 NA
ENDROOT
BRANCH   3   4
HETATM    4  S1  LIG X 999      44.341 131.318  21.006  1.00  0.00     0.286 S 
HETATM    5  O4  LIG X 999      42.901 131.742  21.084  1.00  0.00    -0.198 OA
HETATM    6  O5  LIG X 999      45.205 132.404  21.582  1.00  0.00    -0.198 OA
BRANCH   4   7
HETATM    7  C10 LIG X 999      44.813 131.030  19.335  1.00  0.00     0.082 A 
HETATM    8  C11 LIG X 999      45.968 130.288  19.055  1.00  0.00     0.026 A 
HETATM    9  C12 LIG X 999      46.350 130.046  17.733  1.00  0.00     0.014 A 
HETATM   10  C13 LIG X 999      45.582 130.551  16.673  1.00  0.00    -0.026 A 
HETATM   11  C14 LIG X 999      45.958 130.315  15.341  1.00  0.00     0.012 A 
HETATM   12  C18 LIG X 999      44.418 131.309  16.951  1.00  0.00    -0.025 A 
HETATM   13  C15 LIG X 999      45.187 130.829  14.295  1.00  0.00     0.001 A 
HETATM   14  C16 LIG X 999      44.039 131.579  14.568  1.00  0.00     0.001 A 
HETATM   15  C17 LIG X 999      43.653 131.818  15.890  1.00  0.00     0.012 A 
HETATM   16  C19 LIG X 999      44.042 131.544  18.282  1.00  0.00     0.037 A 
ENDBRANCH   4   7
ENDBRANCH   3   4
BRANCH   1  17
HETATM   17  C8  LIG X 999      44.534 128.525  24.083  1.00  0.00     0.099 C 
HETATM   18  C2  LIG X 999      43.243 127.738  24.461  1.00  0.00     0.104 C 
HETATM   19  C3  LIG X 999      43.485 126.361  23.791  1.00  0.00     0.001 C 
HETATM   20  C4  LIG X 999      44.583 125.619  24.579  1.00  0.00     0.006 C 
HETATM   21  C7  LIG X 999      44.233 126.732  22.529  1.00  0.00     0.011 C 
HETATM   22  C5  LIG X 999      45.858 126.398  24.206  1.00  0.00     0.006 C 
HETATM   23  C6  LIG X 999      45.328 127.485  23.251  1.00  0.00    -0.000 C 
BRANCH  18  24
HETATM   24  C1  LIG X 999      41.944 128.380  24.024  1.00  0.00     0.178 C 
HETATM   25  O1  LIG X 999      41.251 127.831  23.128  1.00  0.00    -0.648 OA
HETATM   26  O2  LIG X 999      41.480 129.545  24.624  1.00  0.00    -0.648 OA
ENDBRANCH  18  24
ENDBRANCH   1  17
TORSDOF 4
