REMARK VINA RESULT:      -8.4      0.000      0.000
REMARK  1 active torsions:
REMARK  status: ('A' for Active; 'I' for Inactive)
REMARK    1  A    between atoms: C8_9  and  N2_10 
ROOT
HETATM    1  C1  LIG X 999      45.312 129.500  14.875  1.00  0.00     0.283 C 
HETATM    2  N1  LIG X 999      45.622 130.694  15.688  1.00  0.00    -0.005 N 
HETATM    3  C2  LIG X 999      46.392 131.676  14.896  1.00  0.00     0.283 C 
HETATM    4  C3  LIG X 999      46.349 130.322  16.947  1.00  0.00     0.286 A 
HETATM    5  C4  LIG X 999      45.463 130.751  18.075  1.00  0.00    -0.015 A 
HETATM    6  C5  LIG X 999      45.691 130.625  19.445  1.00  0.00     0.022 A 
HETATM    7  C6  LIG X 999      44.711 131.103  20.339  1.00  0.00    -0.023 A 
HETATM    8  C7  LIG X 999      44.898 130.998  21.726  1.00  0.00     0.041 A 
HETATM    9  C8  LIG X 999      43.921 131.475  22.611  1.00  0.00     0.026 A 
HETATM   10  C9  LIG X 999      42.750 132.060  22.107  1.00  0.00     0.030 A 
HETATM   11  C10 LIG X 999      42.549 132.172  20.729  1.00  0.00     0.014 A 
HETATM   12  C11 LIG X 999      43.518 131.700  19.834  1.00  0.00    -0.025 A 
HETATM   13  C12 LIG X 999      43.323 131.809  18.443  1.00  0.00     0.030 A 
HETATM   14  C13 LIG X 999      44.321 131.323  17.599  1.00  0.00     0.049 A 
HETATM   15  C14 LIG X 999      44.398 131.297  16.164  1.00  0.00     0.351 A 
HETATM   16  O1  LIG X 999      43.500 131.750  15.402  1.00  0.00    -0.259 OA
ENDROOT
BRANCH   9  17
HETATM   17  N2  LIG X 999      44.116 131.365  24.023  1.00  0.00    -0.399 N 
HETATM   18  H11 LIG X 999      44.820 130.700  24.416  1.00  0.00     0.156 HD
HETATM   19  H12 LIG X 999      43.558 131.947  24.688  1.00  0.00     0.156 HD
ENDBRANCH   9  17
TORSDOF 1
