REMARK VINA RESULT:      -5.7      3.020      6.117
REMARK  1 active torsions:
REMARK  status: ('A' for Active; 'I' for Inactive)
REMARK    1  A    between atoms: C12_14  and  N2_15 
ROOT
HETATM    1  C1  LIG X 999      41.871 132.642  21.066  1.00  0.00     0.001 A 
HETATM    2  C2  LIG X 999      41.622 132.887  19.719  1.00  0.00     0.001 A 
HETATM    3  C3  LIG X 999      42.507 132.429  18.739  1.00  0.00     0.013 A 
HETATM    4  C4  LIG X 999      43.670 131.707  19.093  1.00  0.00    -0.012 A 
HETATM    5  C5  LIG X 999      43.911 131.464  20.483  1.00  0.00    -0.025 A 
HETATM    6  C6  LIG X 999      43.007 131.934  21.449  1.00  0.00     0.012 A 
HETATM    7  C7  LIG X 999      45.052 130.751  20.899  1.00  0.00     0.013 A 
HETATM    8  C8  LIG X 999      45.967 130.271  19.965  1.00  0.00     0.021 A 
HETATM    9  C9  LIG X 999      45.733 130.508  18.619  1.00  0.00     0.020 A 
HETATM   10  S1  LIG X 999      46.708 130.014  17.352  1.00  0.00    -0.076 SA
HETATM   11  C10 LIG X 999      45.745 130.678  16.149  1.00  0.00     0.118 A 
HETATM   12  C11 LIG X 999      46.072 130.583  14.751  1.00  0.00     0.109 C 
HETATM   13  N1  LIG X 999      46.340 130.502  13.629  1.00  0.00    -0.191 NA
HETATM   14  C12 LIG X 999      44.626 131.305  16.728  1.00  0.00     0.133 A 
HETATM   15  C13 LIG X 999      44.617 131.208  18.149  1.00  0.00     0.026 A 
ENDROOT
BRANCH  14  16
HETATM   16  N2  LIG X 999      43.602 131.972  15.976  1.00  0.00    -0.070 NA
HETATM   17  N3  LIG X 999      43.343 131.714  14.799  1.00  0.00    -0.162 NA
HETATM   18  N4  LIG X 999      43.076 131.465  13.624  1.00  0.00     0.068 N 
ENDBRANCH  14  16
TORSDOF 1
