MODEL 1
REMARK VINA RESULT:      -3.8      0.000      0.000
REMARK  2 active torsions:
REMARK  status: ('A' for Active; 'I' for Inactive)
REMARK    1  A    between atoms: C4_4  and  O1_5 
REMARK    2  A    between atoms: C10_11  and  N1_12 
ROOT
HETATM    1  N1  LIG X 999      41.813 123.870  21.535  1.00  0.00    -0.072 NA
HETATM    2  N2  LIG X 999      40.788 123.562  22.146  1.00  0.00    -0.162 NA
HETATM    3  N3  LIG X 999      39.764 123.253  22.754  1.00  0.00     0.068 N 
ENDROOT
BRANCH   1   4
HETATM    4  C10 LIG X 999      43.127 123.637  22.067  1.00  0.00     0.101 C 
HETATM    5  C9  LIG X 999      43.623 124.575  23.002  1.00  0.00     0.007 C 
HETATM    6  C8  LIG X 999      44.628 124.377  23.928  1.00  0.00    -0.022 C 
HETATM    7  C12 LIG X 999      43.238 126.011  23.015  1.00  0.00     0.278 C 
HETATM    8  C7  LIG X 999      44.997 123.141  24.472  1.00  0.00     0.012 C 
HETATM    9  C15 LIG X 999      45.105 125.682  24.454  1.00  0.00     0.276 C 
HETATM   10  C6  LIG X 999      46.325 122.709  24.595  1.00  0.00     0.037 C 
HETATM   11  C4  LIG X 999      47.399 123.101  23.769  1.00  0.00     0.068 C 
HETATM   12  C3  LIG X 999      47.238 123.645  22.468  1.00  0.00     0.037 C 
HETATM   13  C2  LIG X 999      46.108 123.481  21.656  1.00  0.00     0.003 C 
HETATM   14  C1  LIG X 999      45.253 122.375  21.740  1.00  0.00     0.002 C 
HETATM   15  C11 LIG X 999      43.859 122.493  21.664  1.00  0.00     0.035 C 
HETATM   16  N4  LIG X 999      44.348 126.728  23.706  1.00  0.00    -0.067 N 
HETATM   17  C13 LIG X 999      43.816 127.759  24.625  1.00  0.00     0.272 C 
HETATM   18  C14 LIG X 999      45.233 127.378  22.708  1.00  0.00     0.272 C 
BRANCH  11  19
HETATM   19  O1  LIG X 999      48.683 122.921  24.308  1.00  0.00    -0.356 OA
HETATM   20  C5  LIG X 999      49.892 122.959  23.556  1.00  0.00     0.210 C 
ENDBRANCH  11  19
ENDBRANCH   1   4
TORSDOF 2
ENDMDL
MODEL 2
REMARK VINA RESULT:      -3.7      1.404      1.591
REMARK  2 active torsions:
REMARK  status: ('A' for Active; 'I' for Inactive)
REMARK    1  A    between atoms: C4_4  and  O1_5 
REMARK    2  A    between atoms: C10_11  and  N1_12 
ROOT
HETATM    1  N1  LIG X 999      43.179 123.006  21.512  1.00  0.00    -0.072 NA
HETATM    2  N2  LIG X 999      42.226 122.691  22.227  1.00  0.00    -0.162 NA
HETATM    3  N3  LIG X 999      41.273 122.376  22.938  1.00  0.00     0.068 N 
ENDROOT
BRANCH   1   4
HETATM    4  C10 LIG X 999      44.472 123.328  22.050  1.00  0.00     0.101 C 
HETATM    5  C9  LIG X 999      44.558 124.452  22.903  1.00  0.00     0.007 C 
HETATM    6  C8  LIG X 999      45.543 124.719  23.833  1.00  0.00    -0.022 C 
HETATM    7  C12 LIG X 999      43.660 125.633  22.805  1.00  0.00     0.278 C 
HETATM    8  C7  LIG X 999      46.338 123.759  24.470  1.00  0.00     0.012 C 
HETATM    9  C15 LIG X 999      45.482 126.144  24.249  1.00  0.00     0.276 C 
HETATM   10  C6  LIG X 999      47.728 123.870  24.615  1.00  0.00     0.037 C 
HETATM   11  C4  LIG X 999      48.593 124.574  23.751  1.00  0.00     0.068 C 
HETATM   12  C3  LIG X 999      48.268 124.916  22.412  1.00  0.00     0.037 C 
HETATM   13  C2  LIG X 999      47.301 124.276  21.625  1.00  0.00     0.003 C 
HETATM   14  C1  LIG X 999      46.924 122.939  21.804  1.00  0.00     0.002 C 
HETATM   15  C11 LIG X 999      45.590 122.516  21.732  1.00  0.00     0.035 C 
HETATM   16  N4  LIG X 999      44.403 126.766  23.427  1.00  0.00    -0.067 N 
HETATM   17  C13 LIG X 999      43.502 127.588  24.266  1.00  0.00     0.272 C 
HETATM   18  C14 LIG X 999      45.000 127.623  22.373  1.00  0.00     0.272 C 
BRANCH  11  19
HETATM   19  O1  LIG X 999      49.839 124.934  24.291  1.00  0.00    -0.356 OA
HETATM   20  C5  LIG X 999      50.363 126.258  24.312  1.00  0.00     0.210 C 
ENDBRANCH  11  19
ENDBRANCH   1   4
TORSDOF 2
ENDMDL
MODEL 3
REMARK VINA RESULT:      -3.5      2.284      3.095
REMARK  2 active torsions:
REMARK  status: ('A' for Active; 'I' for Inactive)
REMARK    1  A    between atoms: C4_4  and  O1_5 
REMARK    2  A    between atoms: C10_11  and  N1_12 
ROOT
HETATM    1  N1  LIG X 999      39.903 127.116  23.767  1.00  0.00    -0.072 NA
HETATM    2  N2  LIG X 999      38.740 126.907  23.415  1.00  0.00    -0.162 NA
HETATM    3  N3  LIG X 999      37.580 126.701  23.064  1.00  0.00     0.068 N 
ENDROOT
BRANCH   1   4
HETATM    4  C10 LIG X 999      40.958 126.166  23.545  1.00  0.00     0.101 C 
HETATM    5  C9  LIG X 999      42.268 126.558  23.902  1.00  0.00     0.007 C 
HETATM    6  C8  LIG X 999      43.343 125.731  24.167  1.00  0.00    -0.022 C 
HETATM    7  C12 LIG X 999      42.743 127.966  23.883  1.00  0.00     0.278 C 
HETATM    8  C7  LIG X 999      43.256 124.410  24.624  1.00  0.00     0.012 C 
HETATM    9  C15 LIG X 999      44.608 126.509  24.134  1.00  0.00     0.276 C 
HETATM   10  C6  LIG X 999      44.000 123.350  24.087  1.00  0.00     0.037 C 
HETATM   11  C4  LIG X 999      44.482 123.268  22.764  1.00  0.00     0.068 C 
HETATM   12  C3  LIG X 999      43.954 124.018  21.682  1.00  0.00     0.037 C 
HETATM   13  C2  LIG X 999      42.673 124.584  21.638  1.00  0.00     0.003 C 
HETATM   14  C1  LIG X 999      41.579 124.069  22.345  1.00  0.00     0.002 C 
HETATM   15  C11 LIG X 999      40.656 124.890  23.007  1.00  0.00     0.035 C 
HETATM   16  N4  LIG X 999      44.227 127.898  23.746  1.00  0.00    -0.067 N 
HETATM   17  C13 LIG X 999      44.882 128.894  24.624  1.00  0.00     0.272 C 
HETATM   18  C14 LIG X 999      44.621 128.158  22.340  1.00  0.00     0.272 C 
BRANCH  11  19
HETATM   19  O1  LIG X 999      45.548 122.377  22.555  1.00  0.00    -0.356 OA
HETATM   20  C5  LIG X 999      46.812 122.737  22.007  1.00  0.00     0.210 C 
ENDBRANCH  11  19
ENDBRANCH   1   4
TORSDOF 2
ENDMDL
MODEL 4
REMARK VINA RESULT:      -2.7      2.494      3.301
REMARK  2 active torsions:
REMARK  status: ('A' for Active; 'I' for Inactive)
REMARK    1  A    between atoms: C4_4  and  O1_5 
REMARK    2  A    between atoms: C10_11  and  N1_12 
ROOT
HETATM    1  N1  LIG X 999      40.518 126.990  23.675  1.00  0.00    -0.072 NA
HETATM    2  N2  LIG X 999      39.663 126.103  23.698  1.00  0.00    -0.162 NA
HETATM    3  N3  LIG X 999      38.809 125.218  23.721  1.00  0.00     0.068 N 
ENDROOT
BRANCH   1   4
HETATM    4  C10 LIG X 999      41.916 126.710  23.498  1.00  0.00     0.101 C 
HETATM    5  C9  LIG X 999      42.823 127.770  23.726  1.00  0.00     0.007 C 
HETATM    6  C8  LIG X 999      44.170 127.667  24.015  1.00  0.00    -0.022 C 
HETATM    7  C12 LIG X 999      42.488 129.203  23.516  1.00  0.00     0.278 C 
HETATM    8  C7  LIG X 999      44.786 126.567  24.624  1.00  0.00     0.012 C 
HETATM    9  C15 LIG X 999      44.839 128.978  23.815  1.00  0.00     0.276 C 
HETATM   10  C6  LIG X 999      45.979 125.991  24.167  1.00  0.00     0.037 C 
HETATM   11  C4  LIG X 999      46.442 126.001  22.834  1.00  0.00     0.068 C 
HETATM   12  C3  LIG X 999      45.606 126.218  21.709  1.00  0.00     0.037 C 
HETATM   13  C2  LIG X 999      44.219 126.021  21.681  1.00  0.00     0.003 C 
HETATM   14  C1  LIG X 999      43.553 125.109  22.509  1.00  0.00     0.002 C 
HETATM   15  C11 LIG X 999      42.333 125.406  23.129  1.00  0.00     0.035 C 
HETATM   16  N4  LIG X 999      43.787 129.901  23.295  1.00  0.00    -0.067 N 
HETATM   17  C13 LIG X 999      43.816 131.196  24.011  1.00  0.00     0.272 C 
HETATM   18  C14 LIG X 999      43.996 130.142  21.847  1.00  0.00     0.272 C 
BRANCH  11  19
HETATM   19  O1  LIG X 999      47.818 125.778  22.662  1.00  0.00    -0.356 OA
HETATM   20  C5  LIG X 999      48.384 124.610  22.075  1.00  0.00     0.210 C 
ENDBRANCH  11  19
ENDBRANCH   1   4
TORSDOF 2
ENDMDL
MODEL 5
REMARK VINA RESULT:      -1.7      2.087      3.918
REMARK  2 active torsions:
REMARK  status: ('A' for Active; 'I' for Inactive)
REMARK    1  A    between atoms: C4_4  and  O1_5 
REMARK    2  A    between atoms: C10_11  and  N1_12 
ROOT
HETATM    1  N1  LIG X 999      41.442 128.079  23.351  1.00  0.00    -0.072 NA
HETATM    2  N2  LIG X 999      40.450 127.549  23.854  1.00  0.00    -0.162 NA
HETATM    3  N3  LIG X 999      39.458 127.021  24.354  1.00  0.00     0.068 N 
ENDROOT
BRANCH   1   4
HETATM    4  C10 LIG X 999      42.713 127.413  23.268  1.00  0.00     0.101 C 
HETATM    5  C9  LIG X 999      42.705 126.044  22.914  1.00  0.00     0.007 C 
HETATM    6  C8  LIG X 999      43.751 125.313  22.387  1.00  0.00    -0.022 C 
HETATM    7  C12 LIG X 999      41.584 125.118  23.223  1.00  0.00     0.278 C 
HETATM    8  C7  LIG X 999      44.815 125.841  21.645  1.00  0.00     0.012 C 
HETATM    9  C15 LIG X 999      43.471 123.859  22.504  1.00  0.00     0.276 C 
HETATM   10  C6  LIG X 999      46.159 125.507  21.865  1.00  0.00     0.037 C 
HETATM   11  C4  LIG X 999      46.715 125.093  23.094  1.00  0.00     0.068 C 
HETATM   12  C3  LIG X 999      46.118 125.344  24.356  1.00  0.00     0.037 C 
HETATM   13  C2  LIG X 999      45.187 126.357  24.625  1.00  0.00     0.003 C 
HETATM   14  C1  LIG X 999      45.121 127.553  23.902  1.00  0.00     0.002 C 
HETATM   15  C11 LIG X 999      43.906 128.136  23.517  1.00  0.00     0.035 C 
HETATM   16  N4  LIG X 999      42.172 123.748  23.230  1.00  0.00    -0.067 N 
HETATM   17  C13 LIG X 999      41.270 122.785  22.559  1.00  0.00     0.272 C 
HETATM   18  C14 LIG X 999      42.407 123.301  24.624  1.00  0.00     0.272 C 
BRANCH  11  19
HETATM   19  O1  LIG X 999      47.932 124.396  23.012  1.00  0.00    -0.356 OA
HETATM   20  C5  LIG X 999      49.121 124.753  23.711  1.00  0.00     0.210 C 
ENDBRANCH  11  19
ENDBRANCH   1   4
TORSDOF 2
ENDMDL
MODEL 6
REMARK VINA RESULT:      -1.1      7.683      9.612
REMARK  2 active torsions:
REMARK  status: ('A' for Active; 'I' for Inactive)
REMARK    1  A    between atoms: C4_4  and  O1_5 
REMARK    2  A    between atoms: C10_11  and  N1_12 
ROOT
HETATM    1  N1  LIG X 999      41.864 132.286  17.656  1.00  0.00    -0.072 NA
HETATM    2  N2  LIG X 999      41.861 132.619  18.843  1.00  0.00    -0.162 NA
HETATM    3  N3  LIG X 999      41.856 132.951  20.027  1.00  0.00     0.068 N 
ENDROOT
BRANCH   1   4
HETATM    4  C10 LIG X 999      43.028 131.743  17.011  1.00  0.00     0.101 C 
HETATM    5  C9  LIG X 999      43.958 131.056  17.825  1.00  0.00     0.007 C 
HETATM    6  C8  LIG X 999      44.898 130.130  17.416  1.00  0.00    -0.022 C 
HETATM    7  C12 LIG X 999      44.181 131.360  19.262  1.00  0.00     0.278 C 
HETATM    8  C7  LIG X 999      44.803 129.329  16.272  1.00  0.00     0.012 C 
HETATM    9  C15 LIG X 999      45.912 129.925  18.483  1.00  0.00     0.276 C 
HETATM   10  C6  LIG X 999      45.854 129.140  15.363  1.00  0.00     0.037 C 
HETATM   11  C4  LIG X 999      46.894 130.056  15.105  1.00  0.00     0.068 C 
HETATM   12  C3  LIG X 999      46.818 131.443  15.398  1.00  0.00     0.037 C 
HETATM   13  C2  LIG X 999      45.633 132.172  15.558  1.00  0.00     0.003 C 
HETATM   14  C1  LIG X 999      44.424 131.822  14.946  1.00  0.00     0.002 C 
HETATM   15  C11 LIG X 999      43.193 131.892  15.612  1.00  0.00     0.035 C 
HETATM   16  N4  LIG X 999      45.555 130.874  19.578  1.00  0.00    -0.067 N 
HETATM   17  C13 LIG X 999      45.585 130.201  20.895  1.00  0.00     0.272 C 
HETATM   18  C14 LIG X 999      46.507 132.011  19.592  1.00  0.00     0.272 C 
BRANCH  11  19
HETATM   19  O1  LIG X 999      48.053 129.518  14.521  1.00  0.00    -0.356 OA
HETATM   20  C5  LIG X 999      48.431 129.690  13.158  1.00  0.00     0.210 C 
ENDBRANCH  11  19
ENDBRANCH   1   4
TORSDOF 2
ENDMDL
MODEL 7
REMARK VINA RESULT:      -0.9      6.762      9.180
REMARK  2 active torsions:
REMARK  status: ('A' for Active; 'I' for Inactive)
REMARK    1  A    between atoms: C4_4  and  O1_5 
REMARK    2  A    between atoms: C10_11  and  N1_12 
ROOT
HETATM    1  N1  LIG X 999      46.795 133.516  21.626  1.00  0.00    -0.072 NA
HETATM    2  N2  LIG X 999      47.786 133.888  22.257  1.00  0.00    -0.162 NA
HETATM    3  N3  LIG X 999      48.775 134.262  22.886  1.00  0.00     0.068 N 
ENDROOT
BRANCH   1   4
HETATM    4  C10 LIG X 999      45.785 132.672  22.204  1.00  0.00     0.101 C 
HETATM    5  C9  LIG X 999      44.882 132.042  21.318  1.00  0.00     0.007 C 
HETATM    6  C8  LIG X 999      44.121 130.916  21.564  1.00  0.00    -0.022 C 
HETATM    7  C12 LIG X 999      44.480 132.613  20.006  1.00  0.00     0.278 C 
HETATM    8  C7  LIG X 999      44.438 129.910  22.485  1.00  0.00     0.012 C 
HETATM    9  C15 LIG X 999      43.046 130.792  20.547  1.00  0.00     0.276 C 
HETATM   10  C6  LIG X 999      43.517 129.369  23.393  1.00  0.00     0.037 C 
HETATM   11  C4  LIG X 999      42.391 130.035  23.922  1.00  0.00     0.068 C 
HETATM   12  C3  LIG X 999      42.248 131.446  23.950  1.00  0.00     0.037 C 
HETATM   13  C2  LIG X 999      43.302 132.368  23.884  1.00  0.00     0.003 C 
HETATM   14  C1  LIG X 999      44.602 132.085  24.320  1.00  0.00     0.002 C 
HETATM   15  C11 LIG X 999      45.740 132.487  23.609  1.00  0.00     0.035 C 
HETATM   16  N4  LIG X 999      43.161 132.000  19.678  1.00  0.00    -0.067 N 
HETATM   17  C13 LIG X 999      43.093 131.632  18.246  1.00  0.00     0.272 C 
HETATM   18  C14 LIG X 999      42.066 132.951  19.986  1.00  0.00     0.272 C 
BRANCH  11  19
HETATM   19  O1  LIG X 999      41.380 129.210  24.442  1.00  0.00    -0.356 OA
HETATM   20  C5  LIG X 999      41.004 127.947  23.902  1.00  0.00     0.210 C 
ENDBRANCH  11  19
ENDBRANCH   1   4
TORSDOF 2
ENDMDL
