REMARK VINA RESULT:      -6.5      1.490      2.072
REMARK  1 active torsions:
REMARK  status: ('A' for Active; 'I' for Inactive)
REMARK    1  A    between atoms: C2_5  and  C3_6 
ROOT
HETATM    1  C3  LIG X 999      43.543 131.751  19.182  1.00  0.00     0.030 A 
HETATM    2  C4  LIG X 999      42.461 132.621  18.936  1.00  0.00     0.017 A 
HETATM    3  C5  LIG X 999      41.625 133.051  19.961  1.00  0.00     0.002 A 
HETATM    4  C6  LIG X 999      41.839 132.627  21.264  1.00  0.00     0.012 A 
HETATM    5  C7  LIG X 999      42.899 131.762  21.561  1.00  0.00    -0.025 A 
HETATM    6  C8  LIG X 999      43.092 131.350  22.889  1.00  0.00     0.012 A 
HETATM    7  C9  LIG X 999      44.137 130.491  23.215  1.00  0.00     0.001 A 
HETATM    8  C10 LIG X 999      44.999 130.035  22.223  1.00  0.00     0.001 A 
HETATM    9  C11 LIG X 999      44.825 130.434  20.895  1.00  0.00     0.013 A 
HETATM   10  C12 LIG X 999      43.772 131.307  20.526  1.00  0.00    -0.011 A 
ENDROOT
BRANCH   1  11
HETATM   11  C2  LIG X 999      44.369 131.360  17.997  1.00  0.00     0.203 A 
HETATM   12  O1  LIG X 999      45.450 130.609  18.019  1.00  0.00    -0.255 OA
HETATM   13  C1  LIG X 999      45.838 130.531  16.771  1.00  0.00     0.262 A 
HETATM   14  N1  LIG X 999      46.876 129.876  16.367  1.00  0.00    -0.260 NA
HETATM   15  N3  LIG X 999      45.023 131.218  15.962  1.00  0.00    -0.238 N 
HETATM   16  H1  LIG X 999      47.477 129.356  17.045  1.00  0.00     0.190 HD
HETATM   17  N2  LIG X 999      44.086 131.749  16.730  1.00  0.00    -0.145 NA
HETATM   18  H9  LIG X 999      45.091 131.331  14.926  1.00  0.00     0.193 HD
ENDBRANCH   1  11
TORSDOF 1
