REMARK VINA RESULT:      -6.5      2.195      5.011
REMARK  1 active torsions:
REMARK  status: ('A' for Active; 'I' for Inactive)
REMARK    1  A    between atoms: C13_15  and  N2_16 
ROOT
HETATM    1  N1  LIG X 999      44.547 130.865  24.621  1.00  0.00    -0.191 NA
HETATM    2  C1  LIG X 999      44.260 131.107  23.526  1.00  0.00     0.109 C 
HETATM    3  C2  LIG X 999      43.904 131.405  22.165  1.00  0.00     0.113 A 
HETATM    4  S1  LIG X 999      42.466 132.149  21.716  1.00  0.00    -0.076 SA
HETATM    5  C3  LIG X 999      42.740 132.010  20.067  1.00  0.00     0.019 A 
HETATM    6  C4  LIG X 999      41.871 132.394  19.053  1.00  0.00     0.021 A 
HETATM    7  C5  LIG X 999      42.251 132.174  17.728  1.00  0.00     0.013 A 
HETATM    8  C6  LIG X 999      43.517 131.633  17.427  1.00  0.00    -0.025 A 
HETATM    9  C7  LIG X 999      43.904 131.480  16.086  1.00  0.00     0.012 A 
HETATM   10  C8  LIG X 999      45.186 131.030  15.770  1.00  0.00     0.001 A 
HETATM   11  C9  LIG X 999      46.102 130.759  16.785  1.00  0.00     0.001 A 
HETATM   12  C10 LIG X 999      45.733 130.896  18.126  1.00  0.00     0.013 A 
HETATM   13  C11 LIG X 999      44.420 131.277  18.475  1.00  0.00    -0.012 A 
HETATM   14  C12 LIG X 999      43.973 131.406  19.818  1.00  0.00     0.020 A 
HETATM   15  C13 LIG X 999      44.610 131.010  21.025  1.00  0.00     0.066 A 
ENDROOT
BRANCH  15  16
HETATM   16  N2  LIG X 999      45.728 130.120  21.109  1.00  0.00    -0.397 N 
HETATM   17  H7  LIG X 999      46.163 129.905  22.033  1.00  0.00     0.156 HD
HETATM   18  H8  LIG X 999      45.958 129.485  20.313  1.00  0.00     0.156 HD
ENDBRANCH  15  16
TORSDOF 1
