REMARK VINA RESULT:      -6.1      1.576      5.454
REMARK  5 active torsions:
REMARK  status: ('A' for Active; 'I' for Inactive)
REMARK    1  A    between atoms: O1_2  and  C1_3 
REMARK    2  A    between atoms: C1_3  and  C13_17 
REMARK    3  A    between atoms: N1_4  and  C2_5 
REMARK    4  A    between atoms: C3_6  and  O2_7 
REMARK    5  A    between atoms: C13_17  and  C15_19 
ROOT
HETATM    1  C2  LIG X 999      44.930 130.859  16.947  1.00  0.00     0.103 A 
HETATM    2  C3  LIG X 999      43.662 131.462  16.807  1.00  0.00     0.097 A 
HETATM    3  C5  LIG X 999      43.192 131.799  15.525  1.00  0.00     0.040 A 
HETATM    4  C6  LIG X 999      43.981 131.573  14.397  1.00  0.00     0.015 A 
HETATM    5  C7  LIG X 999      45.256 131.014  14.527  1.00  0.00    -0.024 A 
HETATM    6  C8  LIG X 999      46.056 130.805  13.391  1.00  0.00     0.012 A 
HETATM    7  C9  LIG X 999      47.329 130.247  13.521  1.00  0.00     0.001 A 
HETATM    8  C10 LIG X 999      47.815 129.893  14.781  1.00  0.00     0.001 A 
HETATM    9  C11 LIG X 999      47.031 130.095  15.919  1.00  0.00     0.014 A 
HETATM   10  C12 LIG X 999      45.744 130.659  15.809  1.00  0.00     0.006 A 
ENDROOT
BRANCH   1  11
HETATM   11  N1  LIG X 999      45.430 130.514  18.249  1.00  0.00    -0.225 NA
HETATM   12  C1  LIG X 999      45.515 131.336  19.254  1.00  0.00     0.142 C 
BRANCH  12  13
HETATM   13  O1  LIG X 999      45.042 132.645  19.138  1.00  0.00    -0.348 OA
HETATM   14  H1  LIG X 999      44.065 132.871  19.285  1.00  0.00     0.219 HD
ENDBRANCH  12  13
BRANCH  12  15
HETATM   15  C13 LIG X 999      46.100 130.857  20.561  1.00  0.00     0.058 C 
HETATM   16  C14 LIG X 999      46.574 132.058  21.392  1.00  0.00     0.018 C 
BRANCH  15  17
HETATM   17  C15 LIG X 999      45.064 129.995  21.317  1.00  0.00     0.008 C 
HETATM   18  C16 LIG X 999      43.972 130.832  21.983  1.00  0.00     0.006 C 
ENDBRANCH  15  17
ENDBRANCH  12  15
ENDBRANCH   1  11
BRANCH   2  19
HETATM   19  O2  LIG X 999      42.908 131.732  17.961  1.00  0.00    -0.354 OA
HETATM   20  C4  LIG X 999      41.720 132.516  17.990  1.00  0.00     0.210 C 
ENDBRANCH   2  19
TORSDOF 5
