REMARK VINA RESULT:      -8.8      0.000      0.000
REMARK  3 active torsions:
REMARK  status: ('A' for Active; 'I' for Inactive)
REMARK    1  A    between atoms: C3_3  and  O1_4 
REMARK    2  A    between atoms: O1_4  and  C4_5 
REMARK    3  A    between atoms: C5_7  and  C6_8 
ROOT
HETATM    1  C1  LIG X 999      43.280 130.608  22.450  1.00  0.00     0.014 C 
HETATM    2  C2  LIG X 999      43.759 131.282  21.574  1.00  0.00    -0.091 C 
HETATM    3  C3  LIG X 999      44.342 132.101  20.510  1.00  0.00     0.270 C 
ENDROOT
BRANCH   3   4
HETATM    4  O1  LIG X 999      44.161 131.442  19.263  1.00  0.00    -0.317 OA
BRANCH   4   5
HETATM    5  C4  LIG X 999      43.179 131.829  18.347  1.00  0.00     0.217 C 
HETATM    6  O2  LIG X 999      41.993 132.400  18.800  1.00  0.00    -0.164 OA
HETATM    7  C5  LIG X 999      43.371 131.687  17.031  1.00  0.00     0.078 C 
BRANCH   7   8
HETATM    8  C6  LIG X 999      44.584 131.095  16.424  1.00  0.00    -0.031 A 
HETATM    9  C7  LIG X 999      45.327 130.093  17.075  1.00  0.00     0.012 A 
HETATM   10  C8  LIG X 999      46.455 129.537  16.468  1.00  0.00     0.013 A 
HETATM   11  C9  LIG X 999      46.851 129.959  15.191  1.00  0.00    -0.026 A 
HETATM   12  C10 LIG X 999      47.982 129.407  14.572  1.00  0.00     0.012 A 
HETATM   13  C14 LIG X 999      46.094 130.948  14.516  1.00  0.00    -0.025 A 
HETATM   14  C11 LIG X 999      48.361 129.832  13.295  1.00  0.00     0.001 A 
HETATM   15  C12 LIG X 999      47.616 130.808  12.629  1.00  0.00     0.001 A 
HETATM   16  C13 LIG X 999      46.486 131.365  13.234  1.00  0.00     0.012 A 
HETATM   17  C15 LIG X 999      44.963 131.501  15.135  1.00  0.00     0.024 A 
ENDBRANCH   7   8
ENDBRANCH   4   5
ENDBRANCH   3   4
TORSDOF 3
