MODEL 1
REMARK VINA RESULT:      -5.3      0.000      0.000
REMARK  5 active torsions:
REMARK  status: ('A' for Active; 'I' for Inactive)
REMARK    1  A    between atoms: C3_3  and  C4_4 
REMARK    2  A    between atoms: C4_4  and  S1_5 
REMARK    3  A    between atoms: S1_5  and  C5_6 
REMARK    4  A    between atoms: C6_7  and  N1_8 
REMARK    5  A    between atoms: C10_12  and  N2_13 
ROOT
HETATM    1  C1  LIG X 999      43.354 128.797  24.625  1.00  0.00     0.112 C 
HETATM    2  C2  LIG X 999      44.025 129.113  23.365  1.00  0.00    -0.110 C 
HETATM    3  C3  LIG X 999      44.577 129.365  22.324  1.00  0.00    -0.097 C 
ENDROOT
BRANCH   3   4
HETATM    4  C4  LIG X 999      45.243 129.664  21.053  1.00  0.00     0.173 C 
BRANCH   4   5
HETATM    5  S1  LIG X 999      45.512 131.461  20.882  1.00  0.00    -0.115 SA
BRANCH   5   6
HETATM    6  C5  LIG X 999      44.204 131.703  19.650  1.00  0.00     0.038 A 
HETATM    7  C6  LIG X 999      42.916 132.105  20.072  1.00  0.00     0.043 A 
HETATM    8  C7  LIG X 999      41.911 132.314  19.126  1.00  0.00     0.031 A 
HETATM    9  C8  LIG X 999      42.153 132.130  17.768  1.00  0.00     0.017 A 
HETATM   10  C9  LIG X 999      43.420 131.731  17.307  1.00  0.00     0.002 A 
HETATM   11  C10 LIG X 999      43.685 131.537  15.917  1.00  0.00     0.045 A 
HETATM   12  C14 LIG X 999      44.455 131.489  18.269  1.00  0.00    -0.004 A 
HETATM   13  C11 LIG X 999      44.956 131.080  15.543  1.00  0.00     0.003 A 
HETATM   14  C12 LIG X 999      45.927 130.839  16.461  1.00  0.00    -0.021 A 
HETATM   15  C18 LIG X 999      45.465 130.790  14.179  1.00  0.00     0.278 C 
HETATM   16  C13 LIG X 999      45.716 131.033  17.820  1.00  0.00     0.023 A 
HETATM   17  C15 LIG X 999      47.164 130.355  15.810  1.00  0.00     0.276 C 
HETATM   18  N3  LIG X 999      46.921 130.483  14.340  1.00  0.00    -0.067 N 
HETATM   19  C16 LIG X 999      47.739 131.588  13.785  1.00  0.00     0.272 C 
HETATM   20  C17 LIG X 999      47.272 129.225  13.640  1.00  0.00     0.272 C 
BRANCH   7  21
HETATM   21  N1  LIG X 999      42.600 132.290  21.460  1.00  0.00    -0.398 N 
HETATM   22  H6  LIG X 999      42.279 133.220  21.810  1.00  0.00     0.156 HD
HETATM   23  H7  LIG X 999      42.662 131.518  22.158  1.00  0.00     0.156 HD
ENDBRANCH   7  21
BRANCH  11  24
HETATM   24  N2  LIG X 999      42.707 131.806  14.898  1.00  0.00    -0.398 N 
HETATM   25  H10 LIG X 999      42.617 131.229  14.036  1.00  0.00     0.156 HD
HETATM   26  H11 LIG X 999      41.972 132.532  15.044  1.00  0.00     0.156 HD
ENDBRANCH  11  24
ENDBRANCH   5   6
ENDBRANCH   4   5
ENDBRANCH   3   4
TORSDOF 5
ENDMDL
MODEL 2
REMARK VINA RESULT:      -5.3      1.964      2.749
REMARK  5 active torsions:
REMARK  status: ('A' for Active; 'I' for Inactive)
REMARK    1  A    between atoms: C3_3  and  C4_4 
REMARK    2  A    between atoms: C4_4  and  S1_5 
REMARK    3  A    between atoms: S1_5  and  C5_6 
REMARK    4  A    between atoms: C6_7  and  N1_8 
REMARK    5  A    between atoms: C10_12  and  N2_13 
ROOT
HETATM    1  C1  LIG X 999      46.591 125.743  22.074  1.00  0.00     0.112 C 
HETATM    2  C2  LIG X 999      45.737 126.874  22.432  1.00  0.00    -0.110 C 
HETATM    3  C3  LIG X 999      45.040 127.810  22.733  1.00  0.00    -0.097 C 
ENDROOT
BRANCH   3   4
HETATM    4  C4  LIG X 999      44.201 128.953  23.099  1.00  0.00     0.173 C 
BRANCH   4   5
HETATM    5  S1  LIG X 999      45.100 130.518  22.825  1.00  0.00    -0.115 SA
BRANCH   5   6
HETATM    6  C5  LIG X 999      43.733 131.341  21.963  1.00  0.00     0.038 A 
HETATM    7  C6  LIG X 999      42.670 131.894  22.712  1.00  0.00     0.043 A 
HETATM    8  C7  LIG X 999      41.627 132.547  22.055  1.00  0.00     0.031 A 
HETATM    9  C8  LIG X 999      41.610 132.663  20.669  1.00  0.00     0.017 A 
HETATM   10  C9  LIG X 999      42.649 132.125  19.886  1.00  0.00     0.002 A 
HETATM   11  C10 LIG X 999      42.647 132.233  18.463  1.00  0.00     0.045 A 
HETATM   12  C14 LIG X 999      43.715 131.431  20.546  1.00  0.00    -0.004 A 
HETATM   13  C11 LIG X 999      43.687 131.619  17.751  1.00  0.00     0.003 A 
HETATM   14  C12 LIG X 999      44.686 130.950  18.382  1.00  0.00    -0.021 A 
HETATM   15  C18 LIG X 999      43.898 131.578  16.282  1.00  0.00     0.278 C 
HETATM   16  C13 LIG X 999      44.734 130.838  19.765  1.00  0.00     0.023 A 
HETATM   17  C15 LIG X 999      45.645 130.388  17.406  1.00  0.00     0.276 C 
HETATM   18  N3  LIG X 999      45.232 130.930  16.076  1.00  0.00    -0.067 N 
HETATM   19  C16 LIG X 999      46.217 131.934  15.608  1.00  0.00     0.272 C 
HETATM   20  C17 LIG X 999      45.137 129.843  15.074  1.00  0.00     0.272 C 
BRANCH   7  21
HETATM   21  N1  LIG X 999      42.620 131.789  24.143  1.00  0.00    -0.398 N 
HETATM   22  H6  LIG X 999      42.268 132.586  24.720  1.00  0.00     0.156 HD
HETATM   23  H7  LIG X 999      42.912 130.928  24.654  1.00  0.00     0.156 HD
ENDBRANCH   7  21
BRANCH  11  24
HETATM   24  N2  LIG X 999      41.634 132.956  17.743  1.00  0.00    -0.398 N 
HETATM   25  H10 LIG X 999      40.616 132.791  17.882  1.00  0.00     0.156 HD
HETATM   26  H11 LIG X 999      41.888 133.761  17.130  1.00  0.00     0.156 HD
ENDBRANCH  11  24
ENDBRANCH   5   6
ENDBRANCH   4   5
ENDBRANCH   3   4
TORSDOF 5
ENDMDL
MODEL 3
REMARK VINA RESULT:      -5.1      5.071      8.078
REMARK  5 active torsions:
REMARK  status: ('A' for Active; 'I' for Inactive)
REMARK    1  A    between atoms: C3_3  and  C4_4 
REMARK    2  A    between atoms: C4_4  and  S1_5 
REMARK    3  A    between atoms: S1_5  and  C5_6 
REMARK    4  A    between atoms: C6_7  and  N1_8 
REMARK    5  A    between atoms: C10_12  and  N2_13 
ROOT
HETATM    1  C1  LIG X 999      46.069 131.004  20.310  1.00  0.00     0.112 C 
HETATM    2  C2  LIG X 999      44.999 130.702  21.260  1.00  0.00    -0.110 C 
HETATM    3  C3  LIG X 999      44.112 130.452  22.036  1.00  0.00    -0.097 C 
ENDROOT
BRANCH   3   4
HETATM    4  C4  LIG X 999      43.028 130.144  22.973  1.00  0.00     0.173 C 
BRANCH   4   5
HETATM    5  S1  LIG X 999      43.656 129.152  24.370  1.00  0.00    -0.115 SA
BRANCH   5   6
HETATM    6  C5  LIG X 999      42.802 127.628  23.883  1.00  0.00     0.038 A 
HETATM    7  C6  LIG X 999      41.390 127.581  23.915  1.00  0.00     0.043 A 
HETATM    8  C7  LIG X 999      40.727 126.418  23.521  1.00  0.00     0.031 A 
HETATM    9  C8  LIG X 999      41.433 125.296  23.097  1.00  0.00     0.017 A 
HETATM   10  C9  LIG X 999      42.839 125.302  23.051  1.00  0.00     0.002 A 
HETATM   11  C10 LIG X 999      43.578 124.160  22.620  1.00  0.00     0.045 A 
HETATM   12  C14 LIG X 999      43.534 126.481  23.476  1.00  0.00    -0.004 A 
HETATM   13  C11 LIG X 999      44.978 124.225  22.659  1.00  0.00     0.003 A 
HETATM   14  C12 LIG X 999      45.630 125.340  23.077  1.00  0.00    -0.021 A 
HETATM   15  C18 LIG X 999      45.959 123.176  22.281  1.00  0.00     0.278 C 
HETATM   16  C13 LIG X 999      44.948 126.478  23.486  1.00  0.00     0.023 A 
HETATM   17  C15 LIG X 999      47.096 125.144  23.035  1.00  0.00     0.276 C 
HETATM   18  N3  LIG X 999      47.306 123.822  22.370  1.00  0.00    -0.067 N 
HETATM   19  C16 LIG X 999      47.866 124.020  21.011  1.00  0.00     0.272 C 
HETATM   20  C17 LIG X 999      48.239 122.982  23.157  1.00  0.00     0.272 C 
BRANCH   7  21
HETATM   21  N1  LIG X 999      40.607 128.698  24.363  1.00  0.00    -0.398 N 
HETATM   22  H6  LIG X 999      39.621 128.560  24.680  1.00  0.00     0.156 HD
HETATM   23  H7  LIG X 999      40.985 129.669  24.404  1.00  0.00     0.156 HD
ENDBRANCH   7  21
BRANCH  11  24
HETATM   24  N2  LIG X 999      42.944 122.964  22.137  1.00  0.00    -0.398 N 
HETATM   25  H10 LIG X 999      42.338 122.365  22.735  1.00  0.00     0.156 HD
HETATM   26  H11 LIG X 999      42.979 122.713  21.124  1.00  0.00     0.156 HD
ENDBRANCH  11  24
ENDBRANCH   5   6
ENDBRANCH   4   5
ENDBRANCH   3   4
TORSDOF 5
ENDMDL
MODEL 4
REMARK VINA RESULT:      -5.0      3.763      7.662
REMARK  5 active torsions:
REMARK  status: ('A' for Active; 'I' for Inactive)
REMARK    1  A    between atoms: C3_3  and  C4_4 
REMARK    2  A    between atoms: C4_4  and  S1_5 
REMARK    3  A    between atoms: S1_5  and  C5_6 
REMARK    4  A    between atoms: C6_7  and  N1_8 
REMARK    5  A    between atoms: C10_12  and  N2_13 
ROOT
HETATM    1  C1  LIG X 999      45.341 131.529  16.649  1.00  0.00     0.112 C 
HETATM    2  C2  LIG X 999      44.774 131.443  17.994  1.00  0.00    -0.110 C 
HETATM    3  C3  LIG X 999      44.306 131.381  19.103  1.00  0.00    -0.097 C 
ENDROOT
BRANCH   3   4
HETATM    4  C4  LIG X 999      43.734 131.315  20.450  1.00  0.00     0.173 C 
BRANCH   4   5
HETATM    5  S1  LIG X 999      45.011 130.832  21.662  1.00  0.00    -0.115 SA
BRANCH   5   6
HETATM    6  C5  LIG X 999      43.903 129.802  22.662  1.00  0.00     0.038 A 
HETATM    7  C6  LIG X 999      42.727 130.367  23.204  1.00  0.00     0.043 A 
HETATM    8  C7  LIG X 999      41.860 129.574  23.957  1.00  0.00     0.031 A 
HETATM    9  C8  LIG X 999      42.134 128.229  24.187  1.00  0.00     0.017 A 
HETATM   10  C9  LIG X 999      43.293 127.628  23.665  1.00  0.00     0.002 A 
HETATM   11  C10 LIG X 999      43.590 126.250  23.893  1.00  0.00     0.045 A 
HETATM   12  C14 LIG X 999      44.205 128.436  22.911  1.00  0.00    -0.004 A 
HETATM   13  C11 LIG X 999      44.795 125.740  23.390  1.00  0.00     0.003 A 
HETATM   14  C12 LIG X 999      45.661 126.516  22.688  1.00  0.00    -0.021 A 
HETATM   15  C18 LIG X 999      45.330 124.360  23.506  1.00  0.00     0.278 C 
HETATM   16  C13 LIG X 999      45.401 127.855  22.430  1.00  0.00     0.023 A 
HETATM   17  C15 LIG X 999      46.856 125.744  22.284  1.00  0.00     0.276 C 
HETATM   18  N3  LIG X 999      46.567 124.327  22.663  1.00  0.00    -0.067 N 
HETATM   19  C16 LIG X 999      46.331 123.513  21.446  1.00  0.00     0.272 C 
HETATM   20  C17 LIG X 999      47.701 123.745  23.419  1.00  0.00     0.272 C 
BRANCH   7  21
HETATM   21  N1  LIG X 999      42.401 131.753  23.019  1.00  0.00    -0.398 N 
HETATM   22  H6  LIG X 999      43.093 132.406  22.587  1.00  0.00     0.156 HD
HETATM   23  H7  LIG X 999      41.477 132.154  23.289  1.00  0.00     0.156 HD
ENDBRANCH   7  21
BRANCH  11  24
HETATM   24  N2  LIG X 999      42.697 125.372  24.599  1.00  0.00    -0.398 N 
HETATM   25  H10 LIG X 999      42.812 124.337  24.608  1.00  0.00     0.156 HD
HETATM   26  H11 LIG X 999      41.958 125.757  25.228  1.00  0.00     0.156 HD
ENDBRANCH  11  24
ENDBRANCH   5   6
ENDBRANCH   4   5
ENDBRANCH   3   4
TORSDOF 5
ENDMDL
MODEL 5
REMARK VINA RESULT:      -4.4      3.030      7.493
REMARK  5 active torsions:
REMARK  status: ('A' for Active; 'I' for Inactive)
REMARK    1  A    between atoms: C3_3  and  C4_4 
REMARK    2  A    between atoms: C4_4  and  S1_5 
REMARK    3  A    between atoms: S1_5  and  C5_6 
REMARK    4  A    between atoms: C6_7  and  N1_8 
REMARK    5  A    between atoms: C10_12  and  N2_13 
ROOT
HETATM    1  C1  LIG X 999      46.581 131.309  14.422  1.00  0.00     0.112 C 
HETATM    2  C2  LIG X 999      45.940 131.232  15.734  1.00  0.00    -0.110 C 
HETATM    3  C3  LIG X 999      45.410 131.158  16.814  1.00  0.00    -0.097 C 
ENDROOT
BRANCH   3   4
HETATM    4  C4  LIG X 999      44.768 131.060  18.127  1.00  0.00     0.173 C 
BRANCH   4   5
HETATM    5  S1  LIG X 999      45.993 130.612  19.404  1.00  0.00    -0.115 SA
BRANCH   5   6
HETATM    6  C5  LIG X 999      44.802 130.590  20.770  1.00  0.00     0.038 A 
HETATM    7  C6  LIG X 999      43.933 131.689  20.954  1.00  0.00     0.043 A 
HETATM    8  C7  LIG X 999      42.999 131.668  21.992  1.00  0.00     0.031 A 
HETATM    9  C8  LIG X 999      42.909 130.581  22.855  1.00  0.00     0.017 A 
HETATM   10  C9  LIG X 999      43.755 129.468  22.707  1.00  0.00     0.002 A 
HETATM   11  C10 LIG X 999      43.677 128.345  23.585  1.00  0.00     0.045 A 
HETATM   12  C14 LIG X 999      44.735 129.486  21.661  1.00  0.00    -0.004 A 
HETATM   13  C11 LIG X 999      44.595 127.301  23.408  1.00  0.00     0.003 A 
HETATM   14  C12 LIG X 999      45.531 127.331  22.424  1.00  0.00    -0.021 A 
HETATM   15  C18 LIG X 999      44.725 126.047  24.192  1.00  0.00     0.278 C 
HETATM   16  C13 LIG X 999      45.628 128.396  21.538  1.00  0.00     0.023 A 
HETATM   17  C15 LIG X 999      46.380 126.121  22.462  1.00  0.00     0.276 C 
HETATM   18  N3  LIG X 999      45.758 125.225  23.486  1.00  0.00    -0.067 N 
HETATM   19  C16 LIG X 999      45.119 124.063  22.823  1.00  0.00     0.272 C 
HETATM   20  C17 LIG X 999      46.779 124.733  24.440  1.00  0.00     0.272 C 
BRANCH   7  21
HETATM   21  N1  LIG X 999      43.992 132.848  20.109  1.00  0.00    -0.398 N 
HETATM   22  H6  LIG X 999      43.419 132.897  19.238  1.00  0.00     0.156 HD
HETATM   23  H7  LIG X 999      44.586 133.677  20.333  1.00  0.00     0.156 HD
ENDBRANCH   7  21
BRANCH  11  24
HETATM   24  N2  LIG X 999      42.687 128.241  24.623  1.00  0.00    -0.398 N 
HETATM   25  H10 LIG X 999      41.750 127.815  24.468  1.00  0.00     0.156 HD
HETATM   26  H11 LIG X 999      42.921 128.492  25.608  1.00  0.00     0.156 HD
ENDBRANCH  11  24
ENDBRANCH   5   6
ENDBRANCH   4   5
ENDBRANCH   3   4
TORSDOF 5
ENDMDL
MODEL 6
REMARK VINA RESULT:      -4.2      1.778      6.975
REMARK  5 active torsions:
REMARK  status: ('A' for Active; 'I' for Inactive)
REMARK    1  A    between atoms: C3_3  and  C4_4 
REMARK    2  A    between atoms: C4_4  and  S1_5 
REMARK    3  A    between atoms: S1_5  and  C5_6 
REMARK    4  A    between atoms: C6_7  and  N1_8 
REMARK    5  A    between atoms: C10_12  and  N2_13 
ROOT
HETATM    1  C1  LIG X 999      48.713 129.580  12.973  1.00  0.00     0.112 C 
HETATM    2  C2  LIG X 999      47.655 129.494  13.978  1.00  0.00    -0.110 C 
HETATM    3  C3  LIG X 999      46.780 129.431  14.805  1.00  0.00    -0.097 C 
ENDROOT
BRANCH   3   4
HETATM    4  C4  LIG X 999      45.713 129.363  15.806  1.00  0.00     0.173 C 
BRANCH   4   5
HETATM    5  S1  LIG X 999      46.202 130.254  17.322  1.00  0.00    -0.115 SA
BRANCH   5   6
HETATM    6  C5  LIG X 999      44.612 131.100  17.533  1.00  0.00     0.038 A 
HETATM    7  C6  LIG X 999      43.880 131.499  16.392  1.00  0.00     0.043 A 
HETATM    8  C7  LIG X 999      42.645 132.132  16.548  1.00  0.00     0.031 A 
HETATM    9  C8  LIG X 999      42.120 132.381  17.812  1.00  0.00     0.017 A 
HETATM   10  C9  LIG X 999      42.817 132.000  18.973  1.00  0.00     0.002 A 
HETATM   11  C10 LIG X 999      42.293 132.249  20.277  1.00  0.00     0.045 A 
HETATM   12  C14 LIG X 999      44.097 131.371  18.828  1.00  0.00    -0.004 A 
HETATM   13  C11 LIG X 999      43.076 131.892  21.384  1.00  0.00     0.003 A 
HETATM   14  C12 LIG X 999      44.294 131.310  21.240  1.00  0.00    -0.021 A 
HETATM   15  C18 LIG X 999      42.762 132.060  22.825  1.00  0.00     0.278 C 
HETATM   16  C13 LIG X 999      44.831 131.034  19.989  1.00  0.00     0.023 A 
HETATM   17  C15 LIG X 999      44.916 131.048  22.556  1.00  0.00     0.276 C 
HETATM   18  N3  LIG X 999      43.866 131.375  23.569  1.00  0.00    -0.067 N 
HETATM   19  C16 LIG X 999      43.360 130.131  24.197  1.00  0.00     0.272 C 
HETATM   20  C17 LIG X 999      44.413 132.259  24.625  1.00  0.00     0.272 C 
BRANCH   7  21
HETATM   21  N1  LIG X 999      44.379 131.289  15.063  1.00  0.00    -0.398 N 
HETATM   22  H6  LIG X 999      45.332 130.890  14.913  1.00  0.00     0.156 HD
HETATM   23  H7  LIG X 999      43.818 131.508  14.211  1.00  0.00     0.156 HD
ENDBRANCH   7  21
BRANCH  11  24
HETATM   24  N2  LIG X 999      40.997 132.831  20.492  1.00  0.00    -0.398 N 
HETATM   25  H10 LIG X 999      40.454 132.692  21.370  1.00  0.00     0.156 HD
HETATM   26  H11 LIG X 999      40.600 133.515  19.811  1.00  0.00     0.156 HD
ENDBRANCH  11  24
ENDBRANCH   5   6
ENDBRANCH   4   5
ENDBRANCH   3   4
TORSDOF 5
ENDMDL
MODEL 7
REMARK VINA RESULT:      -3.8      2.001      2.511
REMARK  5 active torsions:
REMARK  status: ('A' for Active; 'I' for Inactive)
REMARK    1  A    between atoms: C3_3  and  C4_4 
REMARK    2  A    between atoms: C4_4  and  S1_5 
REMARK    3  A    between atoms: S1_5  and  C5_6 
REMARK    4  A    between atoms: C6_7  and  N1_8 
REMARK    5  A    between atoms: C10_12  and  N2_13 
ROOT
HETATM    1  C1  LIG X 999      49.342 133.825  23.224  1.00  0.00     0.112 C 
HETATM    2  C2  LIG X 999      48.157 133.613  22.396  1.00  0.00    -0.110 C 
HETATM    3  C3  LIG X 999      47.175 133.445  21.717  1.00  0.00    -0.097 C 
ENDROOT
BRANCH   3   4
HETATM    4  C4  LIG X 999      45.979 133.250  20.893  1.00  0.00     0.173 C 
BRANCH   4   5
HETATM    5  S1  LIG X 999      45.522 131.484  20.840  1.00  0.00    -0.115 SA
BRANCH   5   6
HETATM    6  C5  LIG X 999      44.218 131.691  19.598  1.00  0.00     0.038 A 
HETATM    7  C6  LIG X 999      42.922 132.077  20.007  1.00  0.00     0.043 A 
HETATM    8  C7  LIG X 999      41.920 132.259  19.053  1.00  0.00     0.031 A 
HETATM    9  C8  LIG X 999      42.172 132.064  17.699  1.00  0.00     0.017 A 
HETATM   10  C9  LIG X 999      43.449 131.679  17.250  1.00  0.00     0.002 A 
HETATM   11  C10 LIG X 999      43.725 131.473  15.864  1.00  0.00     0.045 A 
HETATM   12  C14 LIG X 999      44.481 131.465  18.220  1.00  0.00    -0.004 A 
HETATM   13  C11 LIG X 999      45.005 131.033  15.503  1.00  0.00     0.003 A 
HETATM   14  C12 LIG X 999      45.975 130.817  16.429  1.00  0.00    -0.021 A 
HETATM   15  C18 LIG X 999      45.528 130.736  14.145  1.00  0.00     0.278 C 
HETATM   16  C13 LIG X 999      45.752 131.023  17.784  1.00  0.00     0.023 A 
HETATM   17  C15 LIG X 999      47.223 130.345  15.791  1.00  0.00     0.276 C 
HETATM   18  N3  LIG X 999      46.987 130.453  14.318  1.00  0.00    -0.067 N 
HETATM   19  C16 LIG X 999      47.791 131.565  13.755  1.00  0.00     0.272 C 
HETATM   20  C17 LIG X 999      47.362 129.193  13.635  1.00  0.00     0.272 C 
BRANCH   7  21
HETATM   21  N1  LIG X 999      42.594 132.273  21.391  1.00  0.00    -0.398 N 
HETATM   22  H6  LIG X 999      41.676 131.949  21.768  1.00  0.00     0.156 HD
HETATM   23  H7  LIG X 999      43.250 132.724  22.065  1.00  0.00     0.156 HD
ENDBRANCH   7  21
BRANCH  11  24
HETATM   24  N2  LIG X 999      42.749 131.716  14.836  1.00  0.00    -0.398 N 
HETATM   25  H10 LIG X 999      41.979 132.408  14.942  1.00  0.00     0.156 HD
HETATM   26  H11 LIG X 999      42.850 131.282  13.893  1.00  0.00     0.156 HD
ENDBRANCH  11  24
ENDBRANCH   5   6
ENDBRANCH   4   5
ENDBRANCH   3   4
TORSDOF 5
ENDMDL
MODEL 8
REMARK VINA RESULT:      -3.1      2.305      7.280
REMARK  5 active torsions:
REMARK  status: ('A' for Active; 'I' for Inactive)
REMARK    1  A    between atoms: C3_3  and  C4_4 
REMARK    2  A    between atoms: C4_4  and  S1_5 
REMARK    3  A    between atoms: S1_5  and  C5_6 
REMARK    4  A    between atoms: C6_7  and  N1_8 
REMARK    5  A    between atoms: C10_12  and  N2_13 
ROOT
HETATM    1  C1  LIG X 999      47.740 131.012  12.783  1.00  0.00     0.112 C 
HETATM    2  C2  LIG X 999      46.884 130.766  13.942  1.00  0.00    -0.110 C 
HETATM    3  C3  LIG X 999      46.176 130.572  14.898  1.00  0.00    -0.097 C 
ENDROOT
BRANCH   3   4
HETATM    4  C4  LIG X 999      45.311 130.345  16.058  1.00  0.00     0.173 C 
BRANCH   4   5
HETATM    5  S1  LIG X 999      46.293 129.756  17.480  1.00  0.00    -0.115 SA
BRANCH   5   6
HETATM    6  C5  LIG X 999      45.367 130.702  18.719  1.00  0.00     0.038 A 
HETATM    7  C6  LIG X 999      44.886 131.991  18.394  1.00  0.00     0.043 A 
HETATM    8  C7  LIG X 999      44.154 132.715  19.337  1.00  0.00     0.031 A 
HETATM    9  C8  LIG X 999      43.890 132.191  20.598  1.00  0.00     0.017 A 
HETATM   10  C9  LIG X 999      44.351 130.913  20.961  1.00  0.00     0.002 A 
HETATM   11  C10 LIG X 999      44.090 130.361  22.252  1.00  0.00     0.045 A 
HETATM   12  C14 LIG X 999      45.125 130.168  20.012  1.00  0.00    -0.004 A 
HETATM   13  C11 LIG X 999      44.635 129.107  22.558  1.00  0.00     0.003 A 
HETATM   14  C12 LIG X 999      45.380 128.412  21.659  1.00  0.00    -0.021 A 
HETATM   15  C18 LIG X 999      44.521 128.337  23.822  1.00  0.00     0.278 C 
HETATM   16  C13 LIG X 999      45.641 128.905  20.387  1.00  0.00     0.023 A 
HETATM   17  C15 LIG X 999      45.844 127.131  22.232  1.00  0.00     0.276 C 
HETATM   18  N3  LIG X 999      45.156 127.008  23.554  1.00  0.00    -0.067 N 
HETATM   19  C16 LIG X 999      44.119 125.951  23.492  1.00  0.00     0.272 C 
HETATM   20  C17 LIG X 999      46.128 126.668  24.620  1.00  0.00     0.272 C 
BRANCH   7  21
HETATM   21  N1  LIG X 999      45.144 132.593  17.117  1.00  0.00    -0.398 N 
HETATM   22  H6  LIG X 999      44.639 132.263  16.264  1.00  0.00     0.156 HD
HETATM   23  H7  LIG X 999      45.820 133.377  16.991  1.00  0.00     0.156 HD
ENDBRANCH   7  21
BRANCH  11  24
HETATM   24  N2  LIG X 999      43.283 131.034  23.233  1.00  0.00    -0.398 N 
HETATM   25  H10 LIG X 999      42.452 131.609  22.981  1.00  0.00     0.156 HD
HETATM   26  H11 LIG X 999      43.439 130.875  24.252  1.00  0.00     0.156 HD
ENDBRANCH  11  24
ENDBRANCH   5   6
ENDBRANCH   4   5
ENDBRANCH   3   4
TORSDOF 5
ENDMDL
MODEL 9
REMARK VINA RESULT:      -2.6      7.717      9.400
REMARK  5 active torsions:
REMARK  status: ('A' for Active; 'I' for Inactive)
REMARK    1  A    between atoms: C3_3  and  C4_4 
REMARK    2  A    between atoms: C4_4  and  S1_5 
REMARK    3  A    between atoms: S1_5  and  C5_6 
REMARK    4  A    between atoms: C6_7  and  N1_8 
REMARK    5  A    between atoms: C10_12  and  N2_13 
ROOT
HETATM    1  C1  LIG X 999      44.776 130.364  24.593  1.00  0.00     0.112 C 
HETATM    2  C2  LIG X 999      44.458 128.989  24.212  1.00  0.00    -0.110 C 
HETATM    3  C3  LIG X 999      44.193 127.854  23.907  1.00  0.00    -0.097 C 
ENDROOT
BRANCH   3   4
HETATM    4  C4  LIG X 999      43.867 126.473  23.543  1.00  0.00     0.173 C 
BRANCH   4   5
HETATM    5  S1  LIG X 999      44.756 125.302  24.625  1.00  0.00    -0.115 SA
BRANCH   5   6
HETATM    6  C5  LIG X 999      45.291 124.212  23.278  1.00  0.00     0.038 A 
HETATM    7  C6  LIG X 999      44.327 123.473  22.556  1.00  0.00     0.043 A 
HETATM    8  C7  LIG X 999      44.731 122.649  21.504  1.00  0.00     0.031 A 
HETATM    9  C8  LIG X 999      46.073 122.538  21.153  1.00  0.00     0.017 A 
HETATM   10  C9  LIG X 999      47.064 123.256  21.847  1.00  0.00     0.002 A 
HETATM   11  C10 LIG X 999      48.445 123.152  21.500  1.00  0.00     0.045 A 
HETATM   12  C14 LIG X 999      46.666 124.087  22.944  1.00  0.00    -0.004 A 
HETATM   13  C11 LIG X 999      49.377 123.854  22.278  1.00  0.00     0.003 A 
HETATM   14  C12 LIG X 999      48.994 124.628  23.326  1.00  0.00    -0.021 A 
HETATM   15  C18 LIG X 999      50.853 123.895  22.130  1.00  0.00     0.278 C 
HETATM   16  C13 LIG X 999      47.660 124.770  23.684  1.00  0.00     0.023 A 
HETATM   17  C15 LIG X 999      50.166 125.245  23.985  1.00  0.00     0.276 C 
HETATM   18  N3  LIG X 999      51.338 124.909  23.118  1.00  0.00    -0.067 N 
HETATM   19  C16 LIG X 999      51.811 126.124  22.412  1.00  0.00     0.272 C 
HETATM   20  C17 LIG X 999      52.449 124.361  23.930  1.00  0.00     0.272 C 
BRANCH   7  21
HETATM   21  N1  LIG X 999      42.931 123.529  22.885  1.00  0.00    -0.398 N 
HETATM   22  H6  LIG X 999      42.253 123.991  22.238  1.00  0.00     0.156 HD
HETATM   23  H7  LIG X 999      42.541 123.108  23.756  1.00  0.00     0.156 HD
ENDBRANCH   7  21
BRANCH  11  24
HETATM   24  N2  LIG X 999      48.906 122.375  20.382  1.00  0.00    -0.398 N 
HETATM   25  H10 LIG X 999      48.889 122.730  19.403  1.00  0.00     0.156 HD
HETATM   26  H11 LIG X 999      49.384 121.460  20.530  1.00  0.00     0.156 HD
ENDBRANCH  11  24
ENDBRANCH   5   6
ENDBRANCH   4   5
ENDBRANCH   3   4
TORSDOF 5
ENDMDL
