REMARK VINA RESULT:      -4.6      5.287      7.584
REMARK  4 active torsions:
REMARK  status: ('A' for Active; 'I' for Inactive)
REMARK    1  A    between atoms: C3_3  and  O1_4 
REMARK    2  A    between atoms: O1_4  and  C4_5 
REMARK    3  A    between atoms: C9_12  and  N2_13 
REMARK    4  A    between atoms: C11_17  and  C12_18 
ROOT
HETATM    1  C1  LIG X 999      53.149 124.269  17.531  1.00  0.00     0.014 C 
HETATM    2  C2  LIG X 999      52.027 123.998  17.880  1.00  0.00    -0.091 C 
HETATM    3  C3  LIG X 999      50.663 123.665  18.304  1.00  0.00     0.268 C 
ENDROOT
BRANCH   3   4
HETATM    4  O1  LIG X 999      50.653 123.251  19.669  1.00  0.00    -0.339 OA
BRANCH   4   5
HETATM    5  C4  LIG X 999      50.536 124.098  20.787  1.00  0.00     0.085 A 
HETATM    6  C5  LIG X 999      51.602 124.977  21.158  1.00  0.00     0.052 A 
HETATM    7  C6  LIG X 999      51.472 125.816  22.277  1.00  0.00     0.008 A 
HETATM    8  C7  LIG X 999      50.295 125.745  22.980  1.00  0.00     0.018 A 
HETATM    9  C15 LIG X 999      52.484 126.782  22.783  1.00  0.00     0.059 A 
HETATM   10  C8  LIG X 999      49.996 126.479  24.079  1.00  0.00     0.046 A 
HETATM   11  C10 LIG X 999      49.253 124.929  22.673  1.00  0.00     0.042 A 
HETATM   12  N1  LIG X 999      48.760 126.166  24.515  1.00  0.00    -0.337 N 
HETATM   13  C13 LIG X 999      50.958 127.453  24.625  1.00  0.00     0.033 A 
HETATM   14  H5  LIG X 999      48.266 126.574  25.339  1.00  0.00     0.167 HD
HETATM   15  C9  LIG X 999      48.297 125.214  23.656  1.00  0.00     0.176 A 
HETATM   16  C14 LIG X 999      52.149 127.595  24.002  1.00  0.00     0.034 A 
HETATM   17  C11 LIG X 999      49.328 124.067  21.560  1.00  0.00     0.050 A 
HETATM   18  N5  LIG X 999      53.625 126.919  22.185  1.00  0.00    -0.300 NA
HETATM   19  H9  LIG X 999      54.347 127.592  22.525  1.00  0.00     0.187 HD
BRANCH  15  20
HETATM   20  N2  LIG X 999      47.006 124.612  23.762  1.00  0.00    -0.053 NA
HETATM   21  N3  LIG X 999      46.020 125.110  23.218  1.00  0.00    -0.160 NA
HETATM   22  N4  LIG X 999      45.035 125.606  22.675  1.00  0.00     0.068 N 
ENDBRANCH  15  20
BRANCH  17  23
HETATM   23  C12 LIG X 999      48.199 123.169  21.212  1.00  0.00     0.273 C 
HETATM   24  O2  LIG X 999      47.286 123.532  20.426  1.00  0.00    -0.301 OA
ENDBRANCH  17  23
ENDBRANCH   4   5
ENDBRANCH   3   4
TORSDOF 4
