REMARK VINA RESULT:      -6.1      4.214      6.642
REMARK  1 active torsions:
REMARK  status: ('A' for Active; 'I' for Inactive)
REMARK    1  A    between atoms: C14_14  and  N1_15 
ROOT
HETATM    1  N1  LIG X 999      47.086 129.014  14.881  1.00  0.00    -0.216 NA
HETATM    2  C15 LIG X 999      47.707 129.522  13.893  1.00  0.00     0.165 C 
HETATM    3  S1  LIG X 999      48.494 130.164  12.642  1.00  0.00    -0.055 SA
ENDROOT
BRANCH   1   4
HETATM    4  C14 LIG X 999      46.219 129.756  15.755  1.00  0.00     0.130 C 
HETATM    5  C13 LIG X 999      45.098 130.445  15.276  1.00  0.00     0.058 C 
HETATM    6  C11 LIG X 999      44.283 131.175  16.153  1.00  0.00    -0.045 C 
HETATM    7  C10 LIG X 999      44.520 131.094  17.561  1.00  0.00     0.008 C 
HETATM    8  C12 LIG X 999      43.299 132.122  15.510  1.00  0.00     0.049 C 
HETATM    9  C4  LIG X 999      43.645 131.603  18.579  1.00  0.00    -0.013 C 
HETATM   10  C9  LIG X 999      45.745 130.492  17.972  1.00  0.00     0.045 C 
HETATM   11  C3  LIG X 999      42.276 131.886  18.359  1.00  0.00     0.013 C 
HETATM   12  C5  LIG X 999      44.133 131.734  19.911  1.00  0.00    -0.025 C 
HETATM   13  C2  LIG X 999      41.480 132.433  19.368  1.00  0.00     0.001 C 
HETATM   14  C1  LIG X 999      42.012 132.667  20.634  1.00  0.00     0.001 C 
HETATM   15  C6  LIG X 999      43.326 132.299  20.912  1.00  0.00     0.012 C 
HETATM   16  C7  LIG X 999      45.398 131.250  20.248  1.00  0.00     0.014 C 
HETATM   17  C8  LIG X 999      46.168 130.588  19.303  1.00  0.00     0.031 C 
HETATM   18  N2  LIG X 999      46.532 129.834  17.074  1.00  0.00    -0.340 N 
HETATM   19  H11 LIG X 999      47.409 129.364  17.400  1.00  0.00     0.167 HD
ENDBRANCH   1   4
TORSDOF 1
