REMARK VINA RESULT:      -6.0      1.553      2.995
REMARK  7 active torsions:
REMARK  status: ('A' for Active; 'I' for Inactive)
REMARK    1  A    between atoms: C14_14  and  N1_15 
REMARK    2  A    between atoms: N1_15  and  C15_17 
REMARK    3  A    between atoms: C15_17  and  C16_18 
REMARK    4  A    between atoms: C16_18  and  C17_19 
REMARK    5  A    between atoms: C17_19  and  C18_20 
REMARK    6  A    between atoms: C18_20  and  C19_21 
REMARK    7  A    between atoms: C19_21  and  N2_22 
ROOT
HETATM    1  C1  LIG X 999      44.527 130.956  14.074  1.00  0.00     0.001 C 
HETATM    2  C2  LIG X 999      43.626 131.843  14.653  1.00  0.00     0.001 C 
HETATM    3  C3  LIG X 999      43.569 131.986  16.041  1.00  0.00     0.013 C 
HETATM    4  C4  LIG X 999      44.383 131.201  16.892  1.00  0.00    -0.013 C 
HETATM    5  C5  LIG X 999      45.379 130.391  16.275  1.00  0.00    -0.025 C 
HETATM    6  C6  LIG X 999      45.416 130.247  14.879  1.00  0.00     0.012 C 
HETATM    7  C7  LIG X 999      46.366 129.779  17.050  1.00  0.00     0.014 C 
HETATM    8  C8  LIG X 999      46.418 130.000  18.419  1.00  0.00     0.031 C 
HETATM    9  C9  LIG X 999      45.421 130.743  19.064  1.00  0.00     0.045 C 
HETATM   10  C10 LIG X 999      44.324 131.266  18.324  1.00  0.00     0.008 C 
HETATM   11  C11 LIG X 999      43.226 131.781  19.080  1.00  0.00    -0.045 C 
HETATM   12  C12 LIG X 999      41.832 131.967  18.530  1.00  0.00     0.049 C 
HETATM   13  C13 LIG X 999      43.383 132.005  20.455  1.00  0.00     0.056 C 
HETATM   14  C14 LIG X 999      44.551 131.599  21.121  1.00  0.00     0.101 C 
HETATM   15  N3  LIG X 999      45.510 130.940  20.411  1.00  0.00    -0.342 N 
HETATM   16  H28 LIG X 999      46.352 130.577  20.916  1.00  0.00     0.167 HD
ENDROOT
BRANCH  14  17
HETATM   17  N1  LIG X 999      44.729 131.797  22.408  1.00  0.00    -0.376 N 
HETATM   18  H11 LIG X 999      45.448 132.493  22.714  1.00  0.00     0.161 HD
BRANCH  17  19
HETATM   19  C15 LIG X 999      44.010 131.122  23.496  1.00  0.00     0.121 C 
BRANCH  19  20
HETATM   20  C16 LIG X 999      44.192 129.602  23.407  1.00  0.00     0.020 C 
BRANCH  20  21
HETATM   21  C17 LIG X 999      42.837 128.880  23.487  1.00  0.00     0.004 C 
BRANCH  21  22
HETATM   22  C18 LIG X 999      42.973 127.396  23.871  1.00  0.00     0.035 C 
BRANCH  22  23
HETATM   23  C19 LIG X 999      41.629 126.640  23.923  1.00  0.00     0.216 C 
HETATM   24  C21 LIG X 999      40.488 127.573  23.479  1.00  0.00     0.042 C 
BRANCH  23  25
HETATM   25  N2  LIG X 999      41.704 125.437  23.071  1.00  0.00     0.083 N 
HETATM   26  H21 LIG X 999      41.305 124.609  23.573  1.00  0.00     0.315 HD
HETATM   27  C20 LIG X 999      43.079 125.127  22.671  1.00  0.00     0.307 C 
ENDBRANCH  23  25
ENDBRANCH  22  23
ENDBRANCH  21  22
ENDBRANCH  20  21
ENDBRANCH  19  20
ENDBRANCH  17  19
ENDBRANCH  14  17
TORSDOF 7
