REMARK VINA RESULT:      -5.2      8.231      9.176
REMARK  2 active torsions:
REMARK  status: ('A' for Active; 'I' for Inactive)
REMARK    1  A    between atoms: C9_10  and  N2_11 
REMARK       I    between atoms: N2_11  and  C10_12 
REMARK    2  A    between atoms: C10_12  and  C11_14 
ROOT
HETATM    1  C11 LIG X 999      51.015 124.265  20.333  1.00  0.00     0.282 C 
HETATM    2 CL1  LIG X 999      52.145 123.781  21.621  1.00  0.00    -0.099 Cl
HETATM    3  C12 LIG X 999      51.409 123.627  19.072  1.00  0.00     0.089 C 
HETATM    4  N3  LIG X 999      51.719 123.123  18.077  1.00  0.00    -0.195 NA
ENDROOT
BRANCH   1   5
HETATM    5  C10 LIG X 999      49.621 123.864  20.700  1.00  0.00     0.276 C 
HETATM    6  N2  LIG X 999      48.973 124.482  21.821  1.00  0.00    -0.212 NA
HETATM    7  O1  LIG X 999      49.006 123.028  19.984  1.00  0.00    -0.268 OA
BRANCH   6   8
HETATM    8  C9  LIG X 999      47.762 124.048  22.455  1.00  0.00     0.061 A 
HETATM    9  C8  LIG X 999      47.749 123.008  23.404  1.00  0.00     0.032 A 
HETATM   10  C7  LIG X 999      46.554 122.624  24.019  1.00  0.00     0.014 A 
HETATM   11  C6  LIG X 999      45.357 123.280  23.708  1.00  0.00    -0.025 A 
HETATM   12  C5  LIG X 999      44.149 122.901  24.325  1.00  0.00     0.021 A 
HETATM   13  C14 LIG X 999      45.366 124.349  22.768  1.00  0.00    -0.023 A 
HETATM   14  C4  LIG X 999      42.981 123.586  23.985  1.00  0.00    -0.024 A 
HETATM   15  C3  LIG X 999      41.618 123.376  24.519  1.00  0.00     0.276 C 
HETATM   16  C16 LIG X 999      42.990 124.609  23.086  1.00  0.00    -0.024 A 
HETATM   17  N1  LIG X 999      40.729 124.284  23.726  1.00  0.00    -0.067 N 
HETATM   18  C1  LIG X 999      39.862 125.081  24.623  1.00  0.00     0.272 C 
HETATM   19  C2  LIG X 999      39.877 123.488  22.812  1.00  0.00     0.272 C 
HETATM   20  C17 LIG X 999      41.634 125.178  22.934  1.00  0.00     0.276 C 
HETATM   21  C15 LIG X 999      44.168 125.021  22.459  1.00  0.00     0.021 A 
HETATM   22  C13 LIG X 999      46.572 124.725  22.158  1.00  0.00     0.044 A 
ENDBRANCH   6   8
ENDBRANCH   1   5
TORSDOF 2
