REMARK VINA RESULT:      -6.2      2.381      2.933
REMARK  7 active torsions:
REMARK  status: ('A' for Active; 'I' for Inactive)
REMARK    1  A    between atoms: O1_2  and  C1_3 
REMARK    2  A    between atoms: C1_3  and  C2_4 
REMARK    3  A    between atoms: C1_3  and  C3_8 
REMARK    4  A    between atoms: C2_4  and  N1_5 
REMARK    5  A    between atoms: C3_8  and  O2_9 
REMARK    6  A    between atoms: O2_9  and  C4_10 
REMARK    7  A    between atoms: C9_15  and  N4_16 
ROOT
HETATM    1  N1  LIG X 999      42.547 131.877  24.073  1.00  0.00    -0.113 NA
HETATM    2  N2  LIG X 999      43.606 132.444  24.344  1.00  0.00    -0.168 NA
HETATM    3  N3  LIG X 999      44.664 133.010  24.615  1.00  0.00     0.068 N 
ENDROOT
BRANCH   1   4
HETATM    4  C2  LIG X 999      42.493 130.871  23.020  1.00  0.00     0.223 C 
BRANCH   4   5
HETATM    5  C1  LIG X 999      43.425 129.688  23.336  1.00  0.00     0.165 C 
BRANCH   5   6
HETATM    6  O1  LIG X 999      42.711 128.476  23.337  1.00  0.00    -0.392 OA
HETATM    7  H1  LIG X 999      42.924 127.999  24.181  1.00  0.00     0.210 HD
ENDBRANCH   5   6
BRANCH   5   8
HETATM    8  C3  LIG X 999      44.631 129.612  22.386  1.00  0.00     0.209 C 
BRANCH   8   9
HETATM    9  O2  LIG X 999      44.804 130.859  21.717  1.00  0.00    -0.349 OA
BRANCH   9  10
HETATM   10  C4  LIG X 999      44.812 131.022  20.324  1.00  0.00     0.069 A 
HETATM   11  C5  LIG X 999      43.911 131.932  19.759  1.00  0.00     0.037 A 
HETATM   12  C6  LIG X 999      43.874 132.134  18.378  1.00  0.00     0.015 A 
HETATM   13  C7  LIG X 999      44.742 131.424  17.537  1.00  0.00    -0.024 A 
HETATM   14  C8  LIG X 999      44.711 131.620  16.147  1.00  0.00     0.046 A 
HETATM   15  C12 LIG X 999      45.657 130.501  18.096  1.00  0.00    -0.023 A 
HETATM   16  C9  LIG X 999      45.586 130.903  15.309  1.00  0.00     0.094 A 
HETATM   17  C10 LIG X 999      46.488 129.992  15.872  1.00  0.00     0.035 A 
HETATM   18  C11 LIG X 999      46.525 129.790  17.254  1.00  0.00     0.014 A 
HETATM   19  C13 LIG X 999      45.687 130.305  19.485  1.00  0.00     0.049 A 
BRANCH  16  20
HETATM   20  N4  LIG X 999      45.582 131.078  13.885  1.00  0.00    -0.073 NA
HETATM   21  N5  LIG X 999      46.615 131.067  13.216  1.00  0.00    -0.162 NA
HETATM   22  N6  LIG X 999      47.648 131.055  12.546  1.00  0.00     0.068 N 
ENDBRANCH  16  20
ENDBRANCH   9  10
ENDBRANCH   8   9
ENDBRANCH   5   8
ENDBRANCH   4   5
ENDBRANCH   1   4
TORSDOF 7
