REMARK VINA RESULT:      -6.5      1.845      3.524
REMARK  1 active torsions:
REMARK  status: ('A' for Active; 'I' for Inactive)
REMARK    1  A    between atoms: N1_2  and  C1_3 
ROOT
HETATM    1  C1  LIG X 999      44.655 131.644  15.987  1.00  0.00     0.120 C 
HETATM    2  C2  LIG X 999      45.602 131.019  16.791  1.00  0.00     0.057 C 
HETATM    3  C3  LIG X 999      45.377 130.864  18.166  1.00  0.00    -0.045 C 
HETATM    4  C4  LIG X 999      46.302 129.912  18.886  1.00  0.00     0.049 C 
HETATM    5  C5  LIG X 999      44.231 131.482  18.761  1.00  0.00     0.008 C 
HETATM    6  C6  LIG X 999      43.989 131.591  20.172  1.00  0.00    -0.013 C 
HETATM    7  C7  LIG X 999      45.005 131.469  21.149  1.00  0.00     0.013 C 
HETATM    8  C8  LIG X 999      44.707 131.526  22.513  1.00  0.00     0.001 C 
HETATM    9  C9  LIG X 999      43.402 131.755  22.938  1.00  0.00     0.001 C 
HETATM   10  C10 LIG X 999      42.398 131.986  22.000  1.00  0.00     0.012 C 
HETATM   11  C11 LIG X 999      42.687 131.946  20.627  1.00  0.00    -0.025 C 
HETATM   12  C12 LIG X 999      41.698 132.315  19.712  1.00  0.00     0.014 C 
HETATM   13  C13 LIG X 999      41.990 132.392  18.358  1.00  0.00     0.031 C 
HETATM   14  C14 LIG X 999      43.241 131.993  17.871  1.00  0.00     0.045 C 
HETATM   15  N2  LIG X 999      43.488 132.080  16.532  1.00  0.00    -0.341 N 
HETATM   16  H12 LIG X 999      42.761 132.494  15.902  1.00  0.00     0.167 HD
ENDROOT
BRANCH   1  17
HETATM   17  N1  LIG X 999      44.877 131.767  14.716  1.00  0.00    -0.284 NA
HETATM   18  H1  LIG X 999      45.715 131.348  14.254  1.00  0.00     0.188 HD
ENDBRANCH   1  17
TORSDOF 1
