REMARK VINA RESULT:      -7.0      0.873      2.749
REMARK  1 active torsions:
REMARK  status: ('A' for Active; 'I' for Inactive)
REMARK    1  A    between atoms: C4_4  and  N1_5 
ROOT
HETATM    1  C1  LIG X 999      41.782 133.261  19.949  1.00  0.00     0.049 C 
HETATM    2  C2  LIG X 999      42.592 132.240  20.708  1.00  0.00    -0.045 C 
HETATM    3  C3  LIG X 999      42.267 132.081  22.066  1.00  0.00     0.057 C 
HETATM    4  C4  LIG X 999      43.117 131.374  22.913  1.00  0.00     0.122 C 
HETATM    5  N2  LIG X 999      44.275 130.869  22.431  1.00  0.00    -0.231 NA
HETATM    6  C5  LIG X 999      44.615 130.954  21.119  1.00  0.00     0.070 C 
HETATM    7  C6  LIG X 999      45.859 130.465  20.724  1.00  0.00     0.033 C 
HETATM    8  C7  LIG X 999      46.257 130.536  19.396  1.00  0.00     0.014 C 
HETATM    9  C8  LIG X 999      45.371 131.000  18.419  1.00  0.00    -0.025 C 
HETATM   10  C9  LIG X 999      45.760 130.963  17.069  1.00  0.00     0.012 C 
HETATM   11  C10 LIG X 999      44.852 131.293  16.066  1.00  0.00     0.001 C 
HETATM   12  C11 LIG X 999      43.541 131.622  16.398  1.00  0.00     0.001 C 
HETATM   13  C12 LIG X 999      43.145 131.678  17.737  1.00  0.00     0.013 C 
HETATM   14  C13 LIG X 999      44.069 131.453  18.784  1.00  0.00    -0.013 C 
HETATM   15  C14 LIG X 999      43.731 131.552  20.176  1.00  0.00     0.010 C 
ENDROOT
BRANCH   4  16
HETATM   16  N1  LIG X 999      42.804 131.233  24.300  1.00  0.00    -0.384 N 
HETATM   17  H5  LIG X 999      43.366 130.605  24.917  1.00  0.00     0.157 HD
HETATM   18  H6  LIG X 999      42.006 131.763  24.716  1.00  0.00     0.157 HD
ENDBRANCH   4  16
TORSDOF 1
