REMARK VINA RESULT:      -7.0      1.795      2.258
REMARK  7 active torsions:
REMARK  status: ('A' for Active; 'I' for Inactive)
REMARK    1  A    between atoms: O1_2  and  C1_3 
REMARK    2  A    between atoms: C1_3  and  C14_20 
REMARK    3  A    between atoms: N1_4  and  C2_5 
REMARK    4  A    between atoms: C2_5  and  O2_6 
REMARK    5  A    between atoms: O2_6  and  C3_7 
REMARK    6  A    between atoms: C3_7  and  O4_9 
REMARK    7  A    between atoms: O4_9  and  C4_10 
ROOT
HETATM    1  C3  LIG X 999      45.111 131.217  20.981  1.00  0.00     0.413 C 
HETATM    2  O3  LIG X 999      45.742 132.279  21.235  1.00  0.00    -0.229 OA
ENDROOT
BRANCH   1   3
HETATM    3  O2  LIG X 999      43.955 130.894  21.696  1.00  0.00    -0.276 OA
BRANCH   3   4
HETATM    4  C2  LIG X 999      43.989 130.216  22.948  1.00  0.00     0.332 C 
BRANCH   4   5
HETATM    5  N1  LIG X 999      42.628 129.985  23.423  1.00  0.00    -0.238 NA
HETATM    6  C1  LIG X 999      42.102 128.857  23.818  1.00  0.00     0.190 C 
BRANCH   6   7
HETATM    7  O1  LIG X 999      40.771 128.853  24.225  1.00  0.00    -0.343 OA
HETATM    8  H1  LIG X 999      40.355 129.664  24.667  1.00  0.00     0.219 HD
ENDBRANCH   6   7
BRANCH   6   9
HETATM    9  C14 LIG X 999      42.840 127.569  23.858  1.00  0.00     0.130 A 
HETATM   10  N2  LIG X 999      42.530 126.461  23.154  1.00  0.00    -0.169 NA
HETATM   11  N3  LIG X 999      43.412 125.529  23.469  1.00  0.00    -0.285 N 
HETATM   12  C15 LIG X 999      43.440 124.202  22.868  1.00  0.00     0.179 C 
HETATM   13  C16 LIG X 999      44.306 126.018  24.346  1.00  0.00     0.114 A 
HETATM   14  C17 LIG X 999      43.967 127.325  24.625  1.00  0.00     0.056 A 
ENDBRANCH   6   9
ENDBRANCH   4   5
ENDBRANCH   3   4
ENDBRANCH   1   3
BRANCH   1  15
HETATM   15  O4  LIG X 999      45.532 130.360  19.959  1.00  0.00    -0.256 OA
BRANCH  15  16
HETATM   16  C4  LIG X 999      45.427 130.631  18.587  1.00  0.00     0.082 A 
HETATM   17  C5  LIG X 999      44.362 131.424  18.144  1.00  0.00     0.038 A 
HETATM   18  C6  LIG X 999      44.204 131.713  16.786  1.00  0.00     0.015 A 
HETATM   19  C7  LIG X 999      45.107 131.198  15.846  1.00  0.00    -0.026 A 
HETATM   20  C8  LIG X 999      44.957 131.479  14.479  1.00  0.00     0.012 A 
HETATM   21  C12 LIG X 999      46.177 130.378  16.280  1.00  0.00    -0.023 A 
HETATM   22  C9  LIG X 999      45.858 130.949  13.551  1.00  0.00     0.001 A 
HETATM   23  C10 LIG X 999      46.912 130.138  13.979  1.00  0.00     0.001 A 
HETATM   24  C11 LIG X 999      47.073 129.852  15.337  1.00  0.00     0.012 A 
HETATM   25  C13 LIG X 999      46.327 130.097  17.646  1.00  0.00     0.049 A 
ENDBRANCH  15  16
ENDBRANCH   1  15
TORSDOF 7
