REMARK VINA RESULT:      -3.9      7.463      8.877
REMARK  2 active torsions:
REMARK  status: ('A' for Active; 'I' for Inactive)
REMARK       I    between atoms: N1_1  and  C1_2 
REMARK    1  A    between atoms: C1_2  and  C2_4 
REMARK    2  A    between atoms: C11_13  and  O2_14 
ROOT
HETATM    1  C2  LIG X 999      43.266 129.516  23.024  1.00  0.00     0.116 C 
HETATM    2  C3  LIG X 999      42.171 129.770  24.089  1.00  0.00     0.017 C 
HETATM    3  C4  LIG X 999      41.275 128.539  24.301  1.00  0.00     0.002 C 
HETATM    4  C5  LIG X 999      42.097 127.282  24.624  1.00  0.00     0.012 C 
HETATM    5  C6  LIG X 999      43.144 127.047  23.526  1.00  0.00     0.047 C 
HETATM    6  C7  LIG X 999      43.921 125.766  23.712  1.00  0.00    -0.019 C 
HETATM    7  C8  LIG X 999      45.057 125.587  23.026  1.00  0.00    -0.004 C 
HETATM    8  C9  LIG X 999      45.617 126.687  22.207  1.00  0.00    -0.001 C 
HETATM    9  C10 LIG X 999      45.148 127.938  22.330  1.00  0.00     0.012 C 
HETATM   10  C11 LIG X 999      44.109 128.264  23.398  1.00  0.00     0.095 C 
ENDROOT
BRANCH   1  11
HETATM   11  C1  LIG X 999      44.121 130.753  22.859  1.00  0.00     0.222 C 
HETATM   12  N1  LIG X 999      44.629 131.438  24.005  1.00  0.00    -0.370 N 
HETATM   13  H1  LIG X 999      44.417 131.102  24.971  1.00  0.00     0.159 HD
HETATM   14  H2  LIG X 999      45.216 132.294  23.888  1.00  0.00     0.159 HD
HETATM   15  O1  LIG X 999      44.380 131.196  21.709  1.00  0.00    -0.273 OA
ENDBRANCH   1  11
BRANCH  10  16
HETATM   16  O2  LIG X 999      44.764 128.513  24.625  1.00  0.00    -0.384 OA
HETATM   17  H15 LIG X 999      44.091 128.524  25.354  1.00  0.00     0.211 HD
ENDBRANCH  10  16
TORSDOF 2
