REMARK VINA RESULT:      -5.4      1.604      3.332
REMARK  1 active torsions:
REMARK  status: ('A' for Active; 'I' for Inactive)
REMARK    1  A    between atoms: C5_8  and  O1_9 
ROOT
HETATM    1  H1  LIG X 999      46.815 129.388  21.870  1.00  0.00     0.187 HD
HETATM    2  N1  LIG X 999      46.506 129.681  20.916  1.00  0.00    -0.300 NA
HETATM    3  C1  LIG X 999      45.411 130.345  20.730  1.00  0.00     0.059 A 
HETATM    4  C2  LIG X 999      44.528 130.729  21.887  1.00  0.00     0.034 A 
HETATM    5  C3  LIG X 999      43.382 131.423  21.692  1.00  0.00     0.035 A 
HETATM    6  C4  LIG X 999      43.016 131.798  20.313  1.00  0.00     0.071 A 
HETATM    7  N2  LIG X 999      41.934 132.483  19.874  1.00  0.00    -0.224 NA
HETATM    8  C5  LIG X 999      42.100 132.542  18.520  1.00  0.00     0.174 A 
HETATM    9  C6  LIG X 999      43.267 131.903  18.129  1.00  0.00     0.030 A 
HETATM   10  C7  LIG X 999      43.897 131.675  16.905  1.00  0.00     0.017 A 
HETATM   11  C8  LIG X 999      45.119 130.956  16.924  1.00  0.00     0.002 A 
HETATM   12  C9  LIG X 999      45.671 130.491  18.151  1.00  0.00     0.015 A 
HETATM   13  C10 LIG X 999      44.993 130.748  19.361  1.00  0.00     0.005 A 
HETATM   14  C11 LIG X 999      43.812 131.450  19.277  1.00  0.00     0.020 A 
ENDROOT
BRANCH   8  15
HETATM   15  O1  LIG X 999      41.206 133.166  17.658  1.00  0.00    -0.344 OA
HETATM   16  H4  LIG X 999      41.517 133.524  16.764  1.00  0.00     0.219 HD
ENDBRANCH   8  15
TORSDOF 1
