REMARK VINA RESULT:      -8.1      0.000      0.000
REMARK  1 active torsions:
REMARK  status: ('A' for Active; 'I' for Inactive)
REMARK    1  A    between atoms: C11_13  and  N2_14 
ROOT
HETATM    1  N2  LIG X 999      47.534 129.515  14.363  1.00  0.00    -0.053 NA
HETATM    2  N3  LIG X 999      47.771 130.224  13.384  1.00  0.00    -0.160 NA
HETATM    3  N4  LIG X 999      48.008 130.931  12.406  1.00  0.00     0.068 N 
ENDROOT
BRANCH   1   4
HETATM    4  C11 LIG X 999      46.702 129.979  15.427  1.00  0.00     0.175 A 
HETATM    5  C10 LIG X 999      45.485 130.626  15.262  1.00  0.00     0.026 A 
HETATM    6  C5  LIG X 999      45.050 130.881  16.518  1.00  0.00     0.017 A 
HETATM    7  C9  LIG X 999      44.724 131.012  14.157  1.00  0.00     0.016 A 
HETATM    8  C4  LIG X 999      45.955 130.415  17.411  1.00  0.00     0.046 A 
HETATM    9  C6  LIG X 999      43.869 131.517  16.826  1.00  0.00     0.005 A 
HETATM   10  C3  LIG X 999      45.726 130.565  18.858  1.00  0.00     0.033 A 
HETATM   11  N5  LIG X 999      46.993 129.849  16.755  1.00  0.00    -0.337 N 
HETATM   12  C2  LIG X 999      44.591 131.177  19.269  1.00  0.00     0.034 A 
HETATM   13  C1  LIG X 999      43.587 131.696  18.274  1.00  0.00     0.059 A 
HETATM   14  N1  LIG X 999      42.501 132.283  18.667  1.00  0.00    -0.300 NA
HETATM   15  H1  LIG X 999      42.284 132.417  19.680  1.00  0.00     0.187 HD
HETATM   16  H7  LIG X 999      47.838 129.406  17.180  1.00  0.00     0.167 HD
HETATM   17  C7  LIG X 999      43.064 131.928  15.742  1.00  0.00     0.015 A 
HETATM   18  C8  LIG X 999      43.494 131.672  14.409  1.00  0.00     0.002 A 
ENDBRANCH   1   4
TORSDOF 1
