REMARK VINA RESULT:      -5.3      2.605      7.328
REMARK  2 active torsions:
REMARK  status: ('A' for Active; 'I' for Inactive)
REMARK    1  A    between atoms: C2_2  and  N1_3 
REMARK    2  A    between atoms: C3_6  and  O1_7 
ROOT
HETATM    1  N1  LIG X 999      42.257 131.805  23.530  1.00  0.00    -0.070 NA
HETATM    2  N2  LIG X 999      41.266 132.519  23.371  1.00  0.00    -0.162 NA
HETATM    3  N3  LIG X 999      40.276 133.233  23.216  1.00  0.00     0.068 N 
ENDROOT
BRANCH   1   4
HETATM    4  C2  LIG X 999      43.125 131.440  22.446  1.00  0.00     0.127 A 
HETATM    5  C1  LIG X 999      42.830 131.805  21.119  1.00  0.00     0.049 A 
HETATM    6  C11 LIG X 999      43.688 131.441  20.074  1.00  0.00    -0.023 A 
HETATM    7  C6  LIG X 999      44.866 130.696  20.359  1.00  0.00    -0.022 A 
HETATM    8  C10 LIG X 999      43.392 131.803  18.745  1.00  0.00     0.021 A 
HETATM    9  C5  LIG X 999      45.154 130.335  21.681  1.00  0.00     0.051 A 
HETATM   10  C7  LIG X 999      45.730 130.326  19.310  1.00  0.00     0.021 A 
HETATM   11  C3  LIG X 999      44.288 130.704  22.730  1.00  0.00     0.100 A 
HETATM   12  C8  LIG X 999      45.406 130.711  18.007  1.00  0.00    -0.024 A 
HETATM   13  C9  LIG X 999      44.279 131.424  17.735  1.00  0.00    -0.024 A 
HETATM   14  C15 LIG X 999      46.147 130.415  16.762  1.00  0.00     0.276 C 
HETATM   15  C12 LIG X 999      44.160 131.672  16.283  1.00  0.00     0.276 C 
HETATM   16  N4  LIG X 999      45.436 131.169  15.681  1.00  0.00    -0.067 N 
HETATM   17  C13 LIG X 999      46.267 132.309  15.228  1.00  0.00     0.272 C 
HETATM   18  C14 LIG X 999      45.157 130.287  14.526  1.00  0.00     0.272 C 
BRANCH  11  19
HETATM   19  O1  LIG X 999      44.550 130.358  24.066  1.00  0.00    -0.353 OA
HETATM   20  C4  LIG X 999      44.326 129.068  24.625  1.00  0.00     0.210 C 
ENDBRANCH  11  19
ENDBRANCH   1   4
TORSDOF 2
