REMARK VINA RESULT:      -7.8      3.816      6.330
REMARK  3 active torsions:
REMARK  status: ('A' for Active; 'I' for Inactive)
REMARK    1  A    between atoms: C6_6  and  C7_7 
REMARK    2  A    between atoms: C7_7  and  N1_8 
REMARK    3  A    between atoms: C8_12  and  N4_13 
ROOT
HETATM    1  N1  LIG X 999      43.354 130.987  18.810  1.00  0.00    -0.065 NA
HETATM    2  N2  LIG X 999      42.699 131.979  19.134  1.00  0.00    -0.164 NA
HETATM    3  N3  LIG X 999      42.045 132.968  19.457  1.00  0.00     0.068 N 
ENDROOT
BRANCH   1   4
HETATM    4  C7  LIG X 999      44.803 131.062  18.695  1.00  0.00     0.267 A 
HETATM    5  O1  LIG X 999      45.425 130.070  19.481  1.00  0.00    -0.314 OA
HETATM    6  C8  LIG X 999      45.589 131.406  19.904  1.00  0.00     0.349 A 
BRANCH   4   7
HETATM    7  C6  LIG X 999      45.413 131.169  17.328  1.00  0.00     0.007 A 
HETATM    8  C5  LIG X 999      46.127 130.087  16.795  1.00  0.00     0.024 A 
HETATM    9  C4  LIG X 999      46.724 130.187  15.529  1.00  0.00    -0.025 A 
HETATM   10  C3  LIG X 999      47.436 129.107  14.985  1.00  0.00     0.012 A 
HETATM   11  C11 LIG X 999      46.611 131.393  14.794  1.00  0.00    -0.026 A 
HETATM   12  C2  LIG X 999      48.027 129.219  13.723  1.00  0.00     0.001 A 
HETATM   13  C1  LIG X 999      47.913 130.408  12.997  1.00  0.00     0.001 A 
HETATM   14  C12 LIG X 999      47.208 131.493  13.527  1.00  0.00     0.012 A 
HETATM   15  C10 LIG X 999      45.905 132.475  15.339  1.00  0.00     0.013 A 
HETATM   16  C9  LIG X 999      45.314 132.364  16.601  1.00  0.00     0.013 A 
ENDBRANCH   4   7
BRANCH   6  17
HETATM   17  N4  LIG X 999      44.806 131.668  21.103  1.00  0.00    -0.077 NA
HETATM   18  N5  LIG X 999      44.599 130.772  21.922  1.00  0.00    -0.165 NA
HETATM   19  N6  LIG X 999      44.392 129.877  22.739  1.00  0.00     0.068 N 
ENDBRANCH   6  17
ENDBRANCH   1   4
TORSDOF 3
