REMARK VINA RESULT:      -7.1      5.161      7.560
REMARK  6 active torsions:
REMARK  status: ('A' for Active; 'I' for Inactive)
REMARK    1  A    between atoms: O1_2  and  C1_3 
REMARK    2  A    between atoms: C1_3  and  C4_6 
REMARK    3  A    between atoms: C4_6  and  O2_7 
REMARK    4  A    between atoms: C4_6  and  O3_9 
REMARK    5  A    between atoms: O3_9  and  C5_10 
REMARK    6  A    between atoms: C10_15  and  N1_16 
ROOT
HETATM    1  N1  LIG X 999      45.162 131.333  15.509  1.00  0.00    -0.073 NA
HETATM    2  N2  LIG X 999      46.141 130.625  15.271  1.00  0.00    -0.162 NA
HETATM    3  N3  LIG X 999      47.118 129.917  15.031  1.00  0.00     0.068 N 
ENDROOT
BRANCH   1   4
HETATM    4  C10 LIG X 999      44.602 131.452  16.824  1.00  0.00     0.094 A 
HETATM    5  C9  LIG X 999      45.387 131.290  17.981  1.00  0.00     0.046 A 
HETATM    6  C8  LIG X 999      44.807 131.413  19.253  1.00  0.00    -0.024 A 
HETATM    7  C7  LIG X 999      45.582 131.254  20.410  1.00  0.00     0.015 A 
HETATM    8  C13 LIG X 999      43.427 131.700  19.372  1.00  0.00    -0.023 A 
HETATM    9  C6  LIG X 999      44.995 131.377  21.672  1.00  0.00     0.038 A 
HETATM   10  C5  LIG X 999      43.630 131.656  21.803  1.00  0.00     0.073 A 
HETATM   11  C14 LIG X 999      42.847 131.822  20.644  1.00  0.00     0.049 A 
HETATM   12  C12 LIG X 999      42.652 131.860  18.214  1.00  0.00     0.014 A 
HETATM   13  C11 LIG X 999      43.238 131.736  16.951  1.00  0.00     0.035 A 
BRANCH  10  14
HETATM   14  O3  LIG X 999      43.099 131.761  23.100  1.00  0.00    -0.314 OA
BRANCH  14  15
HETATM   15  C4  LIG X 999      43.313 130.831  24.164  1.00  0.00     0.321 C 
BRANCH  15  16
HETATM   16  C1  LIG X 999      43.037 129.423  23.700  1.00  0.00     0.094 C 
HETATM   17  C2  LIG X 999      44.016 128.501  23.722  1.00  0.00     0.006 C 
HETATM   18  C3  LIG X 999      43.817 127.086  23.276  1.00  0.00     0.038 C 
BRANCH  16  19
HETATM   19  O1  LIG X 999      41.744 129.116  23.269  1.00  0.00    -0.360 OA
HETATM   20  H1  LIG X 999      41.476 128.208  22.910  1.00  0.00     0.217 HD
ENDBRANCH  16  19
ENDBRANCH  15  16
BRANCH  15  21
HETATM   21  O2  LIG X 999      44.647 130.934  24.587  1.00  0.00    -0.365 OA
HETATM   22  H7  LIG X 999      44.716 130.433  25.442  1.00  0.00     0.213 HD
ENDBRANCH  15  21
ENDBRANCH  14  15
ENDBRANCH  10  14
ENDBRANCH   1   4
TORSDOF 6
