REMARK VINA RESULT:      -8.0      0.000      0.000
REMARK  1 active torsions:
REMARK  status: ('A' for Active; 'I' for Inactive)
REMARK    1  A    between atoms: C11_13  and  N2_14 
ROOT
HETATM    1  N2  LIG X 999      47.540 129.512  14.369  1.00  0.00    -0.053 NA
HETATM    2  N3  LIG X 999      47.775 130.223  13.392  1.00  0.00    -0.160 NA
HETATM    3  N4  LIG X 999      48.010 130.932  12.415  1.00  0.00     0.068 N 
ENDROOT
BRANCH   1   4
HETATM    4  C11 LIG X 999      46.710 129.973  15.436  1.00  0.00     0.175 A 
HETATM    5  C10 LIG X 999      45.497 130.628  15.278  1.00  0.00     0.026 A 
HETATM    6  C5  LIG X 999      45.066 130.877  16.537  1.00  0.00     0.017 A 
HETATM    7  C9  LIG X 999      44.736 131.025  14.178  1.00  0.00     0.016 A 
HETATM    8  C4  LIG X 999      45.970 130.400  17.424  1.00  0.00     0.046 A 
HETATM    9  C6  LIG X 999      43.891 131.518  16.850  1.00  0.00     0.005 A 
HETATM   10  C3  LIG X 999      45.745 130.540  18.873  1.00  0.00     0.033 A 
HETATM   11  N5  LIG X 999      47.004 129.831  16.762  1.00  0.00    -0.337 N 
HETATM   12  C2  LIG X 999      44.614 131.157  19.290  1.00  0.00     0.034 A 
HETATM   13  C1  LIG X 999      43.610 131.688  18.301  1.00  0.00     0.059 A 
HETATM   14  N1  LIG X 999      42.529 132.278  18.699  1.00  0.00    -0.300 NA
HETATM   15  H1  LIG X 999      42.314 132.407  19.713  1.00  0.00     0.187 HD
HETATM   16  H7  LIG X 999      47.847 129.381  17.184  1.00  0.00     0.167 HD
HETATM   17  C7  LIG X 999      43.085 131.940  15.772  1.00  0.00     0.015 A 
HETATM   18  C8  LIG X 999      43.512 131.691  14.437  1.00  0.00     0.002 A 
ENDBRANCH   1   4
TORSDOF 1
