REMARK VINA RESULT:      -8.3      1.037      1.484
REMARK  5 active torsions:
REMARK  status: ('A' for Active; 'I' for Inactive)
REMARK    1  A    between atoms: C3_3  and  O1_4 
REMARK    2  A    between atoms: O1_4  and  C4_5 
REMARK    3  A    between atoms: C4_5  and  O2_6 
REMARK    4  A    between atoms: C5_8  and  C6_9 
REMARK    5  A    between atoms: C11_14  and  O3_15 
ROOT
HETATM    1  C1  LIG X 999      44.267 132.383  24.476  1.00  0.00     0.014 C 
HETATM    2  C2  LIG X 999      43.850 131.449  23.838  1.00  0.00    -0.091 C 
HETATM    3  C3  LIG X 999      43.344 130.317  23.061  1.00  0.00     0.270 C 
ENDROOT
BRANCH   3   4
HETATM    4  O1  LIG X 999      43.222 130.705  21.699  1.00  0.00    -0.319 OA
BRANCH   4   5
HETATM    5  C4  LIG X 999      42.581 131.877  21.277  1.00  0.00     0.179 C 
HETATM    6  C5  LIG X 999      42.835 132.391  20.068  1.00  0.00     0.075 C 
BRANCH   5   7
HETATM    7  O2  LIG X 999      41.689 132.554  22.112  1.00  0.00    -0.341 OA
HETATM    8  H4  LIG X 999      41.480 133.538  22.002  1.00  0.00     0.220 HD
ENDBRANCH   5   7
BRANCH   6   9
HETATM    9  C6  LIG X 999      43.752 131.779  19.081  1.00  0.00    -0.031 A 
HETATM   10  C7  LIG X 999      44.934 131.174  19.538  1.00  0.00     0.012 A 
HETATM   11  C8  LIG X 999      45.834 130.599  18.639  1.00  0.00     0.013 A 
HETATM   12  C9  LIG X 999      45.576 130.635  17.261  1.00  0.00    -0.023 A 
HETATM   13  C10 LIG X 999      46.475 130.059  16.350  1.00  0.00     0.049 A 
HETATM   14  C15 LIG X 999      44.403 131.265  16.786  1.00  0.00    -0.025 A 
HETATM   15  C11 LIG X 999      46.222 130.104  14.974  1.00  0.00     0.069 A 
HETATM   16  C13 LIG X 999      45.053 130.735  14.507  1.00  0.00     0.037 A 
HETATM   17  C14 LIG X 999      44.153 131.312  15.407  1.00  0.00     0.015 A 
HETATM   18  C16 LIG X 999      43.505 131.842  17.696  1.00  0.00     0.024 A 
BRANCH  15  19
HETATM   19  O3  LIG X 999      47.153 129.511  14.108  1.00  0.00    -0.356 OA
HETATM   20  C12 LIG X 999      48.003 130.235  13.223  1.00  0.00     0.210 C 
ENDBRANCH  15  19
ENDBRANCH   6   9
ENDBRANCH   4   5
ENDBRANCH   3   4
TORSDOF 5
