REMARK VINA RESULT:      -5.6      2.979      6.591
REMARK  5 active torsions:
REMARK  status: ('A' for Active; 'I' for Inactive)
REMARK    1  A    between atoms: C6_6  and  C7_7 
REMARK    2  A    between atoms: C7_7  and  N1_8 
REMARK    3  A    between atoms: N4_11  and  C8_12 
REMARK    4  A    between atoms: C8_12  and  C9_13 
REMARK    5  A    between atoms: C9_13  and  N5_14 
ROOT
HETATM    1  N1  LIG X 999      46.058 131.583  16.419  1.00  0.00    -0.052 NA
HETATM    2  N2  LIG X 999      46.665 130.561  16.095  1.00  0.00    -0.160 NA
HETATM    3  N3  LIG X 999      47.271 129.541  15.770  1.00  0.00     0.068 N 
ENDROOT
BRANCH   1   4
HETATM    4  C7  LIG X 999      44.794 131.543  17.103  1.00  0.00     0.191 C 
HETATM    5  N4  LIG X 999      43.688 131.693  16.434  1.00  0.00    -0.267 NA
BRANCH   4   6
HETATM    6  C6  LIG X 999      44.714 131.333  18.568  1.00  0.00     0.015 A 
HETATM    7  C5  LIG X 999      43.632 131.842  19.309  1.00  0.00     0.027 A 
HETATM    8  C4  LIG X 999      43.555 131.631  20.693  1.00  0.00    -0.025 A 
HETATM    9  C3  LIG X 999      42.481 132.143  21.438  1.00  0.00     0.012 A 
HETATM   10  C12 LIG X 999      44.570 130.892  21.348  1.00  0.00    -0.026 A 
HETATM   11  C2  LIG X 999      42.415 131.927  22.817  1.00  0.00     0.001 A 
HETATM   12  C1  LIG X 999      43.418 131.199  23.463  1.00  0.00     0.001 A 
HETATM   13  C13 LIG X 999      44.492 130.682  22.734  1.00  0.00     0.012 A 
HETATM   14  C11 LIG X 999      45.639 130.372  20.605  1.00  0.00     0.013 A 
HETATM   15  C10 LIG X 999      45.706 130.588  19.226  1.00  0.00     0.016 A 
ENDBRANCH   4   6
BRANCH   5  16
HETATM   16  C8  LIG X 999      43.591 131.884  14.987  1.00  0.00     0.181 C 
BRANCH  16  17
HETATM   17  C9  LIG X 999      44.268 130.736  14.232  1.00  0.00     0.288 C 
BRANCH  17  18
HETATM   18  N5  LIG X 999      45.466 131.199  13.538  1.00  0.00     0.079 N 
HETATM   19  H9  LIG X 999      45.279 132.168  13.193  1.00  0.00     0.312 HD
HETATM   20  H10 LIG X 999      45.599 130.609  12.685  1.00  0.00     0.312 HD
ENDBRANCH  17  18
ENDBRANCH  16  17
ENDBRANCH   5  16
ENDBRANCH   1   4
TORSDOF 5
