REMARK VINA RESULT:      -5.2      6.993      8.608
REMARK  1 active torsions:
REMARK  status: ('A' for Active; 'I' for Inactive)
REMARK    1  A    between atoms: N1_2  and  C1_3 
ROOT
HETATM    1  C1  LIG X 999      42.195 128.536  23.537  1.00  0.00     0.120 C 
HETATM    2  C2  LIG X 999      42.961 127.378  23.614  1.00  0.00     0.057 C 
HETATM    3  C3  LIG X 999      42.361 126.147  23.912  1.00  0.00    -0.045 C 
HETATM    4  C4  LIG X 999      43.300 125.023  24.279  1.00  0.00     0.049 C 
HETATM    5  C5  LIG X 999      40.934 126.066  23.995  1.00  0.00     0.008 C 
HETATM    6  C6  LIG X 999      40.177 124.849  24.078  1.00  0.00    -0.013 C 
HETATM    7  C7  LIG X 999      40.688 123.586  23.695  1.00  0.00     0.013 C 
HETATM    8  C8  LIG X 999      39.930 122.423  23.849  1.00  0.00     0.001 C 
HETATM    9  C9  LIG X 999      38.630 122.492  24.340  1.00  0.00     0.001 C 
HETATM   10  C10 LIG X 999      38.061 123.730  24.625  1.00  0.00     0.012 C 
HETATM   11  C11 LIG X 999      38.806 124.909  24.460  1.00  0.00    -0.025 C 
HETATM   12  C12 LIG X 999      38.174 126.143  24.620  1.00  0.00     0.014 C 
HETATM   13  C13 LIG X 999      38.858 127.321  24.355  1.00  0.00     0.031 C 
HETATM   14  C14 LIG X 999      40.221 127.301  24.035  1.00  0.00     0.045 C 
HETATM   15  N2  LIG X 999      40.859 128.482  23.784  1.00  0.00    -0.341 N 
HETATM   16  H12 LIG X 999      40.308 129.371  23.781  1.00  0.00     0.167 HD
ENDROOT
BRANCH   1  17
HETATM   17  N1  LIG X 999      42.771 129.667  23.270  1.00  0.00    -0.284 NA
HETATM   18  H1  LIG X 999      43.741 129.887  23.592  1.00  0.00     0.188 HD
ENDBRANCH   1  17
TORSDOF 1
