REMARK VINA RESULT:      -7.2      1.661      2.757
REMARK  1 active torsions:
REMARK  status: ('A' for Active; 'I' for Inactive)
REMARK    1  A    between atoms: C7_7  and  N1_8 
ROOT
HETATM    1  N1  LIG X 999      43.069 131.489  17.345  1.00  0.00    -0.110 NA
HETATM    2  N2  LIG X 999      42.379 131.983  18.239  1.00  0.00    -0.167 NA
HETATM    3  N3  LIG X 999      41.691 132.477  19.129  1.00  0.00     0.068 N 
ENDROOT
BRANCH   1   4
HETATM    4  C7  LIG X 999      44.387 132.029  17.019  1.00  0.00     0.153 C 
HETATM    5  C6  LIG X 999      45.328 131.854  18.222  1.00  0.00     0.031 C 
HETATM    6  C5  LIG X 999      45.629 130.376  18.494  1.00  0.00     0.003 C 
HETATM    7  C4  LIG X 999      46.244 129.708  17.261  1.00  0.00     0.009 C 
HETATM    8  C3  LIG X 999      45.323 129.842  16.031  1.00  0.00     0.018 C 
HETATM    9  C2  LIG X 999      46.015 129.252  14.821  1.00  0.00    -0.021 C 
HETATM   10  C8  LIG X 999      44.938 131.324  15.756  1.00  0.00     0.043 C 
HETATM   11  C1  LIG X 999      46.804 130.010  14.049  1.00  0.00    -0.004 C 
HETATM   12  C10 LIG X 999      46.933 131.458  14.299  1.00  0.00    -0.004 C 
HETATM   13  C9  LIG X 999      46.103 132.078  15.146  1.00  0.00    -0.019 C 
ENDBRANCH   1   4
TORSDOF 1
