MODEL 1
REMARK VINA RESULT:      -8.2      0.000      0.000
REMARK  3 active torsions:
REMARK  status: ('A' for Active; 'I' for Inactive)
REMARK    1  A    between atoms: C1_2  and  C2_4 
REMARK       I    between atoms: N1_6  and  C4_7 
REMARK    2  A    between atoms: C4_7  and  C5_9 
REMARK    3  A    between atoms: C6_10  and  C7_11 
ROOT
HETATM    1  C5  LIG X 999      44.576 130.868  20.785  1.00  0.00     0.000 C 
HETATM    2  C6  LIG X 999      44.720 130.945  19.591  1.00  0.00    -0.057 C 
ENDROOT
BRANCH   1   3
HETATM    3  C4  LIG X 999      44.404 130.767  22.209  1.00  0.00     0.300 C 
HETATM    4  N1  LIG X 999      44.617 129.520  22.887  1.00  0.00    -0.317 N 
HETATM    5  C3  LIG X 999      45.000 128.291  22.255  1.00  0.00     0.172 C 
HETATM    6  C17 LIG X 999      44.486 129.330  24.314  1.00  0.00     0.298 C 
HETATM    7  C2  LIG X 999      44.969 127.294  23.406  1.00  0.00     0.242 C 
HETATM    8  O4  LIG X 999      44.861 128.005  24.624  1.00  0.00    -0.354 OA
HETATM    9  O3  LIG X 999      44.063 131.790  22.860  1.00  0.00    -0.258 OA
BRANCH   7  10
HETATM   10  C1  LIG X 999      46.199 126.437  23.424  1.00  0.00     0.204 C 
HETATM   11  O1  LIG X 999      46.801 126.219  24.507  1.00  0.00    -0.646 OA
HETATM   12  O2  LIG X 999      46.650 125.838  22.254  1.00  0.00    -0.646 OA
ENDBRANCH   7  10
ENDBRANCH   1   3
BRANCH   2  13
HETATM   13  C7  LIG X 999      44.891 131.031  18.164  1.00  0.00     0.019 A 
HETATM   14  C8  LIG X 999      43.962 131.735  17.390  1.00  0.00     0.021 A 
HETATM   15  C9  LIG X 999      44.121 131.822  16.004  1.00  0.00     0.013 A 
HETATM   16  C10 LIG X 999      45.214 131.204  15.379  1.00  0.00    -0.026 A 
HETATM   17  C11 LIG X 999      45.384 131.285  13.989  1.00  0.00     0.012 A 
HETATM   18  C15 LIG X 999      46.157 130.491  16.160  1.00  0.00    -0.025 A 
HETATM   19  C12 LIG X 999      46.478 130.664  13.379  1.00  0.00     0.001 A 
HETATM   20  C13 LIG X 999      47.408 129.960  14.149  1.00  0.00     0.001 A 
HETATM   21  C14 LIG X 999      47.250 129.873  15.535  1.00  0.00     0.012 A 
HETATM   22  C16 LIG X 999      45.987 130.409  17.552  1.00  0.00     0.032 A 
ENDBRANCH   2  13
TORSDOF 3
ENDMDL
MODEL 2
REMARK VINA RESULT:      -8.0      2.214      3.258
REMARK  3 active torsions:
REMARK  status: ('A' for Active; 'I' for Inactive)
REMARK    1  A    between atoms: C1_2  and  C2_4 
REMARK       I    between atoms: N1_6  and  C4_7 
REMARK    2  A    between atoms: C4_7  and  C5_9 
REMARK    3  A    between atoms: C6_10  and  C7_11 
ROOT
HETATM    1  C5  LIG X 999      43.608 131.874  19.012  1.00  0.00     0.000 C 
HETATM    2  C6  LIG X 999      44.329 131.424  18.158  1.00  0.00    -0.057 C 
ENDROOT
BRANCH   1   3
HETATM    3  C4  LIG X 999      42.742 132.404  20.031  1.00  0.00     0.300 C 
HETATM    4  N1  LIG X 999      42.740 131.847  21.354  1.00  0.00    -0.317 N 
HETATM    5  C3  LIG X 999      43.554 130.749  21.790  1.00  0.00     0.172 C 
HETATM    6  C17 LIG X 999      41.920 132.326  22.444  1.00  0.00     0.298 C 
HETATM    7  C2  LIG X 999      43.067 130.511  23.213  1.00  0.00     0.242 C 
HETATM    8  O4  LIG X 999      42.254 131.600  23.607  1.00  0.00    -0.354 OA
HETATM    9  O3  LIG X 999      41.982 133.368  19.750  1.00  0.00    -0.258 OA
BRANCH   7  10
HETATM   10  C1  LIG X 999      44.214 130.361  24.167  1.00  0.00     0.204 C 
HETATM   11  O1  LIG X 999      44.793 131.380  24.625  1.00  0.00    -0.646 OA
HETATM   12  O2  LIG X 999      44.610 129.097  24.591  1.00  0.00    -0.646 OA
ENDBRANCH   7  10
ENDBRANCH   1   3
BRANCH   2  13
HETATM   13  C7  LIG X 999      45.186 130.881  17.137  1.00  0.00     0.019 A 
HETATM   14  C8  LIG X 999      45.581 129.539  17.197  1.00  0.00     0.021 A 
HETATM   15  C9  LIG X 999      46.413 129.005  16.210  1.00  0.00     0.013 A 
HETATM   16  C10 LIG X 999      46.858 129.809  15.150  1.00  0.00    -0.026 A 
HETATM   17  C11 LIG X 999      47.693 129.283  14.153  1.00  0.00     0.012 A 
HETATM   18  C15 LIG X 999      46.459 131.168  15.086  1.00  0.00    -0.025 A 
HETATM   19  C12 LIG X 999      48.130 130.096  13.103  1.00  0.00     0.001 A 
HETATM   20  C13 LIG X 999      47.736 131.436  13.039  1.00  0.00     0.001 A 
HETATM   21  C14 LIG X 999      46.904 131.972  14.026  1.00  0.00     0.012 A 
HETATM   22  C16 LIG X 999      45.623 131.695  16.083  1.00  0.00     0.032 A 
ENDBRANCH   2  13
TORSDOF 3
ENDMDL
MODEL 3
REMARK VINA RESULT:      -7.2      1.710      2.448
REMARK  3 active torsions:
REMARK  status: ('A' for Active; 'I' for Inactive)
REMARK    1  A    between atoms: C1_2  and  C2_4 
REMARK       I    between atoms: N1_6  and  C4_7 
REMARK    2  A    between atoms: C4_7  and  C5_9 
REMARK    3  A    between atoms: C6_10  and  C7_11 
ROOT
HETATM    1  C5  LIG X 999      43.046 132.007  19.355  1.00  0.00     0.000 C 
HETATM    2  C6  LIG X 999      43.596 131.776  18.308  1.00  0.00    -0.057 C 
ENDROOT
BRANCH   1   3
HETATM    3  C4  LIG X 999      42.386 132.275  20.605  1.00  0.00     0.300 C 
HETATM    4  N1  LIG X 999      42.578 131.411  21.735  1.00  0.00    -0.317 N 
HETATM    5  C3  LIG X 999      43.402 130.237  21.747  1.00  0.00     0.172 C 
HETATM    6  C17 LIG X 999      41.973 131.611  23.032  1.00  0.00     0.298 C 
HETATM    7  C2  LIG X 999      43.149 129.659  23.133  1.00  0.00     0.242 C 
HETATM    8  O4  LIG X 999      42.462 130.622  23.911  1.00  0.00    -0.354 OA
HETATM    9  O3  LIG X 999      41.635 133.281  20.699  1.00  0.00    -0.258 OA
BRANCH   7  10
HETATM   10  C1  LIG X 999      44.430 129.276  23.811  1.00  0.00     0.204 C 
HETATM   11  O1  LIG X 999      44.975 130.067  24.624  1.00  0.00    -0.646 OA
HETATM   12  O2  LIG X 999      44.994 128.026  23.584  1.00  0.00    -0.646 OA
ENDBRANCH   7  10
ENDBRANCH   1   3
BRANCH   2  13
HETATM   13  C7  LIG X 999      44.251 131.493  17.057  1.00  0.00     0.019 A 
HETATM   14  C8  LIG X 999      43.655 131.885  15.853  1.00  0.00     0.021 A 
HETATM   15  C9  LIG X 999      44.285 131.614  14.635  1.00  0.00     0.013 A 
HETATM   16  C10 LIG X 999      45.519 130.947  14.611  1.00  0.00    -0.026 A 
HETATM   17  C11 LIG X 999      46.160 130.670  13.394  1.00  0.00     0.012 A 
HETATM   18  C15 LIG X 999      46.125 130.550  15.829  1.00  0.00    -0.025 A 
HETATM   19  C12 LIG X 999      47.389 130.005  13.385  1.00  0.00     0.001 A 
HETATM   20  C13 LIG X 999      47.987 129.613  14.586  1.00  0.00     0.001 A 
HETATM   21  C14 LIG X 999      47.358 129.884  15.805  1.00  0.00     0.012 A 
HETATM   22  C16 LIG X 999      45.483 130.827  17.047  1.00  0.00     0.032 A 
ENDBRANCH   2  13
TORSDOF 3
ENDMDL
MODEL 4
REMARK VINA RESULT:      -6.8      1.917      2.202
REMARK  3 active torsions:
REMARK  status: ('A' for Active; 'I' for Inactive)
REMARK    1  A    between atoms: C1_2  and  C2_4 
REMARK       I    between atoms: N1_6  and  C4_7 
REMARK    2  A    between atoms: C4_7  and  C5_9 
REMARK    3  A    between atoms: C6_10  and  C7_11 
ROOT
HETATM    1  C5  LIG X 999      44.304 131.308  20.824  1.00  0.00     0.000 C 
HETATM    2  C6  LIG X 999      44.477 131.268  19.632  1.00  0.00    -0.057 C 
ENDROOT
BRANCH   1   3
HETATM    3  C4  LIG X 999      44.107 131.360  22.248  1.00  0.00     0.300 C 
HETATM    4  N1  LIG X 999      43.274 130.395  22.908  1.00  0.00    -0.317 N 
HETATM    5  C3  LIG X 999      42.573 129.326  22.258  1.00  0.00     0.172 C 
HETATM    6  C17 LIG X 999      43.035 130.358  24.334  1.00  0.00     0.298 C 
HETATM    7  C2  LIG X 999      41.775 128.704  23.396  1.00  0.00     0.242 C 
HETATM    8  O4  LIG X 999      42.248 129.224  24.625  1.00  0.00    -0.354 OA
HETATM    9  O3  LIG X 999      44.676 132.265  22.913  1.00  0.00    -0.258 OA
BRANCH   7  10
HETATM   10  C1  LIG X 999      41.894 127.209  23.397  1.00  0.00     0.204 C 
HETATM   11  O1  LIG X 999      43.028 126.665  23.363  1.00  0.00    -0.646 OA
HETATM   12  O2  LIG X 999      40.754 126.418  23.488  1.00  0.00    -0.646 OA
ENDBRANCH   7  10
ENDBRANCH   1   3
BRANCH   2  13
HETATM   13  C7  LIG X 999      44.689 131.221  18.209  1.00  0.00     0.019 A 
HETATM   14  C8  LIG X 999      43.750 131.794  17.343  1.00  0.00     0.021 A 
HETATM   15  C9  LIG X 999      43.949 131.752  15.960  1.00  0.00     0.013 A 
HETATM   16  C10 LIG X 999      45.093 131.136  15.430  1.00  0.00    -0.026 A 
HETATM   17  C11 LIG X 999      45.303 131.089  14.044  1.00  0.00     0.012 A 
HETATM   18  C15 LIG X 999      46.046 130.556  16.304  1.00  0.00    -0.025 A 
HETATM   19  C12 LIG X 999      46.447 130.472  13.529  1.00  0.00     0.001 A 
HETATM   20  C13 LIG X 999      47.387 129.900  14.391  1.00  0.00     0.001 A 
HETATM   21  C14 LIG X 999      47.189 129.941  15.774  1.00  0.00     0.012 A 
HETATM   22  C16 LIG X 999      45.836 130.604  17.692  1.00  0.00     0.032 A 
ENDBRANCH   2  13
TORSDOF 3
ENDMDL
MODEL 5
REMARK VINA RESULT:      -5.8      3.042      7.784
REMARK  3 active torsions:
REMARK  status: ('A' for Active; 'I' for Inactive)
REMARK    1  A    between atoms: C1_2  and  C2_4 
REMARK       I    between atoms: N1_6  and  C4_7 
REMARK    2  A    between atoms: C4_7  and  C5_9 
REMARK    3  A    between atoms: C6_10  and  C7_11 
ROOT
HETATM    1  C5  LIG X 999      44.484 128.598  22.871  1.00  0.00     0.000 C 
HETATM    2  C6  LIG X 999      45.139 127.597  23.014  1.00  0.00    -0.057 C 
ENDROOT
BRANCH   1   3
HETATM    3  C4  LIG X 999      43.705 129.794  22.691  1.00  0.00     0.300 C 
HETATM    4  N1  LIG X 999      43.945 130.666  21.576  1.00  0.00    -0.317 N 
HETATM    5  C3  LIG X 999      44.944 130.460  20.566  1.00  0.00     0.172 C 
HETATM    6  C17 LIG X 999      43.201 131.875  21.305  1.00  0.00     0.298 C 
HETATM    7  C2  LIG X 999      44.833 131.720  19.719  1.00  0.00     0.242 C 
HETATM    8  O4  LIG X 999      43.654 132.414  20.082  1.00  0.00    -0.354 OA
HETATM    9  O3  LIG X 999      42.804 130.070  23.526  1.00  0.00    -0.258 OA
BRANCH   7  10
HETATM   10  C1  LIG X 999      44.803 131.397  18.255  1.00  0.00     0.204 C 
HETATM   11  O1  LIG X 999      45.741 130.741  17.733  1.00  0.00    -0.646 OA
HETATM   12  O2  LIG X 999      43.714 131.777  17.479  1.00  0.00    -0.646 OA
ENDBRANCH   7  10
ENDBRANCH   1   3
BRANCH   2  13
HETATM   13  C7  LIG X 999      45.923 126.401  23.179  1.00  0.00     0.019 A 
HETATM   14  C8  LIG X 999      45.943 125.744  24.415  1.00  0.00     0.021 A 
HETATM   15  C9  LIG X 999      46.702 124.582  24.582  1.00  0.00     0.013 A 
HETATM   16  C10 LIG X 999      47.448 124.066  23.512  1.00  0.00    -0.026 A 
HETATM   17  C11 LIG X 999      48.214 122.901  23.669  1.00  0.00     0.012 A 
HETATM   18  C15 LIG X 999      47.430 124.729  22.260  1.00  0.00    -0.025 A 
HETATM   19  C12 LIG X 999      48.954 122.398  22.595  1.00  0.00     0.001 A 
HETATM   20  C13 LIG X 999      48.935 123.051  21.360  1.00  0.00     0.001 A 
HETATM   21  C14 LIG X 999      48.176 124.213  21.190  1.00  0.00     0.012 A 
HETATM   22  C16 LIG X 999      46.664 125.895  22.103  1.00  0.00     0.032 A 
ENDBRANCH   2  13
TORSDOF 3
ENDMDL
MODEL 6
REMARK VINA RESULT:      -5.4      4.696      8.383
REMARK  3 active torsions:
REMARK  status: ('A' for Active; 'I' for Inactive)
REMARK    1  A    between atoms: C1_2  and  C2_4 
REMARK       I    between atoms: N1_6  and  C4_7 
REMARK    2  A    between atoms: C4_7  and  C5_9 
REMARK    3  A    between atoms: C6_10  and  C7_11 
ROOT
HETATM    1  C5  LIG X 999      44.119 131.559  17.022  1.00  0.00     0.000 C 
HETATM    2  C6  LIG X 999      44.160 131.480  18.224  1.00  0.00    -0.057 C 
ENDROOT
BRANCH   1   3
HETATM    3  C4  LIG X 999      44.075 131.662  15.588  1.00  0.00     0.300 C 
HETATM    4  N1  LIG X 999      45.227 131.341  14.794  1.00  0.00    -0.317 N 
HETATM    5  C3  LIG X 999      46.493 130.909  15.311  1.00  0.00     0.172 C 
HETATM    6  C17 LIG X 999      45.268 131.396  13.350  1.00  0.00     0.298 C 
HETATM    7  C2  LIG X 999      47.359 130.827  14.061  1.00  0.00     0.242 C 
HETATM    8  O4  LIG X 999      46.527 130.925  12.921  1.00  0.00    -0.354 OA
HETATM    9  O3  LIG X 999      43.009 132.038  15.032  1.00  0.00    -0.258 OA
BRANCH   7  10
HETATM   10  C1  LIG X 999      48.136 129.545  14.015  1.00  0.00     0.204 C 
HETATM   11  O1  LIG X 999      47.589 128.462  14.347  1.00  0.00    -0.646 OA
HETATM   12  O2  LIG X 999      49.449 129.541  13.556  1.00  0.00    -0.646 OA
ENDBRANCH   7  10
ENDBRANCH   1   3
BRANCH   2  13
HETATM   13  C7  LIG X 999      44.212 131.392  19.660  1.00  0.00     0.019 A 
HETATM   14  C8  LIG X 999      45.361 130.897  20.288  1.00  0.00     0.021 A 
HETATM   15  C9  LIG X 999      45.418 130.808  21.682  1.00  0.00     0.013 A 
HETATM   16  C10 LIG X 999      44.325 131.214  22.461  1.00  0.00    -0.026 A 
HETATM   17  C11 LIG X 999      44.372 131.130  23.860  1.00  0.00     0.012 A 
HETATM   18  C15 LIG X 999      43.161 131.716  21.827  1.00  0.00    -0.025 A 
HETATM   19  C12 LIG X 999      43.275 131.538  24.625  1.00  0.00     0.001 A 
HETATM   20  C13 LIG X 999      42.126 132.033  24.000  1.00  0.00     0.001 A 
HETATM   21  C14 LIG X 999      42.067 132.123  22.606  1.00  0.00     0.012 A 
HETATM   22  C16 LIG X 999      43.113 131.801  20.427  1.00  0.00     0.032 A 
ENDBRANCH   2  13
TORSDOF 3
ENDMDL
MODEL 7
REMARK VINA RESULT:      -5.3      1.858      3.673
REMARK  3 active torsions:
REMARK  status: ('A' for Active; 'I' for Inactive)
REMARK    1  A    between atoms: C1_2  and  C2_4 
REMARK       I    between atoms: N1_6  and  C4_7 
REMARK    2  A    between atoms: C4_7  and  C5_9 
REMARK    3  A    between atoms: C6_10  and  C7_11 
ROOT
HETATM    1  C5  LIG X 999      45.506 129.761  19.953  1.00  0.00     0.000 C 
HETATM    2  C6  LIG X 999      45.723 130.101  18.818  1.00  0.00    -0.057 C 
ENDROOT
BRANCH   1   3
HETATM    3  C4  LIG X 999      45.255 129.357  21.311  1.00  0.00     0.300 C 
HETATM    4  N1  LIG X 999      44.472 130.179  22.189  1.00  0.00    -0.317 N 
HETATM    5  C3  LIG X 999      43.883 131.438  21.835  1.00  0.00     0.172 C 
HETATM    6  C17 LIG X 999      44.154 129.845  23.558  1.00  0.00     0.298 C 
HETATM    7  C2  LIG X 999      43.281 131.912  23.151  1.00  0.00     0.242 C 
HETATM    8  O4  LIG X 999      43.295 130.839  24.073  1.00  0.00    -0.354 OA
HETATM    9  O3  LIG X 999      45.733 128.267  21.724  1.00  0.00    -0.258 OA
BRANCH   7  10
HETATM   10  C1  LIG X 999      41.877 132.406  22.966  1.00  0.00     0.204 C 
HETATM   11  O1  LIG X 999      41.061 132.363  23.922  1.00  0.00    -0.646 OA
HETATM   12  O2  LIG X 999      41.485 132.959  21.752  1.00  0.00    -0.646 OA
ENDBRANCH   7  10
ENDBRANCH   1   3
BRANCH   2  13
HETATM   13  C7  LIG X 999      45.990 130.507  17.463  1.00  0.00     0.019 A 
HETATM   14  C8  LIG X 999      45.478 131.719  16.984  1.00  0.00     0.021 A 
HETATM   15  C9  LIG X 999      45.732 132.120  15.669  1.00  0.00     0.013 A 
HETATM   16  C10 LIG X 999      46.502 131.311  14.821  1.00  0.00    -0.026 A 
HETATM   17  C11 LIG X 999      46.764 131.704  13.499  1.00  0.00     0.012 A 
HETATM   18  C15 LIG X 999      47.022 130.084  15.303  1.00  0.00    -0.025 A 
HETATM   19  C12 LIG X 999      47.533 130.888  12.664  1.00  0.00     0.001 A 
HETATM   20  C13 LIG X 999      48.046 129.678  13.140  1.00  0.00     0.001 A 
HETATM   21  C14 LIG X 999      47.792 129.275  14.455  1.00  0.00     0.012 A 
HETATM   22  C16 LIG X 999      46.761 129.691  16.625  1.00  0.00     0.032 A 
ENDBRANCH   2  13
TORSDOF 3
ENDMDL
