REMARK VINA RESULT:      -5.7      2.391      4.016
REMARK  6 active torsions:
REMARK  status: ('A' for Active; 'I' for Inactive)
REMARK    1  A    between atoms: S1_2  and  C1_3 
REMARK    2  A    between atoms: C1_3  and  N2_14 
REMARK    3  A    between atoms: N1_4  and  C2_5 
REMARK    4  A    between atoms: C3_6  and  C4_7 
REMARK    5  A    between atoms: C4_7  and  O2_9 
REMARK    6  A    between atoms: N2_14  and  C8_16 
ROOT
HETATM    1  C1  LIG X 999      45.256 130.843  20.891  1.00  0.00     0.164 C 
HETATM    2  N1  LIG X 999      44.926 130.362  22.055  1.00  0.00    -0.224 NA
ENDROOT
BRANCH   1   3
HETATM    3  S1  LIG X 999      45.257 132.614  20.663  1.00  0.00    -0.105 SA
HETATM    4  H1  LIG X 999      46.591 132.606  20.217  1.00  0.00     0.110 HD
ENDBRANCH   1   3
BRANCH   1   5
HETATM    5  N2  LIG X 999      45.641 130.002  19.792  1.00  0.00    -0.336 N 
HETATM    6  H7  LIG X 999      45.897 129.013  20.010  1.00  0.00     0.168 HD
BRANCH   5   7
HETATM    7  C8  LIG X 999      45.549 130.396  18.411  1.00  0.00     0.034 A 
HETATM    8  C9  LIG X 999      44.593 131.334  17.979  1.00  0.00     0.030 A 
HETATM    9  C10 LIG X 999      44.535 131.723  16.638  1.00  0.00     0.014 A 
HETATM   10  C11 LIG X 999      45.421 131.170  15.705  1.00  0.00    -0.026 A 
HETATM   11  C12 LIG X 999      45.375 131.556  14.356  1.00  0.00     0.012 A 
HETATM   12  C16 LIG X 999      46.373 130.210  16.126  1.00  0.00    -0.024 A 
HETATM   13  C13 LIG X 999      46.263 130.996  13.435  1.00  0.00     0.001 A 
HETATM   14  C14 LIG X 999      47.203 130.049  13.851  1.00  0.00     0.001 A 
HETATM   15  C15 LIG X 999      47.261 129.655  15.191  1.00  0.00     0.012 A 
HETATM   16  C17 LIG X 999      46.424 129.826  17.474  1.00  0.00     0.041 A 
ENDBRANCH   5   7
ENDBRANCH   1   5
BRANCH   2  17
HETATM   17  C2  LIG X 999      44.751 128.975  22.384  1.00  0.00     0.083 A 
HETATM   18  C3  LIG X 999      43.714 128.518  23.195  1.00  0.00     0.108 A 
HETATM   19  S2  LIG X 999      43.831 126.843  23.295  1.00  0.00    -0.093 SA
HETATM   20  C6  LIG X 999      45.174 126.679  22.297  1.00  0.00     0.053 A 
HETATM   21  C7  LIG X 999      45.554 127.942  21.868  1.00  0.00     0.040 A 
BRANCH  18  22
HETATM   22  C4  LIG X 999      42.710 129.336  23.893  1.00  0.00     0.302 C 
HETATM   23  O1  LIG X 999      41.493 129.014  23.832  1.00  0.00    -0.259 OA
BRANCH  22  24
HETATM   24  O2  LIG X 999      43.108 130.458  24.625  1.00  0.00    -0.322 OA
HETATM   25  C5  LIG X 999      42.689 131.777  24.298  1.00  0.00     0.213 C 
ENDBRANCH  22  24
ENDBRANCH  18  22
ENDBRANCH   2  17
TORSDOF 6
