REMARK VINA RESULT:      -6.9      1.680      2.810
REMARK  6 active torsions:
REMARK  status: ('A' for Active; 'I' for Inactive)
REMARK    1  A    between atoms: N1_1  and  C1_2 
REMARK    2  A    between atoms: C1_2  and  C2_3 
REMARK    3  A    between atoms: C2_3  and  O1_4 
REMARK    4  A    between atoms: C2_3  and  C3_5 
REMARK    5  A    between atoms: C3_5  and  O2_6 
REMARK    6  A    between atoms: O2_6  and  C4_7 
ROOT
HETATM    1  C4  LIG X 999      44.507 131.452  18.571  1.00  0.00     0.080 A 
HETATM    2  C5  LIG X 999      45.666 130.699  18.844  1.00  0.00     0.037 A 
HETATM    3  C6  LIG X 999      45.966 130.303  20.148  1.00  0.00     0.004 A 
HETATM    4  C7  LIG X 999      45.120 130.647  21.202  1.00  0.00     0.012 A 
HETATM    5  C8  LIG X 999      43.960 131.395  20.958  1.00  0.00    -0.023 A 
HETATM    6  C9  LIG X 999      43.107 131.744  22.018  1.00  0.00     0.012 A 
HETATM    7  C10 LIG X 999      41.952 132.489  21.772  1.00  0.00     0.001 A 
HETATM    8  C11 LIG X 999      41.639 132.893  20.473  1.00  0.00     0.001 A 
HETATM    9  C12 LIG X 999      42.478 132.554  19.409  1.00  0.00     0.015 A 
HETATM   10  C13 LIG X 999      43.648 131.803  19.636  1.00  0.00     0.007 A 
ENDROOT
BRANCH   1  11
HETATM   11  O2  LIG X 999      44.184 131.863  17.267  1.00  0.00    -0.348 OA
BRANCH  11  12
HETATM   12  C3  LIG X 999      44.442 131.103  16.089  1.00  0.00     0.209 C 
BRANCH  12  13
HETATM   13  C2  LIG X 999      45.930 131.195  15.737  1.00  0.00     0.170 C 
BRANCH  13  14
HETATM   14  C1  LIG X 999      46.397 129.954  14.956  1.00  0.00     0.300 C 
BRANCH  14  15
HETATM   15  N1  LIG X 999      45.641 128.771  15.356  1.00  0.00     0.080 N 
HETATM   16  H1  LIG X 999      45.627 128.740  16.401  1.00  0.00     0.312 HD
HETATM   17  H2  LIG X 999      44.648 128.897  15.049  1.00  0.00     0.312 HD
ENDBRANCH  14  15
ENDBRANCH  13  14
BRANCH  13  18
HETATM   18  O1  LIG X 999      46.144 132.344  14.960  1.00  0.00    -0.392 OA
HETATM   19  H6  LIG X 999      45.309 132.504  14.446  1.00  0.00     0.210 HD
ENDBRANCH  13  18
ENDBRANCH  12  13
ENDBRANCH  11  12
ENDBRANCH   1  11
TORSDOF 6
