REMARK VINA RESULT:      -6.6      2.212      3.927
REMARK  1 active torsions:
REMARK  status: ('A' for Active; 'I' for Inactive)
REMARK    1  A    between atoms: N1_1  and  C1_2 
ROOT
HETATM    1  C1  LIG X 999      47.499 130.807  13.318  1.00  0.00     0.026 A 
HETATM    2  C2  LIG X 999      47.767 129.531  13.833  1.00  0.00     0.030 A 
HETATM    3  C3  LIG X 999      47.294 129.162  15.094  1.00  0.00     0.014 A 
HETATM    4  C4  LIG X 999      46.542 130.066  15.858  1.00  0.00    -0.026 A 
HETATM    5  C5  LIG X 999      46.060 129.707  17.125  1.00  0.00     0.012 A 
HETATM    6  C6  LIG X 999      45.312 130.618  17.876  1.00  0.00     0.001 A 
HETATM    7  C7  LIG X 999      45.040 131.891  17.370  1.00  0.00     0.001 A 
HETATM    8  C8  LIG X 999      45.515 132.263  16.107  1.00  0.00     0.012 A 
HETATM    9  C9  LIG X 999      46.266 131.357  15.343  1.00  0.00    -0.024 A 
HETATM   10  C10 LIG X 999      46.748 131.718  14.076  1.00  0.00     0.041 A 
ENDROOT
BRANCH   1  11
HETATM   11  N1  LIG X 999      47.988 131.178  12.027  1.00  0.00    -0.399 N 
HETATM   12  H1  LIG X 999      48.175 132.179  11.794  1.00  0.00     0.156 HD
HETATM   13  H2  LIG X 999      48.169 130.456  11.295  1.00  0.00     0.156 HD
ENDBRANCH   1  11
TORSDOF 1
