REMARK VINA RESULT:      -6.1      1.267      2.157
REMARK  3 active torsions:
REMARK  status: ('A' for Active; 'I' for Inactive)
REMARK    1  A    between atoms: C6_6  and  C7_7 
REMARK    2  A    between atoms: C7_7  and  N1_8 
REMARK    3  A    between atoms: C8_12  and  N4_13 
ROOT
HETATM    1  N1  LIG X 999      45.215 131.953  16.385  1.00  0.00    -0.065 NA
HETATM    2  N2  LIG X 999      46.035 132.229  15.509  1.00  0.00    -0.164 NA
HETATM    3  N3  LIG X 999      46.853 132.504  14.633  1.00  0.00     0.068 N 
ENDROOT
BRANCH   1   4
HETATM    4  C7  LIG X 999      45.412 130.796  17.246  1.00  0.00     0.267 A 
HETATM    5  O1  LIG X 999      46.698 130.245  17.067  1.00  0.00    -0.314 OA
HETATM    6  C8  LIG X 999      45.609 129.471  16.611  1.00  0.00     0.349 A 
BRANCH   4   7
HETATM    7  C6  LIG X 999      45.038 130.904  18.696  1.00  0.00     0.007 A 
HETATM    8  C5  LIG X 999      43.852 131.552  19.066  1.00  0.00     0.024 A 
HETATM    9  C4  LIG X 999      43.508 131.682  20.420  1.00  0.00    -0.025 A 
HETATM   10  C3  LIG X 999      42.319 132.323  20.799  1.00  0.00     0.012 A 
HETATM   11  C11 LIG X 999      44.373 131.164  21.416  1.00  0.00    -0.026 A 
HETATM   12  C2  LIG X 999      41.988 132.447  22.151  1.00  0.00     0.001 A 
HETATM   13  C1  LIG X 999      42.840 131.934  23.133  1.00  0.00     0.001 A 
HETATM   14  C12 LIG X 999      44.029 131.294  22.771  1.00  0.00     0.012 A 
HETATM   15  C10 LIG X 999      45.564 130.527  21.038  1.00  0.00     0.013 A 
HETATM   16  C9  LIG X 999      45.896 130.403  19.687  1.00  0.00     0.013 A 
ENDBRANCH   4   7
BRANCH   6  17
HETATM   17  N4  LIG X 999      45.555 129.461  15.157  1.00  0.00    -0.077 NA
HETATM   18  N5  LIG X 999      46.586 129.350  14.495  1.00  0.00    -0.165 NA
HETATM   19  N6  LIG X 999      47.616 129.238  13.832  1.00  0.00     0.068 N 
ENDBRANCH   6  17
ENDBRANCH   1   4
TORSDOF 3
