REMARK VINA RESULT:      -5.8      6.946      8.202
REMARK  3 active torsions:
REMARK  status: ('A' for Active; 'I' for Inactive)
REMARK    1  A    between atoms: C7_9  and  C8_10 
REMARK    2  A    between atoms: C9_14  and  N4_15 
REMARK    3  A    between atoms: N7_24  and  C14_25 
ROOT
HETATM    1  N4  LIG X 999      49.124 123.097  19.814  1.00  0.00    -0.025 NA
HETATM    2  N5  LIG X 999      50.063 123.491  19.122  1.00  0.00    -0.158 NA
HETATM    3  N6  LIG X 999      51.001 123.885  18.433  1.00  0.00     0.068 N 
ENDROOT
BRANCH   1   4
HETATM    4  C9  LIG X 999      48.541 123.946  20.801  1.00  0.00     0.302 A 
HETATM    5  N3  LIG X 999      49.247 124.712  21.644  1.00  0.00    -0.236 N 
HETATM    6  N2  LIG X 999      48.379 125.354  22.406  1.00  0.00    -0.145 NA
HETATM    7  H4  LIG X 999      50.286 124.806  21.703  1.00  0.00     0.193 HD
HETATM    8  C8  LIG X 999      47.159 124.939  21.998  1.00  0.00     0.203 A 
HETATM    9  O1  LIG X 999      47.254 124.081  21.005  1.00  0.00    -0.253 OA
BRANCH   8  10
HETATM   10  C7  LIG X 999      45.889 125.439  22.561  1.00  0.00     0.032 A 
HETATM   11  C6  LIG X 999      44.805 124.579  22.922  1.00  0.00     0.020 A 
HETATM   12  C1  LIG X 999      44.780 123.081  23.007  1.00  0.00     0.060 A 
HETATM   13  C5  LIG X 999      43.634 125.200  23.317  1.00  0.00     0.019 A 
HETATM   14  N1  LIG X 999      45.853 122.379  22.837  1.00  0.00    -0.299 NA
HETATM   15  C2  LIG X 999      43.499 122.402  23.403  1.00  0.00     0.034 A 
HETATM   16  H1  LIG X 999      45.856 121.338  22.929  1.00  0.00     0.187 HD
HETATM   17  C3  LIG X 999      42.405 123.112  23.745  1.00  0.00     0.033 A 
HETATM   18  C4  LIG X 999      42.488 124.582  23.709  1.00  0.00     0.048 A 
HETATM   19  N7  LIG X 999      41.568 125.512  24.066  1.00  0.00    -0.324 N 
HETATM   20  C13 LIG X 999      42.179 126.719  23.906  1.00  0.00     0.193 A 
HETATM   21  C12 LIG X 999      43.469 126.542  23.432  1.00  0.00     0.032 A 
HETATM   22  O2  LIG X 999      41.588 127.942  24.200  1.00  0.00    -0.171 OA
HETATM   23  C11 LIG X 999      44.508 127.415  23.138  1.00  0.00     0.018 A 
HETATM   24  C10 LIG X 999      45.726 126.852  22.695  1.00  0.00     0.018 A 
BRANCH  19  25
HETATM   25  C14 LIG X 999      40.236 125.273  24.619  1.00  0.00     0.127 C 
HETATM   26  C15 LIG X 999      39.365 124.542  23.604  1.00  0.00     0.027 C 
ENDBRANCH  19  25
ENDBRANCH   8  10
ENDBRANCH   1   4
TORSDOF 3
