REMARK VINA RESULT:      -6.2      5.593      6.995
REMARK  3 active torsions:
REMARK  status: ('A' for Active; 'I' for Inactive)
REMARK    1  A    between atoms: C6_6  and  C7_7 
REMARK    2  A    between atoms: C7_7  and  C8_9 
REMARK    3  A    between atoms: C8_9  and  N1_10 
ROOT
HETATM    1  N1  LIG X 999      42.375 129.374  23.276  1.00  0.00    -0.108 NA
HETATM    2  N2  LIG X 999      41.681 128.444  23.685  1.00  0.00    -0.167 NA
HETATM    3  N3  LIG X 999      40.987 127.514  24.095  1.00  0.00     0.068 N 
ENDROOT
BRANCH   1   4
HETATM    4  C8  LIG X 999      42.862 130.407  24.183  1.00  0.00     0.272 C 
BRANCH   4   5
HETATM    5  C7  LIG X 999      43.698 131.422  23.445  1.00  0.00     0.181 C 
HETATM    6  O1  LIG X 999      44.453 132.190  24.104  1.00  0.00    -0.290 OA
BRANCH   5   7
HETATM    7  C6  LIG X 999      43.674 131.520  21.960  1.00  0.00     0.012 A 
HETATM    8  C5  LIG X 999      44.733 131.021  21.173  1.00  0.00     0.027 A 
HETATM    9  C4  LIG X 999      44.695 131.122  19.774  1.00  0.00    -0.025 A 
HETATM   10  C3  LIG X 999      45.750 130.625  18.992  1.00  0.00     0.012 A 
HETATM   11  C11 LIG X 999      43.585 131.731  19.143  1.00  0.00    -0.026 A 
HETATM   12  C2  LIG X 999      45.702 130.731  17.599  1.00  0.00     0.001 A 
HETATM   13  C1  LIG X 999      44.604 131.332  16.977  1.00  0.00     0.001 A 
HETATM   14  C12 LIG X 999      43.548 131.831  17.744  1.00  0.00     0.012 A 
HETATM   15  C10 LIG X 999      42.534 132.229  19.923  1.00  0.00     0.013 A 
HETATM   16  C9  LIG X 999      42.579 132.125  21.315  1.00  0.00     0.016 A 
ENDBRANCH   5   7
ENDBRANCH   4   5
ENDBRANCH   1   4
TORSDOF 3
