REMARK VINA RESULT:      -8.7      1.663      2.449
REMARK  3 active torsions:
REMARK  status: ('A' for Active; 'I' for Inactive)
REMARK    1  A    between atoms: C3_3  and  S1_4 
REMARK    2  A    between atoms: S1_4  and  C4_7 
REMARK    3  A    between atoms: C12_15  and  N1_16 
ROOT
HETATM    1  C1  LIG X 999      47.743 131.000  12.953  1.00  0.00     0.013 C 
HETATM    2  C2  LIG X 999      47.154 131.339  13.948  1.00  0.00    -0.102 C 
HETATM    3  C3  LIG X 999      46.436 131.750  15.158  1.00  0.00     0.233 C 
ENDROOT
BRANCH   3   4
HETATM    4  S1  LIG X 999      44.962 130.765  15.384  1.00  0.00     0.159 S 
HETATM    5  O1  LIG X 999      45.189 129.377  14.855  1.00  0.00    -0.227 OA
HETATM    6  O2  LIG X 999      43.845 131.405  14.608  1.00  0.00    -0.227 OA
BRANCH   4   7
HETATM    7  C4  LIG X 999      44.492 130.690  17.118  1.00  0.00     0.116 C 
HETATM    8  C5  LIG X 999      43.490 131.801  17.465  1.00  0.00     0.059 C 
HETATM    9  C6  LIG X 999      43.221 131.896  18.948  1.00  0.00    -0.049 A 
HETATM   10  C7  LIG X 999      42.069 132.574  19.378  1.00  0.00     0.007 A 
HETATM   11  C11 LIG X 999      44.133 131.389  19.906  1.00  0.00    -0.019 A 
HETATM   12  C8  LIG X 999      41.792 132.707  20.739  1.00  0.00     0.001 A 
HETATM   13  C9  LIG X 999      42.662 132.168  21.686  1.00  0.00     0.001 A 
HETATM   14  C10 LIG X 999      43.820 131.506  21.275  1.00  0.00     0.010 A 
HETATM   15  C12 LIG X 999      45.369 130.608  19.490  1.00  0.00     0.252 C 
HETATM   16  C13 LIG X 999      45.734 130.821  18.007  1.00  0.00     0.060 C 
BRANCH  15  17
HETATM   17  N1  LIG X 999      46.508 130.954  20.347  1.00  0.00     0.087 N 
HETATM   18  H12 LIG X 999      47.218 131.467  19.775  1.00  0.00     0.313 HD
HETATM   19  H13 LIG X 999      46.187 131.597  21.107  1.00  0.00     0.313 HD
ENDBRANCH  15  17
ENDBRANCH   4   7
ENDBRANCH   3   4
TORSDOF 3
