REMARK VINA RESULT:      -7.5      2.741      6.565
REMARK  5 active torsions:
REMARK  status: ('A' for Active; 'I' for Inactive)
REMARK    1  A    between atoms: C6_6  and  C7_7 
REMARK    2  A    between atoms: C7_7  and  N3_15 
REMARK    3  A    between atoms: N1_8  and  C8_9 
REMARK    4  A    between atoms: C8_9  and  C9_10 
REMARK    5  A    between atoms: C9_10  and  N2_11 
ROOT
HETATM    1  N3  LIG X 999      44.854 132.340  19.170  1.00  0.00    -0.052 NA
HETATM    2  N4  LIG X 999      45.311 131.658  20.088  1.00  0.00    -0.160 NA
HETATM    3  N5  LIG X 999      45.766 130.979  21.007  1.00  0.00     0.068 N 
ENDROOT
BRANCH   1   4
HETATM    4  C7  LIG X 999      44.329 131.755  17.966  1.00  0.00     0.191 C 
HETATM    5  N1  LIG X 999      43.052 131.811  17.722  1.00  0.00    -0.267 NA
BRANCH   4   6
HETATM    6  C6  LIG X 999      45.209 131.080  16.984  1.00  0.00     0.015 A 
HETATM    7  C5  LIG X 999      45.679 131.782  15.861  1.00  0.00     0.027 A 
HETATM    8  C4  LIG X 999      46.523 131.156  14.931  1.00  0.00    -0.025 A 
HETATM    9  C3  LIG X 999      46.984 131.852  13.802  1.00  0.00     0.012 A 
HETATM   10  C12 LIG X 999      46.914 129.811  15.132  1.00  0.00    -0.026 A 
HETATM   11  C2  LIG X 999      47.825 131.219  12.882  1.00  0.00     0.001 A 
HETATM   12  C1  LIG X 999      48.211 129.890  13.081  1.00  0.00     0.001 A 
HETATM   13  C13 LIG X 999      47.759 129.187  14.201  1.00  0.00     0.012 A 
HETATM   14  C11 LIG X 999      46.457 129.118  16.261  1.00  0.00     0.013 A 
HETATM   15  C10 LIG X 999      45.616 129.748  17.181  1.00  0.00     0.016 A 
ENDBRANCH   4   6
BRANCH   5  16
HETATM   16  C8  LIG X 999      42.053 132.416  18.602  1.00  0.00     0.178 C 
BRANCH  16  17
HETATM   17  C9  LIG X 999      41.853 131.581  19.875  1.00  0.00     0.251 C 
BRANCH  17  18
HETATM   18  N2  LIG X 999      42.388 132.261  21.055  1.00  0.00    -0.078 N 
HETATM   19  H9  LIG X 999      42.205 131.673  21.899  1.00  0.00     0.274 HD
HETATM   20  H10 LIG X 999      41.918 133.186  21.184  1.00  0.00     0.274 HD
HETATM   21  H11 LIG X 999      43.420 132.399  20.956  1.00  0.00     0.274 HD
ENDBRANCH  17  18
ENDBRANCH  16  17
ENDBRANCH   5  16
ENDBRANCH   1   4
TORSDOF 5
