REMARK VINA RESULT:      -2.7      6.345      7.796
REMARK  4 active torsions:
REMARK  status: ('A' for Active; 'I' for Inactive)
REMARK    1  A    between atoms: C3_3  and  C4_4 
REMARK    2  A    between atoms: C5_7  and  N3_8 
REMARK    3  A    between atoms: C8_14  and  C9_15 
REMARK    4  A    between atoms: C10_16  and  C11_17 
ROOT
HETATM    1  N3  LIG X 999      42.403 128.883  24.364  1.00  0.00    -0.023 NA
HETATM    2  N4  LIG X 999      41.355 128.249  24.242  1.00  0.00    -0.158 NA
HETATM    3  N5  LIG X 999      40.308 127.616  24.119  1.00  0.00     0.068 N 
ENDROOT
BRANCH   1   4
HETATM    4  C5  LIG X 999      42.721 129.947  23.470  1.00  0.00     0.326 A 
HETATM    5  N2  LIG X 999      42.437 131.237  23.717  1.00  0.00    -0.099 NA
HETATM    6  N1  LIG X 999      42.881 131.912  22.668  1.00  0.00    -0.124 NA
HETATM    7  C4  LIG X 999      43.413 131.004  21.822  1.00  0.00     0.184 A 
HETATM    8  O1  LIG X 999      43.321 129.790  22.315  1.00  0.00    -0.255 OA
BRANCH   7   9
HETATM    9  C3  LIG X 999      44.060 131.356  20.497  1.00  0.00     0.054 C 
HETATM   10  C2  LIG X 999      44.132 132.873  20.405  1.00  0.00    -0.008 C 
HETATM   11  C1  LIG X 999      43.079 133.577  19.967  1.00  0.00    -0.003 C 
HETATM   12  C15 LIG X 999      41.879 132.891  19.449  1.00  0.00    -0.004 C 
HETATM   13  C14 LIG X 999      41.908 131.579  19.187  1.00  0.00    -0.021 C 
HETATM   14  C13 LIG X 999      43.203 130.803  19.304  1.00  0.00     0.030 C 
HETATM   15  C12 LIG X 999      43.951 130.891  17.955  1.00  0.00     0.027 C 
HETATM   16  C8  LIG X 999      45.327 130.216  18.028  1.00  0.00     0.066 C 
HETATM   17  C7  LIG X 999      46.176 130.860  19.131  1.00  0.00     0.019 C 
HETATM   18  C6  LIG X 999      45.479 130.732  20.489  1.00  0.00     0.024 C 
BRANCH  16  19
HETATM   19  C9  LIG X 999      46.014 130.332  16.733  1.00  0.00    -0.090 C 
HETATM   20  C10 LIG X 999      46.576 130.428  15.670  1.00  0.00     0.005 C 
BRANCH  20  21
HETATM   21  C11 LIG X 999      47.245 130.542  14.406  1.00  0.00     0.258 C 
HETATM   22  O2  LIG X 999      47.265 131.647  13.803  1.00  0.00    -0.637 OA
HETATM   23  O3  LIG X 999      47.871 129.435  13.850  1.00  0.00    -0.637 OA
ENDBRANCH  20  21
ENDBRANCH  16  19
ENDBRANCH   7   9
ENDBRANCH   1   4
TORSDOF 4
