REMARK VINA RESULT:      -5.9      3.525      6.844
REMARK  4 active torsions:
REMARK  status: ('A' for Active; 'I' for Inactive)
REMARK    1  A    between atoms: O1_2  and  C1_3 
REMARK    2  A    between atoms: C1_3  and  C5_11 
REMARK       I    between atoms: N1_4  and  C2_5 
REMARK    3  A    between atoms: C2_5  and  O3_7 
REMARK    4  A    between atoms: O3_7  and  C3_8 
ROOT
HETATM    1  C5  LIG X 999      44.227 127.383  23.071  1.00  0.00     0.054 A 
HETATM    2  C6  LIG X 999      43.306 126.348  23.350  1.00  0.00     0.122 A 
HETATM    3  O4  LIG X 999      42.028 126.627  23.823  1.00  0.00    -0.191 OA
HETATM    4  C7  LIG X 999      43.666 125.009  23.166  1.00  0.00     0.053 A 
HETATM    5  C8  LIG X 999      44.944 124.672  22.706  1.00  0.00    -0.023 A 
HETATM    6  C9  LIG X 999      45.308 123.328  22.522  1.00  0.00     0.012 A 
HETATM    7  C10 LIG X 999      46.588 123.005  22.063  1.00  0.00     0.001 A 
HETATM    8  C11 LIG X 999      47.511 124.016  21.786  1.00  0.00     0.001 A 
HETATM    9  C12 LIG X 999      47.161 125.357  21.967  1.00  0.00     0.012 A 
HETATM   10  C13 LIG X 999      45.878 125.695  22.427  1.00  0.00    -0.025 A 
HETATM   11  C14 LIG X 999      45.515 127.037  22.611  1.00  0.00     0.031 A 
ENDROOT
BRANCH   1  12
HETATM   12  C1  LIG X 999      43.863 128.818  23.251  1.00  0.00     0.181 C 
HETATM   13  N1  LIG X 999      44.278 129.695  22.379  1.00  0.00    -0.162 NA
HETATM   14  C2  LIG X 999      44.131 131.120  22.422  1.00  0.00     0.390 C 
HETATM   15  O2  LIG X 999      44.020 131.727  23.523  1.00  0.00    -0.236 OA
BRANCH  12  16
HETATM   16  O1  LIG X 999      43.056 129.185  24.333  1.00  0.00    -0.344 OA
HETATM   17  H1  LIG X 999      43.346 129.822  25.062  1.00  0.00     0.219 HD
ENDBRANCH  12  16
BRANCH  14  18
HETATM   18  O3  LIG X 999      44.202 131.839  21.226  1.00  0.00    -0.282 OA
BRANCH  18  19
HETATM   19  C3  LIG X 999      43.329 131.612  20.122  1.00  0.00     0.225 C 
HETATM   20 CL1  LIG X 999      44.248 131.674  18.592  1.00  0.00    -0.095 Cl
HETATM   21  C4  LIG X 999      42.246 132.681  20.108  1.00  0.00     0.057 C 
ENDBRANCH  18  19
ENDBRANCH  14  18
ENDBRANCH   1  12
TORSDOF 4
