REMARK VINA RESULT:      -4.4      3.435      7.934
REMARK  6 active torsions:
REMARK  status: ('A' for Active; 'I' for Inactive)
REMARK    1  A    between atoms: C8_8  and  O1_9 
REMARK    2  A    between atoms: O1_9  and  C9_10 
REMARK    3  A    between atoms: C9_10  and  C10_11 
REMARK    4  A    between atoms: C10_11  and  C11_12 
REMARK    5  A    between atoms: C11_12  and  N1_13 
REMARK    6  A    between atoms: C13_18  and  N4_19 
ROOT
HETATM    1  N1  LIG X 999      46.698 125.522  22.958  1.00  0.00    -0.116 NA
HETATM    2  N2  LIG X 999      47.755 125.686  23.567  1.00  0.00    -0.168 NA
HETATM    3  N3  LIG X 999      48.814 125.851  24.172  1.00  0.00     0.068 N 
ENDROOT
BRANCH   1   4
HETATM    4  C11 LIG X 999      45.542 126.377  23.208  1.00  0.00     0.191 C 
BRANCH   4   5
HETATM    5  C10 LIG X 999      45.331 127.399  22.079  1.00  0.00     0.051 C 
BRANCH   5   6
HETATM    6  C9  LIG X 999      44.759 128.727  22.581  1.00  0.00     0.170 C 
BRANCH   6   7
HETATM    7  O1  LIG X 999      44.415 129.539  21.479  1.00  0.00    -0.384 OA
BRANCH   7   8
HETATM    8  C8  LIG X 999      45.021 130.819  21.576  1.00  0.00     0.146 C 
HETATM    9  C7  LIG X 999      46.010 131.010  20.420  1.00  0.00     0.072 C 
HETATM   10  C5  LIG X 999      45.317 131.090  19.081  1.00  0.00    -0.047 A 
HETATM   11  C4  LIG X 999      43.966 131.507  18.969  1.00  0.00    -0.023 A 
HETATM   12  C6  LIG X 999      46.056 130.812  17.919  1.00  0.00     0.008 A 
HETATM   13  C3  LIG X 999      43.373 131.558  17.694  1.00  0.00     0.010 A 
HETATM   14  C13 LIG X 999      43.109 131.775  20.195  1.00  0.00     0.199 C 
HETATM   15  C2  LIG X 999      44.117 131.263  16.550  1.00  0.00     0.001 A 
HETATM   16  C1  LIG X 999      45.457 130.897  16.662  1.00  0.00     0.001 A 
HETATM   17  C12 LIG X 999      43.936 131.902  21.492  1.00  0.00     0.143 C 
HETATM   18 CL1  LIG X 999      42.863 131.795  22.919  1.00  0.00    -0.120 Cl
BRANCH  14  19
HETATM   19  N4  LIG X 999      42.343 133.006  20.003  1.00  0.00    -0.104 NA
HETATM   20  N5  LIG X 999      41.422 133.308  20.764  1.00  0.00    -0.167 NA
HETATM   21  N6  LIG X 999      40.502 133.609  21.523  1.00  0.00     0.068 N 
ENDBRANCH  14  19
ENDBRANCH   7   8
ENDBRANCH   6   7
ENDBRANCH   5   6
ENDBRANCH   4   5
ENDBRANCH   1   4
TORSDOF 6
