REMARK VINA RESULT:      -8.7      0.000      0.000
REMARK  4 active torsions:
REMARK  status: ('A' for Active; 'I' for Inactive)
REMARK    1  A    between atoms: C3_3  and  O1_4 
REMARK    2  A    between atoms: O1_4  and  C4_5 
REMARK    3  A    between atoms: C4_5  and  O2_6 
REMARK    4  A    between atoms: C5_8  and  C6_9 
ROOT
HETATM    1  C1  LIG X 999      47.621 131.009  13.010  1.00  0.00     0.014 C 
HETATM    2  C2  LIG X 999      47.007 130.433  13.874  1.00  0.00    -0.091 C 
HETATM    3  C3  LIG X 999      46.263 129.737  14.924  1.00  0.00     0.270 C 
ENDROOT
BRANCH   3   4
HETATM    4  O1  LIG X 999      45.791 130.686  15.868  1.00  0.00    -0.319 OA
BRANCH   4   5
HETATM    5  C4  LIG X 999      44.552 131.322  15.740  1.00  0.00     0.179 C 
HETATM    6  C5  LIG X 999      43.847 131.642  16.833  1.00  0.00     0.075 C 
BRANCH   5   7
HETATM    7  O2  LIG X 999      44.058 131.629  14.472  1.00  0.00    -0.341 OA
HETATM    8  H4  LIG X 999      43.240 132.214  14.341  1.00  0.00     0.220 HD
ENDBRANCH   5   7
BRANCH   6   9
HETATM    9  C6  LIG X 999      44.339 131.379  18.203  1.00  0.00    -0.021 A 
HETATM   10  C7  LIG X 999      45.586 130.751  18.334  1.00  0.00     0.012 A 
HETATM   11  C8  LIG X 999      46.093 130.426  19.592  1.00  0.00     0.002 A 
HETATM   12  C9  LIG X 999      45.369 130.732  20.743  1.00  0.00     0.012 A 
HETATM   13  C10 LIG X 999      44.135 131.391  20.647  1.00  0.00    -0.025 A 
HETATM   14  C11 LIG X 999      43.423 131.720  21.811  1.00  0.00     0.012 A 
HETATM   15  C15 LIG X 999      43.611 131.736  19.371  1.00  0.00    -0.015 A 
HETATM   16  C12 LIG X 999      42.210 132.404  21.724  1.00  0.00     0.001 A 
HETATM   17  C13 LIG X 999      41.703 132.775  20.478  1.00  0.00     0.001 A 
HETATM   18  C14 LIG X 999      42.397 132.453  19.310  1.00  0.00     0.013 A 
ENDBRANCH   6   9
ENDBRANCH   4   5
ENDBRANCH   3   4
TORSDOF 4
