REMARK VINA RESULT:      -7.0      2.026      5.972
REMARK  1 active torsions:
REMARK  status: ('A' for Active; 'I' for Inactive)
REMARK    1  A    between atoms: C8_9  and  N2_10 
ROOT
HETATM    1  C1  LIG X 999      43.932 132.278  24.314  1.00  0.00     0.283 C 
HETATM    2  N1  LIG X 999      43.516 131.228  23.361  1.00  0.00    -0.005 N 
HETATM    3  C2  LIG X 999      42.579 130.284  24.005  1.00  0.00     0.283 C 
HETATM    4  C3  LIG X 999      44.704 130.510  22.789  1.00  0.00     0.286 A 
HETATM    5  C4  LIG X 999      44.666 130.764  21.315  1.00  0.00    -0.015 A 
HETATM    6  C5  LIG X 999      45.555 130.312  20.339  1.00  0.00     0.022 A 
HETATM    7  C6  LIG X 999      45.326 130.675  18.996  1.00  0.00    -0.023 A 
HETATM    8  C7  LIG X 999      46.194 130.242  17.982  1.00  0.00     0.041 A 
HETATM    9  C8  LIG X 999      45.962 130.606  16.648  1.00  0.00     0.026 A 
HETATM   10  C9  LIG X 999      44.857 131.407  16.326  1.00  0.00     0.030 A 
HETATM   11  C10 LIG X 999      43.983 131.846  17.324  1.00  0.00     0.014 A 
HETATM   12  C11 LIG X 999      44.204 131.489  18.661  1.00  0.00    -0.025 A 
HETATM   13  C12 LIG X 999      43.327 131.927  19.674  1.00  0.00     0.030 A 
HETATM   14  C13 LIG X 999      43.595 131.541  20.987  1.00  0.00     0.049 A 
HETATM   15  C14 LIG X 999      42.891 131.831  22.206  1.00  0.00     0.351 A 
HETATM   16  O1  LIG X 999      41.844 132.533  22.265  1.00  0.00    -0.259 OA
ENDROOT
BRANCH   9  17
HETATM   17  N2  LIG X 999      46.850 130.163  15.619  1.00  0.00    -0.399 N 
HETATM   18  H11 LIG X 999      47.087 130.783  14.812  1.00  0.00     0.156 HD
HETATM   19  H12 LIG X 999      47.279 129.211  15.656  1.00  0.00     0.156 HD
ENDBRANCH   9  17
TORSDOF 1
