REMARK VINA RESULT:      -5.4      1.322      2.486
REMARK  4 active torsions:
REMARK  status: ('A' for Active; 'I' for Inactive)
REMARK    1  A    between atoms: C3_3  and  O1_4 
REMARK    2  A    between atoms: O1_4  and  C4_5 
REMARK    3  A    between atoms: C4_5  and  O2_6 
REMARK    4  A    between atoms: C5_8  and  C6_9 
ROOT
HETATM    1  C1  LIG X 999      43.514 127.989  24.089  1.00  0.00     0.014 C 
HETATM    2  C2  LIG X 999      44.190 128.384  23.173  1.00  0.00    -0.091 C 
HETATM    3  C3  LIG X 999      45.011 128.868  22.064  1.00  0.00     0.266 C 
ENDROOT
BRANCH   3   4
HETATM    4  O1  LIG X 999      44.277 129.829  21.340  1.00  0.00    -0.319 OA
BRANCH   4   5
HETATM    5  C4  LIG X 999      44.700 131.116  21.728  1.00  0.00     0.314 A 
HETATM    6  O3  LIG X 999      46.022 131.341  21.299  1.00  0.00    -0.312 OA
HETATM    7  C5  LIG X 999      45.028 132.153  20.714  1.00  0.00     0.254 A 
BRANCH   5   8
HETATM    8  O2  LIG X 999      44.563 131.474  23.074  1.00  0.00    -0.341 OA
HETATM    9  H4  LIG X 999      45.392 131.968  23.300  1.00  0.00     0.215 HD
ENDBRANCH   5   8
BRANCH   7  10
HETATM   10  C6  LIG X 999      44.757 131.789  19.280  1.00  0.00    -0.021 A 
HETATM   11  C7  LIG X 999      43.507 132.043  18.693  1.00  0.00     0.011 A 
HETATM   12  C8  LIG X 999      43.267 131.693  17.362  1.00  0.00     0.013 A 
HETATM   13  C9  LIG X 999      44.270 131.072  16.604  1.00  0.00    -0.026 A 
HETATM   14  C10 LIG X 999      44.041 130.720  15.264  1.00  0.00     0.012 A 
HETATM   15  C14 LIG X 999      45.524 130.792  17.197  1.00  0.00    -0.025 A 
HETATM   16  C11 LIG X 999      45.048 130.098  14.520  1.00  0.00     0.001 A 
HETATM   17  C12 LIG X 999      46.286 129.821  15.106  1.00  0.00     0.001 A 
HETATM   18  C13 LIG X 999      46.527 130.165  16.439  1.00  0.00     0.012 A 
HETATM   19  C15 LIG X 999      45.755 131.143  18.535  1.00  0.00     0.022 A 
ENDBRANCH   7  10
ENDBRANCH   4   5
ENDBRANCH   3   4
TORSDOF 4
