REMARK VINA RESULT:      -5.8      3.118      5.528
REMARK  4 active torsions:
REMARK  status: ('A' for Active; 'I' for Inactive)
REMARK    1  A    between atoms: C3_3  and  O1_4 
REMARK    2  A    between atoms: O1_4  and  C4_5 
REMARK    3  A    between atoms: C4_5  and  O2_6 
REMARK    4  A    between atoms: C5_8  and  C6_9 
ROOT
HETATM    1  C1  LIG X 999      45.026 127.583  22.324  1.00  0.00     0.014 C 
HETATM    2  C2  LIG X 999      44.362 128.287  23.042  1.00  0.00    -0.091 C 
HETATM    3  C3  LIG X 999      43.554 129.145  23.910  1.00  0.00     0.270 C 
ENDROOT
BRANCH   3   4
HETATM    4  O1  LIG X 999      43.755 130.501  23.538  1.00  0.00    -0.319 OA
BRANCH   4   5
HETATM    5  C4  LIG X 999      42.725 131.353  23.113  1.00  0.00     0.179 C 
HETATM    6  C5  LIG X 999      42.759 131.877  21.885  1.00  0.00     0.075 C 
BRANCH   5   7
HETATM    7  O2  LIG X 999      41.660 131.681  23.954  1.00  0.00    -0.341 OA
HETATM    8  H4  LIG X 999      41.755 131.722  24.960  1.00  0.00     0.220 HD
ENDBRANCH   5   7
BRANCH   6   9
HETATM    9  C6  LIG X 999      43.867 131.623  20.939  1.00  0.00    -0.021 A 
HETATM   10  C7  LIG X 999      45.131 131.349  21.482  1.00  0.00     0.012 A 
HETATM   11  C8  LIG X 999      46.214 131.051  20.654  1.00  0.00     0.002 A 
HETATM   12  C9  LIG X 999      46.056 131.030  19.270  1.00  0.00     0.012 A 
HETATM   13  C10 LIG X 999      44.813 131.333  18.696  1.00  0.00    -0.025 A 
HETATM   14  C11 LIG X 999      44.668 131.337  17.299  1.00  0.00     0.012 A 
HETATM   15  C15 LIG X 999      43.704 131.649  19.527  1.00  0.00    -0.015 A 
HETATM   16  C12 LIG X 999      43.442 131.669  16.720  1.00  0.00     0.001 A 
HETATM   17  C13 LIG X 999      42.357 132.011  17.526  1.00  0.00     0.001 A 
HETATM   18  C14 LIG X 999      42.483 132.010  18.917  1.00  0.00     0.013 A 
ENDBRANCH   6   9
ENDBRANCH   4   5
ENDBRANCH   3   4
TORSDOF 4
