MODEL 1
REMARK VINA RESULT:      -8.2      0.000      0.000
REMARK  1 active torsions:
REMARK  status: ('A' for Active; 'I' for Inactive)
REMARK    1  A    between atoms: C10_11  and  N2_12 
ROOT
HETATM    1  C1  LIG X 999      45.183 129.446  14.961  1.00  0.00     0.272 C 
HETATM    2  N1  LIG X 999      45.667 130.662  15.656  1.00  0.00    -0.067 N 
HETATM    3  C2  LIG X 999      46.581 131.401  14.756  1.00  0.00     0.272 C 
HETATM    4  C3  LIG X 999      46.367 130.282  16.924  1.00  0.00     0.276 C 
HETATM    5  C4  LIG X 999      45.466 130.704  18.018  1.00  0.00    -0.024 A 
HETATM    6  C5  LIG X 999      45.624 130.490  19.384  1.00  0.00     0.021 A 
HETATM    7  C6  LIG X 999      44.655 131.006  20.268  1.00  0.00    -0.023 A 
HETATM    8  C7  LIG X 999      44.802 130.809  21.648  1.00  0.00     0.012 A 
HETATM    9  C8  LIG X 999      43.859 131.323  22.534  1.00  0.00     0.003 A 
HETATM   10  C9  LIG X 999      42.757 132.031  22.056  1.00  0.00     0.030 A 
HETATM   11  C10 LIG X 999      42.571 132.241  20.681  1.00  0.00     0.036 A 
HETATM   12  C11 LIG X 999      43.532 131.736  19.763  1.00  0.00     0.001 A 
HETATM   13  C12 LIG X 999      43.432 131.941  18.364  1.00  0.00     0.024 A 
HETATM   14  C13 LIG X 999      44.411 131.405  17.527  1.00  0.00    -0.023 A 
HETATM   15  C14 LIG X 999      44.507 131.521  16.055  1.00  0.00     0.276 C 
ENDROOT
BRANCH  11  16
HETATM   16  N2  LIG X 999      41.398 132.956  20.259  1.00  0.00    -0.398 N 
HETATM   17  H13 LIG X 999      40.582 133.139  20.879  1.00  0.00     0.156 HD
HETATM   18  H14 LIG X 999      41.362 133.389  19.309  1.00  0.00     0.156 HD
ENDBRANCH  11  16
TORSDOF 1
ENDMDL
MODEL 2
REMARK VINA RESULT:      -7.8      1.336      5.770
REMARK  1 active torsions:
REMARK  status: ('A' for Active; 'I' for Inactive)
REMARK    1  A    between atoms: C10_11  and  N2_12 
ROOT
HETATM    1  C1  LIG X 999      43.410 129.993  22.379  1.00  0.00     0.272 C 
HETATM    2  N1  LIG X 999      44.104 131.161  21.785  1.00  0.00    -0.067 N 
HETATM    3  C2  LIG X 999      44.453 132.114  22.862  1.00  0.00     0.272 C 
HETATM    4  C3  LIG X 999      43.224 131.814  20.764  1.00  0.00     0.276 C 
HETATM    5  C4  LIG X 999      43.835 131.502  19.454  1.00  0.00    -0.024 A 
HETATM    6  C5  LIG X 999      43.343 131.808  18.189  1.00  0.00     0.021 A 
HETATM    7  C6  LIG X 999      44.103 131.444  17.059  1.00  0.00    -0.023 A 
HETATM    8  C7  LIG X 999      43.628 131.751  15.777  1.00  0.00     0.012 A 
HETATM    9  C8  LIG X 999      44.374 131.409  14.652  1.00  0.00     0.003 A 
HETATM   10  C9  LIG X 999      45.595 130.750  14.791  1.00  0.00     0.030 A 
HETATM   11  C10 LIG X 999      46.098 130.416  16.058  1.00  0.00     0.036 A 
HETATM   12  C11 LIG X 999      45.357 130.773  17.218  1.00  0.00     0.001 A 
HETATM   13  C12 LIG X 999      45.819 130.503  18.531  1.00  0.00     0.024 A 
HETATM   14  C13 LIG X 999      45.030 130.876  19.619  1.00  0.00    -0.023 A 
HETATM   15  C14 LIG X 999      45.333 130.711  21.057  1.00  0.00     0.276 C 
ENDROOT
BRANCH  11  16
HETATM   16  N2  LIG X 999      47.349 129.713  16.124  1.00  0.00    -0.398 N 
HETATM   17  H13 LIG X 999      47.794 129.412  17.016  1.00  0.00     0.156 HD
HETATM   18  H14 LIG X 999      47.827 129.409  15.246  1.00  0.00     0.156 HD
ENDBRANCH  11  16
TORSDOF 1
ENDMDL
MODEL 3
REMARK VINA RESULT:      -7.6      1.401      2.511
REMARK  1 active torsions:
REMARK  status: ('A' for Active; 'I' for Inactive)
REMARK    1  A    between atoms: C10_11  and  N2_12 
ROOT
HETATM    1  C1  LIG X 999      46.882 131.696  14.553  1.00  0.00     0.272 C 
HETATM    2  N1  LIG X 999      46.049 130.623  15.146  1.00  0.00    -0.067 N 
HETATM    3  C2  LIG X 999      46.151 129.411  14.302  1.00  0.00     0.272 C 
HETATM    4  C3  LIG X 999      44.626 131.078  15.249  1.00  0.00     0.276 C 
HETATM    5  C4  LIG X 999      44.379 131.287  16.692  1.00  0.00    -0.024 A 
HETATM    6  C5  LIG X 999      43.233 131.795  17.296  1.00  0.00     0.021 A 
HETATM    7  C6  LIG X 999      43.190 131.884  18.702  1.00  0.00    -0.023 A 
HETATM    8  C7  LIG X 999      42.042 132.386  19.329  1.00  0.00     0.012 A 
HETATM    9  C8  LIG X 999      41.980 132.469  20.717  1.00  0.00     0.003 A 
HETATM   10  C9  LIG X 999      43.064 132.062  21.495  1.00  0.00     0.030 A 
HETATM   11  C10 LIG X 999      44.234 131.563  20.903  1.00  0.00     0.036 A 
HETATM   12  C11 LIG X 999      44.308 131.457  19.487  1.00  0.00     0.001 A 
HETATM   13  C12 LIG X 999      45.442 130.929  18.820  1.00  0.00     0.024 A 
HETATM   14  C13 LIG X 999      45.442 130.867  17.426  1.00  0.00    -0.023 A 
HETATM   15  C14 LIG X 999      46.503 130.334  16.544  1.00  0.00     0.276 C 
ENDROOT
BRANCH  11  16
HETATM   16  N2  LIG X 999      45.321 131.189  21.765  1.00  0.00    -0.398 N 
HETATM   17  H13 LIG X 999      45.425 131.533  22.742  1.00  0.00     0.156 HD
HETATM   18  H14 LIG X 999      46.020 130.479  21.450  1.00  0.00     0.156 HD
ENDBRANCH  11  16
TORSDOF 1
ENDMDL
MODEL 4
REMARK VINA RESULT:      -7.0      1.580      5.497
REMARK  1 active torsions:
REMARK  status: ('A' for Active; 'I' for Inactive)
REMARK    1  A    between atoms: C10_11  and  N2_12 
ROOT
HETATM    1  C1  LIG X 999      45.250 132.549  21.542  1.00  0.00     0.272 C 
HETATM    2  N1  LIG X 999      44.655 131.350  20.906  1.00  0.00    -0.067 N 
HETATM    3  C2  LIG X 999      43.909 130.582  21.929  1.00  0.00     0.272 C 
HETATM    4  C3  LIG X 999      45.732 130.508  20.294  1.00  0.00     0.276 C 
HETATM    5  C4  LIG X 999      45.574 130.663  18.831  1.00  0.00    -0.024 A 
HETATM    6  C5  LIG X 999      46.390 130.151  17.827  1.00  0.00     0.021 A 
HETATM    7  C6  LIG X 999      46.042 130.392  16.483  1.00  0.00    -0.023 A 
HETATM    8  C7  LIG X 999      46.845 129.877  15.457  1.00  0.00     0.012 A 
HETATM    9  C8  LIG X 999      46.508 130.097  14.124  1.00  0.00     0.003 A 
HETATM   10  C9  LIG X 999      45.372 130.837  13.798  1.00  0.00     0.030 A 
HETATM   11  C10 LIG X 999      44.547 131.376  14.798  1.00  0.00     0.036 A 
HETATM   12  C11 LIG X 999      44.869 131.149  16.164  1.00  0.00     0.001 A 
HETATM   13  C12 LIG X 999      44.064 131.629  17.228  1.00  0.00     0.024 A 
HETATM   14  C13 LIG X 999      44.452 131.373  18.543  1.00  0.00    -0.023 A 
HETATM   15  C14 LIG X 999      43.750 131.759  19.786  1.00  0.00     0.276 C 
ENDROOT
BRANCH  11  16
HETATM   16  N2  LIG X 999      43.409 132.151  14.389  1.00  0.00    -0.398 N 
HETATM   17  H13 LIG X 999      42.425 131.830  14.499  1.00  0.00     0.156 HD
HETATM   18  H14 LIG X 999      43.539 133.122  14.026  1.00  0.00     0.156 HD
ENDBRANCH  11  16
TORSDOF 1
ENDMDL
MODEL 5
REMARK VINA RESULT:      -6.4      1.770      5.591
REMARK  1 active torsions:
REMARK  status: ('A' for Active; 'I' for Inactive)
REMARK    1  A    between atoms: C10_11  and  N2_12 
ROOT
HETATM    1  C1  LIG X 999      44.109 132.262  24.476  1.00  0.00     0.272 C 
HETATM    2  N1  LIG X 999      43.696 131.071  23.696  1.00  0.00    -0.067 N 
HETATM    3  C2  LIG X 999      43.168 130.046  24.625  1.00  0.00     0.272 C 
HETATM    4  C3  LIG X 999      44.861 130.536  22.922  1.00  0.00     0.276 C 
HETATM    5  C4  LIG X 999      44.580 130.857  21.506  1.00  0.00    -0.024 A 
HETATM    6  C5  LIG X 999      45.403 130.648  20.405  1.00  0.00     0.021 A 
HETATM    7  C6  LIG X 999      44.928 131.001  19.126  1.00  0.00    -0.023 A 
HETATM    8  C7  LIG X 999      45.739 130.790  18.003  1.00  0.00     0.012 A 
HETATM    9  C8  LIG X 999      45.279 131.124  16.732  1.00  0.00     0.003 A 
HETATM   10  C9  LIG X 999      44.010 131.677  16.566  1.00  0.00     0.030 A 
HETATM   11  C10 LIG X 999      43.172 131.912  17.667  1.00  0.00     0.036 A 
HETATM   12  C11 LIG X 999      43.621 131.564  18.971  1.00  0.00     0.001 A 
HETATM   13  C12 LIG X 999      42.817 131.737  20.126  1.00  0.00     0.024 A 
HETATM   14  C13 LIG X 999      43.332 131.379  21.372  1.00  0.00    -0.023 A 
HETATM   15  C14 LIG X 999      42.658 131.455  22.686  1.00  0.00     0.276 C 
ENDROOT
BRANCH  11  16
HETATM   16  N2  LIG X 999      41.889 132.511  17.424  1.00  0.00    -0.398 N 
HETATM   17  H13 LIG X 999      41.519 133.319  17.968  1.00  0.00     0.156 HD
HETATM   18  H14 LIG X 999      41.304 132.189  16.621  1.00  0.00     0.156 HD
ENDBRANCH  11  16
TORSDOF 1
ENDMDL
MODEL 6
REMARK VINA RESULT:      -5.8      1.517      2.541
REMARK  1 active torsions:
REMARK  status: ('A' for Active; 'I' for Inactive)
REMARK    1  A    between atoms: C10_11  and  N2_12 
ROOT
HETATM    1  C1  LIG X 999      46.292 132.085  15.716  1.00  0.00     0.272 C 
HETATM    2  N1  LIG X 999      45.304 131.072  16.158  1.00  0.00    -0.067 N 
HETATM    3  C2  LIG X 999      45.105 130.086  15.071  1.00  0.00     0.272 C 
HETATM    4  C3  LIG X 999      44.011 131.738  16.512  1.00  0.00     0.276 C 
HETATM    5  C4  LIG X 999      43.910 131.653  17.985  1.00  0.00    -0.024 A 
HETATM    6  C5  LIG X 999      42.932 132.207  18.806  1.00  0.00     0.021 A 
HETATM    7  C6  LIG X 999      43.004 131.979  20.194  1.00  0.00    -0.023 A 
HETATM    8  C7  LIG X 999      42.024 132.521  21.037  1.00  0.00     0.012 A 
HETATM    9  C8  LIG X 999      42.076 132.296  22.410  1.00  0.00     0.003 A 
HETATM   10  C9  LIG X 999      43.107 131.535  22.959  1.00  0.00     0.030 A 
HETATM   11  C10 LIG X 999      44.112 130.983  22.149  1.00  0.00     0.036 A 
HETATM   12  C11 LIG X 999      44.066 131.192  20.743  1.00  0.00     0.001 A 
HETATM   13  C12 LIG X 999      45.024 130.635  19.858  1.00  0.00     0.024 A 
HETATM   14  C13 LIG X 999      44.916 130.894  18.491  1.00  0.00    -0.023 A 
HETATM   15  C14 LIG X 999      45.787 130.396  17.405  1.00  0.00     0.276 C 
ENDROOT
BRANCH  11  16
HETATM   16  N2  LIG X 999      45.159 130.234  22.787  1.00  0.00    -0.398 N 
HETATM   17  H13 LIG X 999      45.189 129.194  22.811  1.00  0.00     0.156 HD
HETATM   18  H14 LIG X 999      45.984 130.729  23.195  1.00  0.00     0.156 HD
ENDBRANCH  11  16
TORSDOF 1
ENDMDL
