REMARK VINA RESULT:      -5.8      3.134      4.510
REMARK  1 active torsions:
REMARK  status: ('A' for Active; 'I' for Inactive)
REMARK    1  A    between atoms: C11_13  and  N2_14 
ROOT
HETATM    1  N2  LIG X 999      45.831 131.024  17.697  1.00  0.00    -0.053 NA
HETATM    2  N3  LIG X 999      45.659 130.150  16.847  1.00  0.00    -0.160 NA
HETATM    3  N4  LIG X 999      45.485 129.279  15.997  1.00  0.00     0.068 N 
ENDROOT
BRANCH   1   4
HETATM    4  C11 LIG X 999      45.276 130.902  19.008  1.00  0.00     0.175 A 
HETATM    5  C10 LIG X 999      44.125 131.537  19.448  1.00  0.00     0.026 A 
HETATM    6  C5  LIG X 999      43.972 131.140  20.734  1.00  0.00     0.017 A 
HETATM    7  C9  LIG X 999      43.207 132.408  18.861  1.00  0.00     0.016 A 
HETATM    8  C4  LIG X 999      44.985 130.302  21.065  1.00  0.00     0.046 A 
HETATM    9  C6  LIG X 999      42.945 131.536  21.564  1.00  0.00     0.005 A 
HETATM   10  C3  LIG X 999      45.066 129.720  22.414  1.00  0.00     0.033 A 
HETATM   11  N5  LIG X 999      45.810 130.139  20.006  1.00  0.00    -0.337 N 
HETATM   12  C2  LIG X 999      44.105 130.043  23.311  1.00  0.00     0.034 A 
HETATM   13  C1  LIG X 999      42.981 130.971  22.948  1.00  0.00     0.059 A 
HETATM   14  N1  LIG X 999      42.080 131.255  23.836  1.00  0.00    -0.300 NA
HETATM   15  H1  LIG X 999      41.275 131.891  23.652  1.00  0.00     0.187 HD
HETATM   16  H7  LIG X 999      46.671 129.551  19.967  1.00  0.00     0.167 HD
HETATM   17  C7  LIG X 999      41.990 132.420  21.011  1.00  0.00     0.015 A 
HETATM   18  C8  LIG X 999      42.127 132.852  19.662  1.00  0.00     0.002 A 
ENDBRANCH   1   4
TORSDOF 1
