REMARK VINA RESULT:      -5.2      4.766      7.552
REMARK  4 active torsions:
REMARK  status: ('A' for Active; 'I' for Inactive)
REMARK    1  A    between atoms: C3_3  and  C4_4 
REMARK    2  A    between atoms: C4_4  and  C5_5 
REMARK    3  A    between atoms: C5_5  and  N1_6 
REMARK    4  A    between atoms: N4_15  and  C12_16 
ROOT
HETATM    1  C12 LIG X 999      46.896 125.036  22.452  1.00  0.00     0.055 A 
HETATM    2  C13 LIG X 999      47.967 125.641  23.130  1.00  0.00     0.032 A 
HETATM    3  C14 LIG X 999      49.285 125.377  22.752  1.00  0.00     0.014 A 
HETATM    4  C15 LIG X 999      49.554 124.514  21.680  1.00  0.00    -0.024 A 
HETATM    5  C16 LIG X 999      50.876 124.242  21.293  1.00  0.00     0.034 A 
HETATM    6  C17 LIG X 999      51.131 123.383  20.217  1.00  0.00     0.045 A 
HETATM    7  C18 LIG X 999      52.489 123.106  19.823  1.00  0.00     0.099 C 
HETATM    8  N5  LIG X 999      53.579 122.883  19.507  1.00  0.00    -0.191 NA
HETATM    9  C19 LIG X 999      50.067 122.794  19.522  1.00  0.00     0.023 A 
HETATM   10  C20 LIG X 999      48.748 123.059  19.899  1.00  0.00     0.014 A 
HETATM   11  C21 LIG X 999      48.480 123.917  20.977  1.00  0.00    -0.024 A 
HETATM   12  C22 LIG X 999      47.159 124.189  21.365  1.00  0.00     0.043 A 
ENDROOT
BRANCH   1  13
HETATM   13  N4  LIG X 999      45.537 125.318  22.821  1.00  0.00    -0.241 N 
HETATM   14  C2  LIG X 999      45.078 126.194  23.741  1.00  0.00     0.055 A 
HETATM   15  C1  LIG X 999      45.915 127.071  24.625  1.00  0.00     0.072 C 
HETATM   16  C3  LIG X 999      43.697 126.115  23.699  1.00  0.00     0.078 A 
HETATM   17  N2  LIG X 999      43.361 125.198  22.770  1.00  0.00    -0.162 NA
HETATM   18  N3  LIG X 999      44.492 124.725  22.264  1.00  0.00     0.010 NA
BRANCH  16  19
HETATM   19  C4  LIG X 999      42.695 126.960  24.432  1.00  0.00     0.093 C 
BRANCH  19  20
HETATM   20  C5  LIG X 999      42.193 128.103  23.545  1.00  0.00     0.279 C 
BRANCH  20  21
HETATM   21  N1  LIG X 999      43.064 129.290  23.690  1.00  0.00     0.093 N 
HETATM   22  C6  LIG X 999      42.429 130.373  24.465  1.00  0.00     0.273 C 
HETATM   23  C7  LIG X 999      42.371 131.611  23.587  1.00  0.00     0.036 C 
HETATM   24  C8  LIG X 999      43.445 131.378  22.546  1.00  0.00     0.016 C 
HETATM   25  C9  LIG X 999      43.160 132.122  21.236  1.00  0.00     0.012 C 
HETATM   26  C10 LIG X 999      43.458 129.856  22.387  1.00  0.00     0.222 C 
HETATM   27  C11 LIG X 999      44.844 129.334  21.998  1.00  0.00     0.043 C 
ENDBRANCH  20  21
ENDBRANCH  19  20
ENDBRANCH  16  19
ENDBRANCH   1  13
TORSDOF 4
