REMARK VINA RESULT:      -4.7      3.521      7.826
REMARK  6 active torsions:
REMARK  status: ('A' for Active; 'I' for Inactive)
REMARK    1  A    between atoms: C8_8  and  O1_9 
REMARK    2  A    between atoms: O1_9  and  C9_10 
REMARK    3  A    between atoms: C9_10  and  C10_11 
REMARK    4  A    between atoms: C10_11  and  C11_12 
REMARK    5  A    between atoms: C11_12  and  N1_13 
REMARK    6  A    between atoms: C13_18  and  N4_19 
ROOT
HETATM    1  N1  LIG X 999      43.322 126.493  23.402  1.00  0.00    -0.116 NA
HETATM    2  N2  LIG X 999      42.535 125.564  23.221  1.00  0.00    -0.168 NA
HETATM    3  N3  LIG X 999      41.747 124.638  23.037  1.00  0.00     0.068 N 
ENDROOT
BRANCH   1   4
HETATM    4  C11 LIG X 999      44.748 126.339  23.134  1.00  0.00     0.191 C 
BRANCH   4   5
HETATM    5  C10 LIG X 999      45.336 127.574  22.433  1.00  0.00     0.051 C 
BRANCH   5   6
HETATM    6  C9  LIG X 999      44.564 128.857  22.747  1.00  0.00     0.170 C 
BRANCH   6   7
HETATM    7  O1  LIG X 999      44.362 129.590  21.557  1.00  0.00    -0.384 OA
BRANCH   7   8
HETATM    8  C8  LIG X 999      44.971 130.869  21.633  1.00  0.00     0.146 C 
HETATM    9  C7  LIG X 999      45.946 131.047  20.462  1.00  0.00     0.072 C 
HETATM   10  C5  LIG X 999      45.235 131.115  19.132  1.00  0.00    -0.047 A 
HETATM   11  C4  LIG X 999      43.884 131.533  19.034  1.00  0.00    -0.023 A 
HETATM   12  C6  LIG X 999      45.957 130.824  17.963  1.00  0.00     0.008 A 
HETATM   13  C3  LIG X 999      43.273 131.571  17.766  1.00  0.00     0.010 A 
HETATM   14  C13 LIG X 999      43.043 131.815  20.268  1.00  0.00     0.199 C 
HETATM   15  C2  LIG X 999      44.001 131.263  16.615  1.00  0.00     0.001 A 
HETATM   16  C1  LIG X 999      45.342 130.896  16.713  1.00  0.00     0.001 A 
HETATM   17  C12 LIG X 999      43.888 131.953  21.552  1.00  0.00     0.143 C 
HETATM   18 CL1  LIG X 999      42.833 131.863  22.994  1.00  0.00    -0.120 Cl
BRANCH  14  19
HETATM   19  N4  LIG X 999      42.276 133.045  20.074  1.00  0.00    -0.104 NA
HETATM   20  N5  LIG X 999      41.337 133.333  20.816  1.00  0.00    -0.167 NA
HETATM   21  N6  LIG X 999      40.398 133.622  21.557  1.00  0.00     0.068 N 
ENDBRANCH  14  19
ENDBRANCH   7   8
ENDBRANCH   6   7
ENDBRANCH   5   6
ENDBRANCH   4   5
ENDBRANCH   1   4
TORSDOF 6
