REMARK VINA RESULT:      -8.2      1.977      2.788
REMARK  8 active torsions:
REMARK  status: ('A' for Active; 'I' for Inactive)
REMARK    1  A    between atoms: O1_2  and  C1_3 
REMARK    2  A    between atoms: C1_3  and  N1_4 
REMARK    3  A    between atoms: N1_4  and  C2_5 
REMARK    4  A    between atoms: C2_5  and  C3_6 
REMARK    5  A    between atoms: C3_6  and  C4_7 
REMARK    6  A    between atoms: C4_7  and  O2_8 
REMARK    7  A    between atoms: O2_8  and  C5_9 
REMARK    8  A    between atoms: C15_19  and  C16_20 
ROOT
HETATM    1  C4  LIG X 999      42.670 131.496  18.077  1.00  0.00     0.177 C 
ENDROOT
BRANCH   1   2
HETATM    2  C3  LIG X 999      41.795 132.614  18.668  1.00  0.00     0.048 C 
BRANCH   2   3
HETATM    3  C2  LIG X 999      42.039 132.839  20.165  1.00  0.00     0.154 C 
BRANCH   3   4
HETATM    4  N1  LIG X 999      42.345 131.570  20.812  1.00  0.00    -0.267 NA
BRANCH   4   5
HETATM    5  C1  LIG X 999      43.018 131.477  22.070  1.00  0.00     0.153 C 
HETATM    6  C15 LIG X 999      44.335 131.235  22.118  1.00  0.00     0.034 C 
BRANCH   5   7
HETATM    7  O1  LIG X 999      42.290 131.634  23.251  1.00  0.00    -0.345 OA
HETATM    8  H1  LIG X 999      41.528 132.299  23.328  1.00  0.00     0.219 HD
ENDBRANCH   5   7
BRANCH   6   9
HETATM    9  C16 LIG X 999      45.191 131.105  20.879  1.00  0.00     0.004 C 
HETATM   10  C17 LIG X 999      45.794 129.701  20.788  1.00  0.00     0.013 C 
HETATM   11  C18 LIG X 999      46.293 132.168  20.878  1.00  0.00     0.013 C 
ENDBRANCH   6   9
ENDBRANCH   4   5
ENDBRANCH   3   4
ENDBRANCH   2   3
ENDBRANCH   1   2
BRANCH   1  12
HETATM   12  O2  LIG X 999      43.458 131.949  16.974  1.00  0.00    -0.351 OA
BRANCH  12  13
HETATM   13  C5  LIG X 999      44.594 131.310  16.453  1.00  0.00     0.069 A 
HETATM   14  C6  LIG X 999      45.302 130.319  17.161  1.00  0.00     0.037 A 
HETATM   15  C7  LIG X 999      46.400 129.682  16.576  1.00  0.00     0.015 A 
HETATM   16  C8  LIG X 999      46.814 130.029  15.283  1.00  0.00    -0.026 A 
HETATM   17  C9  LIG X 999      47.899 129.378  14.678  1.00  0.00     0.012 A 
HETATM   18  C13 LIG X 999      46.123 131.043  14.577  1.00  0.00    -0.023 A 
HETATM   19  C10 LIG X 999      48.295 129.728  13.384  1.00  0.00     0.001 A 
HETATM   20  C11 LIG X 999      47.614 130.729  12.687  1.00  0.00     0.001 A 
HETATM   21  C12 LIG X 999      46.531 131.387  13.279  1.00  0.00     0.012 A 
HETATM   22  C14 LIG X 999      45.022 131.677  15.172  1.00  0.00     0.049 A 
ENDBRANCH  12  13
ENDBRANCH   1  12
TORSDOF 8
