REMARK VINA RESULT:      -6.1      0.883      2.741
REMARK  1 active torsions:
REMARK  status: ('A' for Active; 'I' for Inactive)
REMARK    1  A    between atoms: N1_2  and  C1_3 
ROOT
HETATM    1  C1  LIG X 999      43.236 131.984  22.037  1.00  0.00     0.143 C 
HETATM    2  N2  LIG X 999      44.407 131.365  21.755  1.00  0.00    -0.229 NA
HETATM    3  C2  LIG X 999      44.785 131.073  20.483  1.00  0.00     0.070 C 
HETATM    4  C3  LIG X 999      45.976 130.373  20.291  1.00  0.00     0.033 C 
HETATM    5  C4  LIG X 999      46.402 130.043  19.012  1.00  0.00     0.014 C 
HETATM    6  C5  LIG X 999      45.701 130.504  17.894  1.00  0.00    -0.025 C 
HETATM    7  C6  LIG X 999      46.213 130.247  16.612  1.00  0.00     0.012 C 
HETATM    8  C7  LIG X 999      45.609 130.807  15.489  1.00  0.00     0.001 C 
HETATM    9  C8  LIG X 999      44.519 131.659  15.640  1.00  0.00     0.001 C 
HETATM   10  C9  LIG X 999      43.990 131.912  16.908  1.00  0.00     0.013 C 
HETATM   11  C10 LIG X 999      44.513 131.275  18.058  1.00  0.00    -0.013 C 
HETATM   12  C11 LIG X 999      43.974 131.453  19.377  1.00  0.00     0.010 C 
HETATM   13  C12 LIG X 999      42.664 131.950  19.681  1.00  0.00    -0.045 C 
HETATM   14  C13 LIG X 999      41.527 132.018  18.690  1.00  0.00     0.049 C 
HETATM   15  C14 LIG X 999      42.343 132.273  21.009  1.00  0.00     0.059 C 
ENDROOT
BRANCH   1  16
HETATM   16  N1  LIG X 999      42.929 132.267  23.262  1.00  0.00    -0.282 NA
HETATM   17  H1  LIG X 999      42.406 131.593  23.865  1.00  0.00     0.188 HD
ENDBRANCH   1  16
TORSDOF 1
