REMARK VINA RESULT:      -7.1      1.758      6.567
REMARK  3 active torsions:
REMARK  status: ('A' for Active; 'I' for Inactive)
REMARK       I    between atoms: N1_2  and  C3_4 
REMARK    1  A    between atoms: C3_4  and  O2_6 
REMARK    2  A    between atoms: O2_6  and  C4_7 
REMARK    3  A    between atoms: C13_16  and  N2_17 
ROOT
HETATM    1  C4  LIG X 999      45.217 131.216  16.958  1.00  0.00     0.108 A 
HETATM    2  C5  LIG X 999      45.330 132.435  16.289  1.00  0.00     0.040 A 
HETATM    3  C6  LIG X 999      46.074 132.536  15.117  1.00  0.00     0.015 A 
HETATM    4  C7  LIG X 999      46.743 131.419  14.607  1.00  0.00    -0.024 A 
HETATM    5  C8  LIG X 999      47.496 131.535  13.428  1.00  0.00     0.012 A 
HETATM    6  C9  LIG X 999      48.195 130.438  12.928  1.00  0.00     0.001 A 
HETATM    7  C10 LIG X 999      48.158 129.219  13.602  1.00  0.00     0.001 A 
HETATM    8  C11 LIG X 999      47.412 129.084  14.775  1.00  0.00     0.014 A 
HETATM    9  C12 LIG X 999      46.677 130.174  15.291  1.00  0.00     0.003 A 
HETATM   10  C13 LIG X 999      45.905 130.075  16.482  1.00  0.00     0.071 A 
ENDROOT
BRANCH   1  11
HETATM   11  O2  LIG X 999      44.414 131.168  18.104  1.00  0.00    -0.259 OA
BRANCH  11  12
HETATM   12  C3  LIG X 999      44.926 131.150  19.409  1.00  0.00     0.367 C 
HETATM   13  N1  LIG X 999      44.088 131.535  20.511  1.00  0.00    -0.336 N 
HETATM   14  C1  LIG X 999      42.710 131.958  20.250  1.00  0.00     0.154 C 
HETATM   15  C2  LIG X 999      44.620 131.506  21.876  1.00  0.00     0.154 C 
HETATM   16  O1  LIG X 999      46.116 130.778  19.618  1.00  0.00    -0.238 OA
ENDBRANCH  11  12
ENDBRANCH   1  11
BRANCH  10  17
HETATM   17  N2  LIG X 999      45.840 128.851  17.233  1.00  0.00    -0.396 N 
HETATM   18  H13 LIG X 999      45.564 128.828  18.238  1.00  0.00     0.156 HD
HETATM   19  H14 LIG X 999      46.150 127.948  16.811  1.00  0.00     0.156 HD
ENDBRANCH  10  17
TORSDOF 3
