MODEL 1
REMARK VINA RESULT:      -6.2      0.000      0.000
REMARK  4 active torsions:
REMARK  status: ('A' for Active; 'I' for Inactive)
REMARK    1  A    between atoms: C4_4  and  N1_5 
REMARK    2  A    between atoms: C7_10  and  S1_11 
REMARK    3  A    between atoms: S1_11  and  C8_12 
REMARK    4  A    between atoms: C8_12  and  C9_13 
ROOT
HETATM    1  N1  LIG X 999      41.220 127.336  24.623  1.00  0.00    -0.071 NA
HETATM    2  N2  LIG X 999      40.130 127.252  24.056  1.00  0.00    -0.162 NA
HETATM    3  N3  LIG X 999      39.034 127.168  23.502  1.00  0.00     0.068 N 
ENDROOT
BRANCH   1   4
HETATM    4  C4  LIG X 999      42.440 127.720  23.963  1.00  0.00     0.108 A 
HETATM    5  C3  LIG X 999      43.267 126.694  23.492  1.00  0.00     0.008 A 
HETATM    6  C2  LIG X 999      44.467 126.948  22.911  1.00  0.00    -0.021 A 
HETATM    7  C15 LIG X 999      43.039 125.232  23.575  1.00  0.00     0.278 C 
HETATM    8  C1  LIG X 999      44.911 128.245  22.702  1.00  0.00     0.018 A 
HETATM    9  C18 LIG X 999      45.157 125.693  22.546  1.00  0.00     0.276 C 
HETATM   10  C6  LIG X 999      44.088 129.325  23.072  1.00  0.00    -0.035 A 
HETATM   11  C5  LIG X 999      42.846 129.075  23.742  1.00  0.00    -0.018 A 
HETATM   12  C7  LIG X 999      44.525 130.727  22.699  1.00  0.00     0.081 C 
HETATM   13  C14 LIG X 999      42.034 130.229  24.304  1.00  0.00     0.042 C 
HETATM   14  C13 LIG X 999      42.442 131.616  23.798  1.00  0.00     0.006 C 
HETATM   15  C12 LIG X 999      43.961 131.749  23.691  1.00  0.00     0.020 C 
HETATM   16  N4  LIG X 999      44.297 124.589  23.077  1.00  0.00    -0.067 N 
HETATM   17  C16 LIG X 999      44.989 123.894  24.189  1.00  0.00     0.272 C 
HETATM   18  C17 LIG X 999      43.994 123.606  22.012  1.00  0.00     0.272 C 
BRANCH  12  19
HETATM   19  S1  LIG X 999      43.967 131.164  20.996  1.00  0.00    -0.147 SA
BRANCH  19  20
HETATM   20  C8  LIG X 999      45.512 130.827  20.085  1.00  0.00     0.168 C 
BRANCH  20  21
HETATM   21  C9  LIG X 999      45.308 131.105  18.662  1.00  0.00    -0.097 C 
HETATM   22  C10 LIG X 999      45.158 131.346  17.491  1.00  0.00    -0.110 C 
HETATM   23  C11 LIG X 999      44.991 131.649  16.070  1.00  0.00     0.112 C 
ENDBRANCH  20  21
ENDBRANCH  19  20
ENDBRANCH  12  19
ENDBRANCH   1   4
TORSDOF 4
ENDMDL
MODEL 2
REMARK VINA RESULT:      -4.8      3.802      6.512
REMARK  4 active torsions:
REMARK  status: ('A' for Active; 'I' for Inactive)
REMARK    1  A    between atoms: C4_4  and  N1_5 
REMARK    2  A    between atoms: C7_10  and  S1_11 
REMARK    3  A    between atoms: S1_11  and  C8_12 
REMARK    4  A    between atoms: C8_12  and  C9_13 
ROOT
HETATM    1  N1  LIG X 999      41.729 132.239  19.014  1.00  0.00    -0.071 NA
HETATM    2  N2  LIG X 999      41.368 132.929  19.967  1.00  0.00    -0.162 NA
HETATM    3  N3  LIG X 999      40.992 133.616  20.917  1.00  0.00     0.068 N 
ENDROOT
BRANCH   1   4
HETATM    4  C4  LIG X 999      43.058 131.705  18.868  1.00  0.00     0.108 A 
HETATM    5  C3  LIG X 999      43.698 131.247  20.025  1.00  0.00     0.008 A 
HETATM    6  C2  LIG X 999      44.973 130.782  20.006  1.00  0.00    -0.021 A 
HETATM    7  C15 LIG X 999      43.169 131.229  21.410  1.00  0.00     0.278 C 
HETATM    8  C1  LIG X 999      45.690 130.685  18.823  1.00  0.00     0.018 A 
HETATM    9  C18 LIG X 999      45.423 130.406  21.362  1.00  0.00     0.276 C 
HETATM   10  C6  LIG X 999      45.075 131.046  17.610  1.00  0.00    -0.035 A 
HETATM   11  C5  LIG X 999      43.752 131.595  17.620  1.00  0.00    -0.018 A 
HETATM   12  C7  LIG X 999      45.822 130.789  16.317  1.00  0.00     0.081 C 
HETATM   13  C14 LIG X 999      43.144 132.152  16.345  1.00  0.00     0.042 C 
HETATM   14  C13 LIG X 999      43.873 131.760  15.055  1.00  0.00     0.006 C 
HETATM   15  C12 LIG X 999      45.390 131.787  15.238  1.00  0.00     0.020 C 
HETATM   16  N4  LIG X 999      44.309 130.801  22.282  1.00  0.00    -0.067 N 
HETATM   17  C16 LIG X 999      44.739 131.926  23.148  1.00  0.00     0.272 C 
HETATM   18  C17 LIG X 999      43.912 129.661  23.139  1.00  0.00     0.272 C 
BRANCH  12  19
HETATM   19  S1  LIG X 999      45.525 129.073  15.709  1.00  0.00    -0.147 SA
BRANCH  19  20
HETATM   20  C8  LIG X 999      47.192 128.697  15.066  1.00  0.00     0.168 C 
BRANCH  20  21
HETATM   21  C9  LIG X 999      47.530 129.647  14.005  1.00  0.00    -0.097 C 
HETATM   22  C10 LIG X 999      47.789 130.429  13.125  1.00  0.00    -0.110 C 
HETATM   23  C11 LIG X 999      48.085 131.377  12.051  1.00  0.00     0.112 C 
ENDBRANCH  20  21
ENDBRANCH  19  20
ENDBRANCH  12  19
ENDBRANCH   1   4
TORSDOF 4
ENDMDL
MODEL 3
REMARK VINA RESULT:      -4.8      2.772      6.065
REMARK  4 active torsions:
REMARK  status: ('A' for Active; 'I' for Inactive)
REMARK    1  A    between atoms: C4_4  and  N1_5 
REMARK    2  A    between atoms: C7_10  and  S1_11 
REMARK    3  A    between atoms: S1_11  and  C8_12 
REMARK    4  A    between atoms: C8_12  and  C9_13 
ROOT
HETATM    1  N1  LIG X 999      41.288 127.445  24.625  1.00  0.00    -0.071 NA
HETATM    2  N2  LIG X 999      40.186 127.344  24.084  1.00  0.00    -0.162 NA
HETATM    3  N3  LIG X 999      39.079 127.250  23.555  1.00  0.00     0.068 N 
ENDROOT
BRANCH   1   4
HETATM    4  C4  LIG X 999      42.539 127.376  23.916  1.00  0.00     0.108 A 
HETATM    5  C3  LIG X 999      43.146 128.587  23.564  1.00  0.00     0.008 A 
HETATM    6  C2  LIG X 999      44.295 128.631  22.843  1.00  0.00    -0.021 A 
HETATM    7  C15 LIG X 999      42.664 129.961  23.843  1.00  0.00     0.278 C 
HETATM    8  C1  LIG X 999      44.958 127.474  22.464  1.00  0.00     0.018 A 
HETATM    9  C18 LIG X 999      44.697 130.027  22.570  1.00  0.00     0.276 C 
HETATM   10  C6  LIG X 999      44.448 126.224  22.862  1.00  0.00    -0.035 A 
HETATM   11  C5  LIG X 999      43.205 126.157  23.571  1.00  0.00    -0.018 A 
HETATM   12  C7  LIG X 999      45.267 124.983  22.568  1.00  0.00     0.081 C 
HETATM   13  C14 LIG X 999      42.555 124.813  23.851  1.00  0.00     0.042 C 
HETATM   14  C13 LIG X 999      43.468 123.598  23.653  1.00  0.00     0.006 C 
HETATM   15  C12 LIG X 999      44.357 123.760  22.421  1.00  0.00     0.020 C 
HETATM   16  N4  LIG X 999      43.591 130.880  23.109  1.00  0.00    -0.067 N 
HETATM   17  C16 LIG X 999      42.872 131.545  21.995  1.00  0.00     0.272 C 
HETATM   18  C17 LIG X 999      44.128 131.915  24.020  1.00  0.00     0.272 C 
BRANCH  12  19
HETATM   19  S1  LIG X 999      46.496 124.668  23.907  1.00  0.00    -0.147 SA
BRANCH  19  20
HETATM   20  C8  LIG X 999      47.082 123.020  23.385  1.00  0.00     0.168 C 
BRANCH  20  21
HETATM   21  C9  LIG X 999      47.807 123.139  22.119  1.00  0.00    -0.097 C 
HETATM   22  C10 LIG X 999      48.402 123.217  21.073  1.00  0.00    -0.110 C 
HETATM   23  C11 LIG X 999      49.122 123.293  19.803  1.00  0.00     0.112 C 
ENDBRANCH  20  21
ENDBRANCH  19  20
ENDBRANCH  12  19
ENDBRANCH   1   4
TORSDOF 4
ENDMDL
MODEL 4
REMARK VINA RESULT:      -4.0      3.058      6.135
REMARK  4 active torsions:
REMARK  status: ('A' for Active; 'I' for Inactive)
REMARK    1  A    between atoms: C4_4  and  N1_5 
REMARK    2  A    between atoms: C7_10  and  S1_11 
REMARK    3  A    between atoms: S1_11  and  C8_12 
REMARK    4  A    between atoms: C8_12  and  C9_13 
ROOT
HETATM    1  N1  LIG X 999      43.100 129.355  24.365  1.00  0.00    -0.071 NA
HETATM    2  N2  LIG X 999      41.914 129.041  24.468  1.00  0.00    -0.162 NA
HETATM    3  N3  LIG X 999      40.726 128.739  24.579  1.00  0.00     0.068 N 
ENDROOT
BRANCH   1   4
HETATM    4  C4  LIG X 999      44.007 128.761  23.419  1.00  0.00     0.108 A 
HETATM    5  C3  LIG X 999      44.533 129.592  22.423  1.00  0.00     0.008 A 
HETATM    6  C2  LIG X 999      45.348 129.117  21.447  1.00  0.00    -0.021 A 
HETATM    7  C15 LIG X 999      44.279 131.038  22.217  1.00  0.00     0.278 C 
HETATM    8  C1  LIG X 999      45.750 127.790  21.421  1.00  0.00     0.018 A 
HETATM    9  C18 LIG X 999      45.723 130.187  20.500  1.00  0.00     0.276 C 
HETATM   10  C6  LIG X 999      45.329 126.920  22.445  1.00  0.00    -0.035 A 
HETATM   11  C5  LIG X 999      44.420 127.390  23.447  1.00  0.00    -0.018 A 
HETATM   12  C7  LIG X 999      45.900 125.517  22.480  1.00  0.00     0.081 C 
HETATM   13  C14 LIG X 999      43.819 126.421  24.451  1.00  0.00     0.042 C 
HETATM   14  C13 LIG X 999      44.514 125.057  24.530  1.00  0.00     0.006 C 
HETATM   15  C12 LIG X 999      44.914 124.551  23.145  1.00  0.00     0.020 C 
HETATM   16  N4  LIG X 999      44.945 131.394  20.924  1.00  0.00    -0.067 N 
HETATM   17  C16 LIG X 999      43.925 131.727  19.900  1.00  0.00     0.272 C 
HETATM   18  C17 LIG X 999      45.844 132.557  21.103  1.00  0.00     0.272 C 
BRANCH  12  19
HETATM   19  S1  LIG X 999      47.500 125.476  23.397  1.00  0.00    -0.147 SA
BRANCH  19  20
HETATM   20  C8  LIG X 999      47.956 123.731  23.113  1.00  0.00     0.168 C 
BRANCH  20  21
HETATM   21  C9  LIG X 999      48.557 123.596  21.784  1.00  0.00    -0.097 C 
HETATM   22  C10 LIG X 999      49.062 123.502  20.694  1.00  0.00    -0.110 C 
HETATM   23  C11 LIG X 999      49.685 123.403  19.375  1.00  0.00     0.112 C 
ENDBRANCH  20  21
ENDBRANCH  19  20
ENDBRANCH  12  19
ENDBRANCH   1   4
TORSDOF 4
ENDMDL
MODEL 5
REMARK VINA RESULT:      -3.7      1.856      2.869
REMARK  4 active torsions:
REMARK  status: ('A' for Active; 'I' for Inactive)
REMARK    1  A    between atoms: C4_4  and  N1_5 
REMARK    2  A    between atoms: C7_10  and  S1_11 
REMARK    3  A    between atoms: S1_11  and  C8_12 
REMARK    4  A    between atoms: C8_12  and  C9_13 
ROOT
HETATM    1  N1  LIG X 999      43.106 130.100  23.954  1.00  0.00    -0.071 NA
HETATM    2  N2  LIG X 999      42.046 129.513  24.169  1.00  0.00    -0.162 NA
HETATM    3  N3  LIG X 999      40.981 128.936  24.392  1.00  0.00     0.068 N 
ENDROOT
BRANCH   1   4
HETATM    4  C4  LIG X 999      44.020 129.746  22.900  1.00  0.00     0.108 A 
HETATM    5  C3  LIG X 999      44.550 128.451  22.915  1.00  0.00     0.008 A 
HETATM    6  C2  LIG X 999      45.465 128.038  22.003  1.00  0.00    -0.021 A 
HETATM    7  C15 LIG X 999      44.277 127.369  23.891  1.00  0.00     0.278 C 
HETATM    8  C1  LIG X 999      45.882 128.864  20.970  1.00  0.00     0.018 A 
HETATM    9  C18 LIG X 999      45.893 126.649  22.270  1.00  0.00     0.276 C 
HETATM   10  C6  LIG X 999      45.322 130.149  20.844  1.00  0.00    -0.035 A 
HETATM   11  C5  LIG X 999      44.400 130.622  21.833  1.00  0.00    -0.018 A 
HETATM   12  C7  LIG X 999      45.678 130.976  19.625  1.00  0.00     0.081 C 
HETATM   13  C14 LIG X 999      43.926 132.065  21.809  1.00  0.00     0.042 C 
HETATM   14  C13 LIG X 999      44.205 132.818  20.504  1.00  0.00     0.006 C 
HETATM   15  C12 LIG X 999      45.584 132.471  19.942  1.00  0.00     0.020 C 
HETATM   16  N4  LIG X 999      45.221 126.257  23.549  1.00  0.00    -0.067 N 
HETATM   17  C16 LIG X 999      46.229 126.095  24.624  1.00  0.00     0.272 C 
HETATM   18  C17 LIG X 999      44.487 124.983  23.383  1.00  0.00     0.272 C 
BRANCH  12  19
HETATM   19  S1  LIG X 999      44.561 130.584  18.210  1.00  0.00    -0.147 SA
BRANCH  19  20
HETATM   20  C8  LIG X 999      45.103 131.878  17.041  1.00  0.00     0.168 C 
BRANCH  20  21
HETATM   21  C9  LIG X 999      45.914 131.270  15.984  1.00  0.00    -0.097 C 
HETATM   22  C10 LIG X 999      46.574 130.751  15.119  1.00  0.00    -0.110 C 
HETATM   23  C11 LIG X 999      47.367 130.105  14.075  1.00  0.00     0.112 C 
ENDBRANCH  20  21
ENDBRANCH  19  20
ENDBRANCH  12  19
ENDBRANCH   1   4
TORSDOF 4
ENDMDL
