REMARK VINA RESULT:      -5.8      4.714      6.764
REMARK  6 active torsions:
REMARK  status: ('A' for Active; 'I' for Inactive)
REMARK    1  A    between atoms: O1_2  and  C2_3 
REMARK    2  A    between atoms: C2_3  and  C3_5 
REMARK    3  A    between atoms: C6_9  and  N1_10 
REMARK    4  A    between atoms: N1_10  and  C7_11 
REMARK    5  A    between atoms: C7_11  and  N2_13 
REMARK    6  A    between atoms: N2_13  and  C8_14 
ROOT
HETATM    1  C7  LIG X 999      45.134 126.315  23.513  1.00  0.00     0.278 C 
HETATM    2  S2  LIG X 999      46.387 126.054  22.483  1.00  0.00    -0.033 SA
ENDROOT
BRANCH   1   3
HETATM    3  N1  LIG X 999      44.503 125.185  24.143  1.00  0.00     0.012 N 
HETATM    4  H6  LIG X 999      44.388 125.399  25.161  1.00  0.00     0.293 HD
HETATM    5  H7  LIG X 999      45.099 124.330  24.062  1.00  0.00     0.293 HD
BRANCH   3   6
HETATM    6  C6  LIG X 999      43.219 124.921  23.541  1.00  0.00     0.164 A 
HETATM    7  C3  LIG X 999      42.970 123.911  22.598  1.00  0.00     0.114 A 
HETATM    8  S1  LIG X 999      41.355 124.027  22.138  1.00  0.00    -0.094 SA
HETATM    9  C4  LIG X 999      40.955 125.334  23.112  1.00  0.00     0.053 A 
HETATM   10  C5  LIG X 999      42.088 125.710  23.818  1.00  0.00     0.046 A 
BRANCH   7  11
HETATM   11  C2  LIG X 999      43.909 122.917  22.047  1.00  0.00     0.302 C 
HETATM   12  O2  LIG X 999      43.654 122.375  20.937  1.00  0.00    -0.259 OA
BRANCH  11  13
HETATM   13  O1  LIG X 999      45.071 122.573  22.741  1.00  0.00    -0.322 OA
HETATM   14  C1  LIG X 999      46.323 122.376  22.096  1.00  0.00     0.213 C 
ENDBRANCH  11  13
ENDBRANCH   7  11
ENDBRANCH   3   6
ENDBRANCH   1   3
BRANCH   1  15
HETATM   15  N2  LIG X 999      44.933 127.634  24.049  1.00  0.00    -0.327 N 
HETATM   16  H8  LIG X 999      45.177 127.795  25.051  1.00  0.00     0.168 HD
BRANCH  15  17
HETATM   17  C8  LIG X 999      44.367 128.722  23.298  1.00  0.00     0.035 A 
HETATM   18  C9  LIG X 999      43.152 129.319  23.680  1.00  0.00     0.030 A 
HETATM   19  C10 LIG X 999      42.629 130.393  22.956  1.00  0.00     0.014 A 
HETATM   20  C11 LIG X 999      43.319 130.896  21.844  1.00  0.00    -0.026 A 
HETATM   21  C12 LIG X 999      42.804 131.976  21.110  1.00  0.00     0.012 A 
HETATM   22  C16 LIG X 999      44.553 130.315  21.463  1.00  0.00    -0.024 A 
HETATM   23  C13 LIG X 999      43.505 132.472  20.007  1.00  0.00     0.001 A 
HETATM   24  C14 LIG X 999      44.722 131.898  19.632  1.00  0.00     0.001 A 
HETATM   25  C15 LIG X 999      45.247 130.824  20.355  1.00  0.00     0.012 A 
HETATM   26  C17 LIG X 999      45.069 129.237  22.198  1.00  0.00     0.041 A 
ENDBRANCH  15  17
ENDBRANCH   1  15
TORSDOF 6
