REMARK VINA RESULT:      -8.7      1.658      2.404
REMARK  5 active torsions:
REMARK  status: ('A' for Active; 'I' for Inactive)
REMARK    1  A    between atoms: C2_2  and  C3_3 
REMARK    2  A    between atoms: C2_2  and  N1_13 
REMARK    3  A    between atoms: C14_15  and  C15_16 
REMARK    4  A    between atoms: C15_16  and  C16_17 
REMARK       I    between atoms: C16_17  and  N2_19 
REMARK    5  A    between atoms: N2_19  and  C17_20 
ROOT
HETATM    1  N1  LIG X 999      43.629 131.261  21.328  1.00  0.00    -0.274 N 
HETATM    2  C13 LIG X 999      42.659 130.965  22.214  1.00  0.00     0.137 A 
HETATM    3  C14 LIG X 999      43.201 130.038  23.076  1.00  0.00     0.078 A 
HETATM    4  N4  LIG X 999      44.464 129.776  22.685  1.00  0.00    -0.163 NA
HETATM    5  N5  LIG X 999      44.697 130.534  21.624  1.00  0.00     0.005 NA
ENDROOT
BRANCH   1   6
HETATM    6  C2  LIG X 999      43.544 132.152  20.168  1.00  0.00     0.134 C 
HETATM    7  C1  LIG X 999      42.083 132.493  19.838  1.00  0.00     0.039 C 
BRANCH   6   8
HETATM    8  C3  LIG X 999      44.296 131.558  18.990  1.00  0.00    -0.033 A 
HETATM    9  C4  LIG X 999      45.484 130.823  19.171  1.00  0.00     0.010 A 
HETATM   10  C5  LIG X 999      46.185 130.319  18.071  1.00  0.00     0.013 A 
HETATM   11  C6  LIG X 999      45.721 130.549  16.770  1.00  0.00    -0.026 A 
HETATM   12  C7  LIG X 999      46.420 130.046  15.661  1.00  0.00     0.012 A 
HETATM   13  C11 LIG X 999      44.539 131.303  16.573  1.00  0.00    -0.025 A 
HETATM   14  C8  LIG X 999      45.950 130.292  14.367  1.00  0.00     0.001 A 
HETATM   15  C9  LIG X 999      44.785 131.039  14.170  1.00  0.00     0.001 A 
HETATM   16  C10 LIG X 999      44.079 131.543  15.268  1.00  0.00     0.012 A 
HETATM   17  C12 LIG X 999      43.840 131.805  17.681  1.00  0.00     0.021 A 
ENDBRANCH   6   8
ENDBRANCH   1   6
BRANCH   3  18
HETATM   18  C15 LIG X 999      42.491 129.327  24.183  1.00  0.00     0.167 C 
BRANCH  18  19
HETATM   19  C16 LIG X 999      41.943 128.031  23.681  1.00  0.00     0.251 C 
HETATM   20  O1  LIG X 999      40.748 127.971  23.283  1.00  0.00    -0.271 OA
HETATM   21  N2  LIG X 999      42.787 126.873  23.659  1.00  0.00    -0.189 NA
BRANCH  21  22
HETATM   22  C17 LIG X 999      42.522 125.643  22.973  1.00  0.00     0.173 A 
HETATM   23  N3  LIG X 999      41.299 125.217  22.579  1.00  0.00    -0.344 N 
HETATM   24  C18 LIG X 999      41.362 124.043  21.896  1.00  0.00     0.097 A 
HETATM   25  H15 LIG X 999      40.403 125.725  22.738  1.00  0.00     0.167 HD
HETATM   26  C19 LIG X 999      42.646 123.535  21.723  1.00  0.00     0.070 A 
HETATM   27  S1  LIG X 999      43.730 124.599  22.450  1.00  0.00    -0.062 SA
ENDBRANCH  21  22
ENDBRANCH  18  19
ENDBRANCH   3  18
TORSDOF 5
