REMARK VINA RESULT:      -8.2      1.263      1.703
REMARK  5 active torsions:
REMARK  status: ('A' for Active; 'I' for Inactive)
REMARK    1  A    between atoms: C6_6  and  O1_7 
REMARK    2  A    between atoms: O1_7  and  C7_8 
REMARK    3  A    between atoms: C7_8  and  O3_10 
REMARK    4  A    between atoms: O3_10  and  C8_11 
REMARK    5  A    between atoms: C8_11  and  N1_12 
ROOT
HETATM    1  N1  LIG X 999      43.071 131.183  21.532  1.00  0.00    -0.089 NA
HETATM    2  N2  LIG X 999      42.791 131.467  22.697  1.00  0.00    -0.165 NA
HETATM    3  N3  LIG X 999      42.512 131.752  23.860  1.00  0.00     0.068 N 
ENDROOT
BRANCH   1   4
HETATM    4  C8  LIG X 999      42.786 132.114  20.454  1.00  0.00     0.370 C 
BRANCH   4   5
HETATM    5  O3  LIG X 999      43.995 132.425  19.771  1.00  0.00    -0.273 OA
BRANCH   5   6
HETATM    6  C7  LIG X 999      45.028 131.499  19.610  1.00  0.00     0.413 C 
HETATM    7  O2  LIG X 999      46.021 131.510  20.391  1.00  0.00    -0.229 OA
BRANCH   6   8
HETATM    8  O1  LIG X 999      44.969 130.602  18.537  1.00  0.00    -0.256 OA
BRANCH   8   9
HETATM    9  C6  LIG X 999      45.540 130.811  17.272  1.00  0.00     0.082 A 
HETATM   10  C5  LIG X 999      46.342 129.842  16.641  1.00  0.00     0.049 A 
HETATM   11  C4  LIG X 999      46.885 130.090  15.371  1.00  0.00    -0.023 A 
HETATM   12  C3  LIG X 999      47.692 129.131  14.737  1.00  0.00     0.012 A 
HETATM   13  C11 LIG X 999      46.612 131.316  14.717  1.00  0.00    -0.026 A 
HETATM   14  C2  LIG X 999      48.227 129.389  13.472  1.00  0.00     0.001 A 
HETATM   15  C1  LIG X 999      47.960 130.601  12.829  1.00  0.00     0.001 A 
HETATM   16  C12 LIG X 999      47.155 131.563  13.446  1.00  0.00     0.012 A 
HETATM   17  C10 LIG X 999      45.796 132.269  15.343  1.00  0.00     0.015 A 
HETATM   18  C9  LIG X 999      45.260 132.011  16.608  1.00  0.00     0.038 A 
ENDBRANCH   8   9
ENDBRANCH   6   8
ENDBRANCH   5   6
ENDBRANCH   4   5
ENDBRANCH   1   4
TORSDOF 5
