MODEL 1
REMARK VINA RESULT:      -7.1      0.000      0.000
REMARK  1 active torsions:
REMARK  status: ('A' for Active; 'I' for Inactive)
REMARK    1  A    between atoms: C7_7  and  N1_8 
ROOT
HETATM    1  N1  LIG X 999      45.565 131.737  17.431  1.00  0.00    -0.110 NA
HETATM    2  N2  LIG X 999      44.570 131.769  18.157  1.00  0.00    -0.167 NA
HETATM    3  N3  LIG X 999      43.577 131.800  18.882  1.00  0.00     0.068 N 
ENDROOT
BRANCH   1   4
HETATM    4  C7  LIG X 999      45.451 131.880  15.981  1.00  0.00     0.153 C 
HETATM    5  C6  LIG X 999      44.159 131.199  15.502  1.00  0.00     0.031 C 
HETATM    6  C5  LIG X 999      44.224 129.678  15.678  1.00  0.00     0.003 C 
HETATM    7  C4  LIG X 999      45.418 129.092  14.920  1.00  0.00     0.009 C 
HETATM    8  C3  LIG X 999      46.745 129.735  15.370  1.00  0.00     0.018 C 
HETATM    9  C2  LIG X 999      47.876 129.196  14.522  1.00  0.00    -0.021 C 
HETATM   10  C8  LIG X 999      46.698 131.288  15.271  1.00  0.00     0.043 C 
HETATM   11  C1  LIG X 999      48.215 129.797  13.375  1.00  0.00    -0.004 C 
HETATM   12  C10 LIG X 999      47.563 131.056  12.966  1.00  0.00    -0.004 C 
HETATM   13  C9  LIG X 999      46.796 131.735  13.827  1.00  0.00    -0.019 C 
ENDBRANCH   1   4
TORSDOF 1
ENDMDL
MODEL 2
REMARK VINA RESULT:      -5.7      2.872      4.708
REMARK  1 active torsions:
REMARK  status: ('A' for Active; 'I' for Inactive)
REMARK    1  A    between atoms: C7_7  and  N1_8 
ROOT
HETATM    1  N1  LIG X 999      46.780 131.601  14.830  1.00  0.00    -0.110 NA
HETATM    2  N2  LIG X 999      47.224 131.348  13.709  1.00  0.00    -0.167 NA
HETATM    3  N3  LIG X 999      47.666 131.097  12.589  1.00  0.00     0.068 N 
ENDROOT
BRANCH   1   4
HETATM    4  C7  LIG X 999      46.303 130.538  15.714  1.00  0.00     0.153 C 
HETATM    5  C6  LIG X 999      44.983 129.974  15.165  1.00  0.00     0.031 C 
HETATM    6  C5  LIG X 999      43.850 131.004  15.249  1.00  0.00     0.003 C 
HETATM    7  C4  LIG X 999      43.643 131.470  16.692  1.00  0.00     0.009 C 
HETATM    8  C3  LIG X 999      44.938 132.056  17.290  1.00  0.00     0.018 C 
HETATM    9  C2  LIG X 999      44.706 132.405  18.743  1.00  0.00    -0.021 C 
HETATM   10  C8  LIG X 999      46.132 131.066  17.163  1.00  0.00     0.043 C 
HETATM   11  C1  LIG X 999      44.918 131.500  19.705  1.00  0.00    -0.004 C 
HETATM   12  C10 LIG X 999      45.483 130.176  19.378  1.00  0.00    -0.004 C 
HETATM   13  C9  LIG X 999      46.000 129.939  18.167  1.00  0.00    -0.019 C 
ENDBRANCH   1   4
TORSDOF 1
ENDMDL
MODEL 3
REMARK VINA RESULT:      -4.8      6.524      7.868
REMARK  1 active torsions:
REMARK  status: ('A' for Active; 'I' for Inactive)
REMARK    1  A    between atoms: C7_7  and  N1_8 
ROOT
HETATM    1  N1  LIG X 999      43.272 128.537  23.503  1.00  0.00    -0.110 NA
HETATM    2  N2  LIG X 999      43.553 127.337  23.500  1.00  0.00    -0.167 NA
HETATM    3  N3  LIG X 999      43.835 126.140  23.499  1.00  0.00     0.068 N 
ENDROOT
BRANCH   1   4
HETATM    4  C7  LIG X 999      44.289 129.555  23.250  1.00  0.00     0.153 C 
HETATM    5  C6  LIG X 999      44.185 130.656  24.318  1.00  0.00     0.031 C 
HETATM    6  C5  LIG X 999      42.881 131.452  24.182  1.00  0.00     0.003 C 
HETATM    7  C4  LIG X 999      42.769 132.081  22.791  1.00  0.00     0.009 C 
HETATM    8  C3  LIG X 999      42.858 131.016  21.679  1.00  0.00     0.018 C 
HETATM    9  C2  LIG X 999      42.844 131.699  20.330  1.00  0.00    -0.021 C 
HETATM   10  C8  LIG X 999      44.136 130.140  21.820  1.00  0.00     0.043 C 
HETATM   11  C1  LIG X 999      43.984 132.096  19.754  1.00  0.00    -0.004 C 
HETATM   12  C10 LIG X 999      45.287 131.782  20.373  1.00  0.00    -0.004 C 
HETATM   13  C9  LIG X 999      45.364 130.912  21.387  1.00  0.00    -0.019 C 
ENDBRANCH   1   4
TORSDOF 1
ENDMDL
MODEL 4
REMARK VINA RESULT:      -4.7      6.155      7.809
REMARK  1 active torsions:
REMARK  status: ('A' for Active; 'I' for Inactive)
REMARK    1  A    between atoms: C7_7  and  N1_8 
ROOT
HETATM    1  N1  LIG X 999      43.196 131.665  19.620  1.00  0.00    -0.110 NA
HETATM    2  N2  LIG X 999      43.793 131.700  18.543  1.00  0.00    -0.167 NA
HETATM    3  N3  LIG X 999      44.390 131.733  17.468  1.00  0.00     0.068 N 
ENDROOT
BRANCH   1   4
HETATM    4  C7  LIG X 999      43.844 132.086  20.861  1.00  0.00     0.153 C 
HETATM    5  C6  LIG X 999      45.313 131.631  20.847  1.00  0.00     0.031 C 
HETATM    6  C5  LIG X 999      45.432 130.104  20.916  1.00  0.00     0.003 C 
HETATM    7  C4  LIG X 999      44.742 129.559  22.169  1.00  0.00     0.009 C 
HETATM    8  C3  LIG X 999      43.260 129.979  22.227  1.00  0.00     0.018 C 
HETATM    9  C2  LIG X 999      42.655 129.503  23.530  1.00  0.00    -0.021 C 
HETATM   10  C8  LIG X 999      43.090 131.520  22.093  1.00  0.00     0.043 C 
HETATM   11  C1  LIG X 999      42.700 130.271  24.624  1.00  0.00    -0.004 C 
HETATM   12  C10 LIG X 999      43.247 131.641  24.558  1.00  0.00    -0.004 C 
HETATM   13  C9  LIG X 999      43.494 132.216  23.376  1.00  0.00    -0.019 C 
ENDBRANCH   1   4
TORSDOF 1
ENDMDL
MODEL 5
REMARK VINA RESULT:      -4.3      8.260      9.555
REMARK  1 active torsions:
REMARK  status: ('A' for Active; 'I' for Inactive)
REMARK    1  A    between atoms: C7_7  and  N1_8 
ROOT
HETATM    1  N1  LIG X 999      49.680 135.825  22.215  1.00  0.00    -0.110 NA
HETATM    2  N2  LIG X 999      48.841 134.927  22.127  1.00  0.00    -0.167 NA
HETATM    3  N3  LIG X 999      48.005 134.030  22.040  1.00  0.00     0.068 N 
ENDROOT
BRANCH   1   4
HETATM    4  C7  LIG X 999      50.424 136.285  21.044  1.00  0.00     0.153 C 
HETATM    5  C6  LIG X 999      51.525 137.261  21.492  1.00  0.00     0.031 C 
HETATM    6  C5  LIG X 999      50.933 138.566  22.039  1.00  0.00     0.003 C 
HETATM    7  C4  LIG X 999      50.046 139.245  20.991  1.00  0.00     0.009 C 
HETATM    8  C3  LIG X 999      48.917 138.309  20.514  1.00  0.00     0.018 C 
HETATM    9  C2  LIG X 999      48.136 138.989  19.411  1.00  0.00    -0.021 C 
HETATM   10  C8  LIG X 999      49.471 136.944  20.013  1.00  0.00     0.043 C 
HETATM   11  C1  LIG X 999      48.505 138.855  18.132  1.00  0.00    -0.004 C 
HETATM   12  C10 LIG X 999      49.616 137.957  17.761  1.00  0.00    -0.004 C 
HETATM   13  C9  LIG X 999      50.122 137.098  18.654  1.00  0.00    -0.019 C 
ENDBRANCH   1   4
TORSDOF 1
ENDMDL
MODEL 6
REMARK VINA RESULT:      -4.2     11.070     11.828
REMARK  1 active torsions:
REMARK  status: ('A' for Active; 'I' for Inactive)
REMARK    1  A    between atoms: C7_7  and  N1_8 
ROOT
HETATM    1  N1  LIG X 999      36.390 137.198  10.276  1.00  0.00    -0.110 NA
HETATM    2  N2  LIG X 999      36.742 138.327  10.621  1.00  0.00    -0.167 NA
HETATM    3  N3  LIG X 999      37.094 139.455  10.964  1.00  0.00     0.068 N 
ENDROOT
BRANCH   1   4
HETATM    4  C7  LIG X 999      37.039 136.004  10.814  1.00  0.00     0.153 C 
HETATM    5  C6  LIG X 999      38.555 136.096  10.573  1.00  0.00     0.031 C 
HETATM    6  C5  LIG X 999      38.895 136.009   9.080  1.00  0.00     0.003 C 
HETATM    7  C4  LIG X 999      38.361 134.709   8.474  1.00  0.00     0.009 C 
HETATM    8  C3  LIG X 999      36.839 134.572   8.679  1.00  0.00     0.018 C 
HETATM    9  C2  LIG X 999      36.382 133.229   8.154  1.00  0.00    -0.021 C 
HETATM   10  C8  LIG X 999      36.443 134.721  10.177  1.00  0.00     0.043 C 
HETATM   11  C1  LIG X 999      36.377 132.151   8.947  1.00  0.00    -0.004 C 
HETATM   12  C10 LIG X 999      36.717 132.271  10.379  1.00  0.00    -0.004 C 
HETATM   13  C9  LIG X 999      36.813 133.475  10.955  1.00  0.00    -0.019 C 
ENDBRANCH   1   4
TORSDOF 1
ENDMDL
