REMARK VINA RESULT:      -6.2      1.574      2.575
REMARK  1 active torsions:
REMARK  status: ('A' for Active; 'I' for Inactive)
REMARK    1  A    between atoms: C14_14  and  N1_15 
ROOT
HETATM    1  N1  LIG X 999      42.175 132.093  20.631  1.00  0.00    -0.216 NA
HETATM    2  C15 LIG X 999      42.423 131.943  21.871  1.00  0.00     0.165 C 
HETATM    3  S1  LIG X 999      42.738 131.754  23.440  1.00  0.00    -0.055 SA
ENDROOT
BRANCH   1   4
HETATM    4  C14 LIG X 999      43.110 131.798  19.581  1.00  0.00     0.130 C 
HETATM    5  C13 LIG X 999      44.410 131.352  19.850  1.00  0.00     0.058 C 
HETATM    6  C11 LIG X 999      45.305 131.089  18.802  1.00  0.00    -0.045 C 
HETATM    7  C10 LIG X 999      44.835 131.142  17.452  1.00  0.00     0.008 C 
HETATM    8  C12 LIG X 999      46.752 130.918  19.194  1.00  0.00     0.049 C 
HETATM    9  C4  LIG X 999      45.569 130.690  16.304  1.00  0.00    -0.013 C 
HETATM   10  C9  LIG X 999      43.554 131.727  17.240  1.00  0.00     0.045 C 
HETATM   11  C3  LIG X 999      46.655 129.786  16.378  1.00  0.00     0.013 C 
HETATM   12  C5  LIG X 999      45.128 131.074  15.004  1.00  0.00    -0.025 C 
HETATM   13  C2  LIG X 999      47.371 129.421  15.236  1.00  0.00     0.001 C 
HETATM   14  C1  LIG X 999      46.995 129.906  13.986  1.00  0.00     0.001 C 
HETATM   15  C6  LIG X 999      45.866 130.712  13.865  1.00  0.00     0.012 C 
HETATM   16  C7  LIG X 999      43.926 131.767  14.846  1.00  0.00     0.014 C 
HETATM   17  C8  LIG X 999      43.124 132.039  15.944  1.00  0.00     0.031 C 
HETATM   18  N2  LIG X 999      42.736 132.011  18.293  1.00  0.00    -0.340 N 
HETATM   19  H11 LIG X 999      41.782 132.406  18.118  1.00  0.00     0.167 HD
ENDBRANCH   1   4
TORSDOF 1
