REMARK VINA RESULT:      -7.2      2.522      3.445
REMARK  1 active torsions:
REMARK  status: ('A' for Active; 'I' for Inactive)
REMARK    1  A    between atoms: C11_13  and  N2_14 
ROOT
HETATM    1  N2  LIG X 999      46.108 130.680  16.771  1.00  0.00    -0.053 NA
HETATM    2  N3  LIG X 999      45.704 129.809  15.999  1.00  0.00    -0.160 NA
HETATM    3  N4  LIG X 999      45.302 128.940  15.228  1.00  0.00     0.068 N 
ENDROOT
BRANCH   1   4
HETATM    4  C11 LIG X 999      45.509 130.866  18.054  1.00  0.00     0.175 A 
HETATM    5  C10 LIG X 999      44.246 131.396  18.273  1.00  0.00     0.026 A 
HETATM    6  C5  LIG X 999      44.089 131.391  19.618  1.00  0.00     0.017 A 
HETATM    7  C9  LIG X 999      43.233 131.877  17.444  1.00  0.00     0.016 A 
HETATM    8  C4  LIG X 999      45.205 130.880  20.194  1.00  0.00     0.046 A 
HETATM    9  C6  LIG X 999      42.967 131.835  20.284  1.00  0.00     0.005 A 
HETATM   10  C3  LIG X 999      45.305 130.758  21.658  1.00  0.00     0.033 A 
HETATM   11  N5  LIG X 999      46.102 130.547  19.240  1.00  0.00    -0.337 N 
HETATM   12  C2  LIG X 999      44.256 131.166  22.408  1.00  0.00     0.034 A 
HETATM   13  C1  LIG X 999      43.017 131.732  21.775  1.00  0.00     0.059 A 
HETATM   14  N1  LIG X 999      42.035 132.112  22.529  1.00  0.00    -0.300 NA
HETATM   15  H1  LIG X 999      41.147 132.514  22.155  1.00  0.00     0.187 HD
HETATM   16  H7  LIG X 999      47.049 130.132  19.387  1.00  0.00     0.167 HD
HETATM   17  C7  LIG X 999      41.913 132.332  19.481  1.00  0.00     0.015 A 
HETATM   18  C8  LIG X 999      42.051 132.349  18.065  1.00  0.00     0.002 A 
ENDBRANCH   1   4
TORSDOF 1
