REMARK VINA RESULT:      -7.6      1.046      5.799
REMARK  1 active torsions:
REMARK  status: ('A' for Active; 'I' for Inactive)
REMARK    1  A    between atoms: C9_10  and  N2_11 
ROOT
HETATM    1  C1  LIG X 999      43.010 129.950  22.747  1.00  0.00     0.272 C 
HETATM    2  N1  LIG X 999      43.739 131.128  22.219  1.00  0.00    -0.067 N 
HETATM    3  C2  LIG X 999      43.995 132.074  23.329  1.00  0.00     0.272 C 
HETATM    4  C3  LIG X 999      42.934 131.786  21.140  1.00  0.00     0.276 C 
HETATM    5  C4  LIG X 999      43.648 131.495  19.877  1.00  0.00    -0.024 A 
HETATM    6  C5  LIG X 999      43.247 131.802  18.577  1.00  0.00     0.021 A 
HETATM    7  C6  LIG X 999      44.096 131.453  17.509  1.00  0.00    -0.025 A 
HETATM    8  C7  LIG X 999      43.734 131.738  16.185  1.00  0.00     0.014 A 
HETATM    9  C8  LIG X 999      44.585 131.389  15.133  1.00  0.00     0.030 A 
HETATM   10  C9  LIG X 999      45.807 130.751  15.387  1.00  0.00     0.026 A 
HETATM   11  C10 LIG X 999      46.181 130.462  16.707  1.00  0.00     0.041 A 
HETATM   12  C11 LIG X 999      45.337 130.805  17.773  1.00  0.00    -0.023 A 
HETATM   13  C12 LIG X 999      45.708 130.519  19.102  1.00  0.00     0.021 A 
HETATM   14  C13 LIG X 999      44.834 130.875  20.131  1.00  0.00    -0.024 A 
HETATM   15  C14 LIG X 999      45.025 130.694  21.586  1.00  0.00     0.276 C 
ENDROOT
BRANCH  10  16
HETATM   16  N2  LIG X 999      46.671 130.399  14.303  1.00  0.00    -0.399 N 
HETATM   17  H12 LIG X 999      46.818 131.052  13.502  1.00  0.00     0.156 HD
HETATM   18  H13 LIG X 999      47.169 129.481  14.292  1.00  0.00     0.156 HD
ENDBRANCH  10  16
TORSDOF 1
