MODEL 1
REMARK VINA RESULT:      -4.8      0.000      0.000
REMARK  5 active torsions:
REMARK  status: ('A' for Active; 'I' for Inactive)
REMARK    1  A    between atoms: C3_3  and  N1_4 
REMARK    2  A    between atoms: N1_4  and  C6_7 
REMARK    3  A    between atoms: C6_7  and  C7_8 
REMARK    4  A    between atoms: C9_10  and  C10_11 
REMARK    5  A    between atoms: C11_14  and  N4_15 
ROOT
HETATM    1  C1  LIG X 999      45.203 131.139  18.611  1.00  0.00     0.013 C 
HETATM    2  C2  LIG X 999      44.683 131.448  19.653  1.00  0.00    -0.089 C 
HETATM    3  C3  LIG X 999      44.045 131.827  20.931  1.00  0.00     0.329 C 
ENDROOT
BRANCH   3   4
HETATM    4  N1  LIG X 999      44.119 130.761  21.978  1.00  0.00    -0.061 N 
HETATM    5  C4  LIG X 999      44.580 131.351  23.262  1.00  0.00     0.273 C 
HETATM    6  C5  LIG X 999      42.746 130.230  22.166  1.00  0.00     0.273 C 
BRANCH   4   7
HETATM    7  C6  LIG X 999      45.040 129.671  21.520  1.00  0.00     0.275 C 
BRANCH   7   8
HETATM    8  C7  LIG X 999      44.997 128.414  22.367  1.00  0.00    -0.035 C 
HETATM    9  C8  LIG X 999      45.269 127.211  21.826  1.00  0.00     0.001 C 
HETATM   10  C9  LIG X 999      45.112 125.935  22.640  1.00  0.00     0.054 C 
HETATM   11  C12 LIG X 999      45.976 124.792  22.048  1.00  0.00     0.023 C 
HETATM   12  C16 LIG X 999      45.512 126.217  24.128  1.00  0.00     0.028 C 
HETATM   13  C13 LIG X 999      47.478 125.030  22.236  1.00  0.00     0.002 C 
HETATM   14  C14 LIG X 999      47.812 125.213  23.717  1.00  0.00     0.001 C 
HETATM   15  C15 LIG X 999      47.037 126.395  24.301  1.00  0.00     0.010 C 
HETATM   16  C17 LIG X 999      44.821 127.467  24.624  1.00  0.00    -0.020 C 
HETATM   17  C18 LIG X 999      44.627 128.504  23.802  1.00  0.00     0.005 C 
BRANCH  10  18
HETATM   18  C10 LIG X 999      43.661 125.506  22.551  1.00  0.00     0.184 A 
HETATM   19  N2  LIG X 999      43.208 124.528  21.737  1.00  0.00    -0.124 NA
HETATM   20  N3  LIG X 999      41.907 124.425  21.956  1.00  0.00    -0.099 NA
HETATM   21  C11 LIG X 999      41.620 125.340  22.898  1.00  0.00     0.326 A 
HETATM   22  O1  LIG X 999      42.685 126.006  23.273  1.00  0.00    -0.255 OA
BRANCH  21  23
HETATM   23  N4  LIG X 999      40.310 125.552  23.420  1.00  0.00    -0.023 NA
HETATM   24  N5  LIG X 999      40.018 126.611  23.973  1.00  0.00    -0.158 NA
HETATM   25  N6  LIG X 999      39.724 127.670  24.528  1.00  0.00     0.068 N 
ENDBRANCH  21  23
ENDBRANCH  10  18
ENDBRANCH   7   8
ENDBRANCH   4   7
ENDBRANCH   3   4
TORSDOF 5
ENDMDL
MODEL 2
REMARK VINA RESULT:      -4.4      2.397      5.100
REMARK  5 active torsions:
REMARK  status: ('A' for Active; 'I' for Inactive)
REMARK    1  A    between atoms: C3_3  and  N1_4 
REMARK    2  A    between atoms: N1_4  and  C6_7 
REMARK    3  A    between atoms: C6_7  and  C7_8 
REMARK    4  A    between atoms: C9_10  and  C10_11 
REMARK    5  A    between atoms: C11_14  and  N4_15 
ROOT
HETATM    1  C1  LIG X 999      45.442 131.080  14.536  1.00  0.00     0.013 C 
HETATM    2  C2  LIG X 999      45.527 131.592  15.623  1.00  0.00    -0.089 C 
HETATM    3  C3  LIG X 999      45.632 132.220  16.957  1.00  0.00     0.329 C 
ENDROOT
BRANCH   3   4
HETATM    4  N1  LIG X 999      44.888 131.484  18.026  1.00  0.00    -0.061 N 
HETATM    5  C4  LIG X 999      43.442 131.430  17.685  1.00  0.00     0.273 C 
HETATM    6  C5  LIG X 999      45.419 130.098  18.060  1.00  0.00     0.273 C 
BRANCH   4   7
HETATM    7  C6  LIG X 999      45.109 132.158  19.346  1.00  0.00     0.275 C 
BRANCH   7   8
HETATM    8  C7  LIG X 999      44.366 131.525  20.508  1.00  0.00    -0.035 C 
HETATM    9  C8  LIG X 999      44.974 131.346  21.696  1.00  0.00     0.001 C 
HETATM   10  C9  LIG X 999      44.274 130.606  22.827  1.00  0.00     0.054 C 
HETATM   11  C12 LIG X 999      44.880 130.994  24.199  1.00  0.00     0.023 C 
HETATM   12  C16 LIG X 999      42.742 130.928  22.788  1.00  0.00     0.028 C 
HETATM   13  C13 LIG X 999      44.555 132.437  24.601  1.00  0.00     0.002 C 
HETATM   14  C14 LIG X 999      43.043 132.661  24.625  1.00  0.00     0.001 C 
HETATM   15  C15 LIG X 999      42.435 132.370  23.252  1.00  0.00     0.010 C 
HETATM   16  C17 LIG X 999      42.209 130.750  21.384  1.00  0.00    -0.020 C 
HETATM   17  C18 LIG X 999      42.963 131.076  20.328  1.00  0.00     0.005 C 
BRANCH  10  18
HETATM   18  C10 LIG X 999      44.511 129.123  22.624  1.00  0.00     0.184 A 
HETATM   19  N2  LIG X 999      45.450 128.610  21.799  1.00  0.00    -0.124 NA
HETATM   20  N3  LIG X 999      45.372 127.293  21.908  1.00  0.00    -0.099 NA
HETATM   21  C11 LIG X 999      44.393 127.056  22.798  1.00  0.00     0.326 A 
HETATM   22  O1  LIG X 999      43.861 128.167  23.247  1.00  0.00    -0.255 OA
BRANCH  21  23
HETATM   23  N4  LIG X 999      43.992 125.749  23.200  1.00  0.00    -0.023 NA
HETATM   24  N5  LIG X 999      43.315 125.042  22.454  1.00  0.00    -0.158 NA
HETATM   25  N6  LIG X 999      42.637 124.335  21.709  1.00  0.00     0.068 N 
ENDBRANCH  21  23
ENDBRANCH  10  18
ENDBRANCH   7   8
ENDBRANCH   4   7
ENDBRANCH   3   4
TORSDOF 5
ENDMDL
MODEL 3
REMARK VINA RESULT:      -4.2      4.055      7.839
REMARK  5 active torsions:
REMARK  status: ('A' for Active; 'I' for Inactive)
REMARK    1  A    between atoms: C3_3  and  N1_4 
REMARK    2  A    between atoms: N1_4  and  C6_7 
REMARK    3  A    between atoms: C6_7  and  C7_8 
REMARK    4  A    between atoms: C9_10  and  C10_11 
REMARK    5  A    between atoms: C11_14  and  N4_15 
ROOT
HETATM    1  C1  LIG X 999      43.767 132.372  24.544  1.00  0.00     0.013 C 
HETATM    2  C2  LIG X 999      44.153 131.238  24.416  1.00  0.00    -0.089 C 
HETATM    3  C3  LIG X 999      44.628 129.847  24.260  1.00  0.00     0.329 C 
ENDROOT
BRANCH   3   4
HETATM    4  N1  LIG X 999      44.092 129.164  23.042  1.00  0.00    -0.061 N 
HETATM    5  C4  LIG X 999      43.750 127.754  23.366  1.00  0.00     0.273 C 
HETATM    6  C5  LIG X 999      42.850 129.874  22.647  1.00  0.00     0.273 C 
BRANCH   4   7
HETATM    7  C6  LIG X 999      45.105 129.236  21.939  1.00  0.00     0.275 C 
BRANCH   7   8
HETATM    8  C7  LIG X 999      44.923 130.408  20.994  1.00  0.00    -0.035 C 
HETATM    9  C8  LIG X 999      44.012 130.357  20.003  1.00  0.00     0.001 C 
HETATM   10  C9  LIG X 999      43.907 131.478  18.981  1.00  0.00     0.054 C 
HETATM   11  C12 LIG X 999      42.504 131.495  18.322  1.00  0.00     0.023 C 
HETATM   12  C16 LIG X 999      44.204 132.848  19.681  1.00  0.00     0.028 C 
HETATM   13  C13 LIG X 999      41.401 131.931  19.291  1.00  0.00     0.002 C 
HETATM   14  C14 LIG X 999      41.711 133.310  19.874  1.00  0.00     0.001 C 
HETATM   15  C15 LIG X 999      43.052 133.294  20.609  1.00  0.00     0.010 C 
HETATM   16  C17 LIG X 999      45.471 132.748  20.500  1.00  0.00    -0.020 C 
HETATM   17  C18 LIG X 999      45.772 131.616  21.145  1.00  0.00     0.005 C 
BRANCH  10  18
HETATM   18  C10 LIG X 999      44.923 131.207  17.890  1.00  0.00     0.184 A 
HETATM   19  N2  LIG X 999      45.754 130.142  17.877  1.00  0.00    -0.124 NA
HETATM   20  N3  LIG X 999      46.467 130.233  16.765  1.00  0.00    -0.099 NA
HETATM   21  C11 LIG X 999      46.039 131.345  16.145  1.00  0.00     0.326 A 
HETATM   22  O1  LIG X 999      45.092 131.949  16.820  1.00  0.00    -0.255 OA
BRANCH  21  23
HETATM   23  N4  LIG X 999      46.560 131.804  14.899  1.00  0.00    -0.023 NA
HETATM   24  N5  LIG X 999      47.143 131.033  14.138  1.00  0.00    -0.158 NA
HETATM   25  N6  LIG X 999      47.727 130.262  13.377  1.00  0.00     0.068 N 
ENDBRANCH  21  23
ENDBRANCH  10  18
ENDBRANCH   7   8
ENDBRANCH   4   7
ENDBRANCH   3   4
TORSDOF 5
ENDMDL
MODEL 4
REMARK VINA RESULT:      -3.6      2.677      5.529
REMARK  5 active torsions:
REMARK  status: ('A' for Active; 'I' for Inactive)
REMARK    1  A    between atoms: C3_3  and  N1_4 
REMARK    2  A    between atoms: N1_4  and  C6_7 
REMARK    3  A    between atoms: C6_7  and  C7_8 
REMARK    4  A    between atoms: C9_10  and  C10_11 
REMARK    5  A    between atoms: C11_14  and  N4_15 
ROOT
HETATM    1  C1  LIG X 999      45.203 130.978  14.568  1.00  0.00     0.013 C 
HETATM    2  C2  LIG X 999      45.360 131.481  15.652  1.00  0.00    -0.089 C 
HETATM    3  C3  LIG X 999      45.552 132.097  16.981  1.00  0.00     0.329 C 
ENDROOT
BRANCH   3   4
HETATM    4  N1  LIG X 999      44.806 131.404  18.077  1.00  0.00    -0.061 N 
HETATM    5  C4  LIG X 999      43.344 131.485  17.819  1.00  0.00     0.273 C 
HETATM    6  C5  LIG X 999      45.212 129.976  18.053  1.00  0.00     0.273 C 
BRANCH   4   7
HETATM    7  C6  LIG X 999      45.160 132.023  19.395  1.00  0.00     0.275 C 
BRANCH   7   8
HETATM    8  C7  LIG X 999      44.390 131.466  20.578  1.00  0.00    -0.035 C 
HETATM    9  C8  LIG X 999      44.983 131.329  21.780  1.00  0.00     0.001 C 
HETATM   10  C9  LIG X 999      44.254 130.663  22.938  1.00  0.00     0.054 C 
HETATM   11  C12 LIG X 999      44.858 131.101  24.296  1.00  0.00     0.023 C 
HETATM   12  C16 LIG X 999      42.731 131.023  22.868  1.00  0.00     0.028 C 
HETATM   13  C13 LIG X 999      44.568 132.569  24.625  1.00  0.00     0.002 C 
HETATM   14  C14 LIG X 999      43.062 132.833  24.623  1.00  0.00     0.001 C 
HETATM   15  C15 LIG X 999      42.458 132.492  23.260  1.00  0.00     0.010 C 
HETATM   16  C17 LIG X 999      42.206 130.791  21.470  1.00  0.00    -0.020 C 
HETATM   17  C18 LIG X 999      42.978 131.045  20.407  1.00  0.00     0.005 C 
BRANCH  10  18
HETATM   18  C10 LIG X 999      44.454 129.166  22.809  1.00  0.00     0.184 A 
HETATM   19  N2  LIG X 999      43.633 128.242  23.355  1.00  0.00    -0.124 NA
HETATM   20  N3  LIG X 999      44.113 127.058  23.009  1.00  0.00    -0.099 NA
HETATM   21  C11 LIG X 999      45.202 127.307  22.262  1.00  0.00     0.326 A 
HETATM   22  O1  LIG X 999      45.420 128.593  22.129  1.00  0.00    -0.255 OA
BRANCH  21  23
HETATM   23  N4  LIG X 999      46.015 126.287  21.687  1.00  0.00    -0.023 NA
HETATM   24  N5  LIG X 999      47.016 125.875  22.273  1.00  0.00    -0.158 NA
HETATM   25  N6  LIG X 999      48.017 125.464  22.858  1.00  0.00     0.068 N 
ENDBRANCH  21  23
ENDBRANCH  10  18
ENDBRANCH   7   8
ENDBRANCH   4   7
ENDBRANCH   3   4
TORSDOF 5
ENDMDL
MODEL 5
REMARK VINA RESULT:      -2.8      5.415      7.897
REMARK  5 active torsions:
REMARK  status: ('A' for Active; 'I' for Inactive)
REMARK    1  A    between atoms: C3_3  and  N1_4 
REMARK    2  A    between atoms: N1_4  and  C6_7 
REMARK    3  A    between atoms: C6_7  and  C7_8 
REMARK    4  A    between atoms: C9_10  and  C10_11 
REMARK    5  A    between atoms: C11_14  and  N4_15 
ROOT
HETATM    1  C1  LIG X 999      47.115 131.318  13.880  1.00  0.00     0.013 C 
HETATM    2  C2  LIG X 999      46.518 131.673  14.865  1.00  0.00    -0.089 C 
HETATM    3  C3  LIG X 999      45.786 132.108  16.073  1.00  0.00     0.329 C 
ENDROOT
BRANCH   3   4
HETATM    4  N1  LIG X 999      44.533 131.331  16.327  1.00  0.00    -0.061 N 
HETATM    5  C4  LIG X 999      43.626 131.443  15.155  1.00  0.00     0.273 C 
HETATM    6  C5  LIG X 999      44.922 129.907  16.491  1.00  0.00     0.273 C 
BRANCH   4   7
HETATM    7  C6  LIG X 999      43.873 131.836  17.574  1.00  0.00     0.275 C 
BRANCH   7   8
HETATM    8  C7  LIG X 999      44.613 131.504  18.856  1.00  0.00    -0.035 C 
HETATM    9  C8  LIG X 999      44.198 132.002  20.037  1.00  0.00     0.001 C 
HETATM   10  C9  LIG X 999      45.002 131.771  21.308  1.00  0.00     0.054 C 
HETATM   11  C12 LIG X 999      44.106 131.923  22.564  1.00  0.00     0.023 C 
HETATM   12  C16 LIG X 999      45.648 130.344  21.260  1.00  0.00     0.028 C 
HETATM   13  C13 LIG X 999      43.084 130.791  22.701  1.00  0.00     0.002 C 
HETATM   14  C14 LIG X 999      43.785 129.433  22.732  1.00  0.00     0.001 C 
HETATM   15  C15 LIG X 999      44.605 129.221  21.458  1.00  0.00     0.010 C 
HETATM   16  C17 LIG X 999      46.338 130.131  19.932  1.00  0.00    -0.020 C 
HETATM   17  C18 LIG X 999      45.819 130.642  18.809  1.00  0.00     0.005 C 
BRANCH  10  18
HETATM   18  C10 LIG X 999      46.075 132.838  21.377  1.00  0.00     0.184 A 
HETATM   19  N2  LIG X 999      46.119 133.922  20.571  1.00  0.00    -0.124 NA
HETATM   20  N3  LIG X 999      47.174 134.629  20.946  1.00  0.00    -0.099 NA
HETATM   21  C11 LIG X 999      47.726 133.951  21.967  1.00  0.00     0.326 A 
HETATM   22  O1  LIG X 999      47.061 132.856  22.243  1.00  0.00    -0.255 OA
BRANCH  21  23
HETATM   23  N4  LIG X 999      48.895 134.383  22.660  1.00  0.00    -0.023 NA
HETATM   24  N5  LIG X 999      49.544 135.348  22.258  1.00  0.00    -0.158 NA
HETATM   25  N6  LIG X 999      50.195 136.312  21.856  1.00  0.00     0.068 N 
ENDBRANCH  21  23
ENDBRANCH  10  18
ENDBRANCH   7   8
ENDBRANCH   4   7
ENDBRANCH   3   4
TORSDOF 5
ENDMDL
MODEL 6
REMARK VINA RESULT:      -2.3      4.909      7.269
REMARK  5 active torsions:
REMARK  status: ('A' for Active; 'I' for Inactive)
REMARK    1  A    between atoms: C3_3  and  N1_4 
REMARK    2  A    between atoms: N1_4  and  C6_7 
REMARK    3  A    between atoms: C6_7  and  C7_8 
REMARK    4  A    between atoms: C9_10  and  C10_11 
REMARK    5  A    between atoms: C11_14  and  N4_15 
ROOT
HETATM    1  C1  LIG X 999      49.644 136.792  20.473  1.00  0.00     0.013 C 
HETATM    2  C2  LIG X 999      48.738 136.226  21.031  1.00  0.00    -0.089 C 
HETATM    3  C3  LIG X 999      47.628 135.531  21.715  1.00  0.00     0.329 C 
ENDROOT
BRANCH   3   4
HETATM    4  N1  LIG X 999      48.049 134.286  22.430  1.00  0.00    -0.061 N 
HETATM    5  C4  LIG X 999      49.351 134.515  23.111  1.00  0.00     0.273 C 
HETATM    6  C5  LIG X 999      47.019 133.999  23.460  1.00  0.00     0.273 C 
BRANCH   4   7
HETATM    7  C6  LIG X 999      48.138 133.153  21.454  1.00  0.00     0.275 C 
BRANCH   7   8
HETATM    8  C7  LIG X 999      46.800 132.565  21.048  1.00  0.00    -0.035 C 
HETATM    9  C8  LIG X 999      46.651 131.235  20.901  1.00  0.00     0.001 C 
HETATM   10  C9  LIG X 999      45.347 130.648  20.380  1.00  0.00     0.054 C 
HETATM   11  C12 LIG X 999      45.196 129.167  20.810  1.00  0.00     0.023 C 
HETATM   12  C16 LIG X 999      44.145 131.503  20.911  1.00  0.00     0.028 C 
HETATM   13  C13 LIG X 999      44.961 129.010  22.316  1.00  0.00     0.002 C 
HETATM   14  C14 LIG X 999      43.727 129.800  22.753  1.00  0.00     0.001 C 
HETATM   15  C15 LIG X 999      43.892 131.283  22.420  1.00  0.00     0.010 C 
HETATM   16  C17 LIG X 999      44.410 132.972  20.675  1.00  0.00    -0.020 C 
HETATM   17  C18 LIG X 999      45.649 133.464  20.787  1.00  0.00     0.005 C 
BRANCH  10  18
HETATM   18  C10 LIG X 999      45.396 130.683  18.866  1.00  0.00     0.184 A 
HETATM   19  N2  LIG X 999      44.566 131.421  18.098  1.00  0.00    -0.124 NA
HETATM   20  N3  LIG X 999      44.929 131.214  16.841  1.00  0.00    -0.099 NA
HETATM   21  C11 LIG X 999      45.968 130.363  16.895  1.00  0.00     0.326 A 
HETATM   22  O1  LIG X 999      46.267 130.033  18.128  1.00  0.00    -0.255 OA
BRANCH  21  23
HETATM   23  N4  LIG X 999      46.656 129.884  15.742  1.00  0.00    -0.023 NA
HETATM   24  N5  LIG X 999      46.906 130.636  14.801  1.00  0.00    -0.158 NA
HETATM   25  N6  LIG X 999      47.155 131.387  13.859  1.00  0.00     0.068 N 
ENDBRANCH  21  23
ENDBRANCH  10  18
ENDBRANCH   7   8
ENDBRANCH   4   7
ENDBRANCH   3   4
TORSDOF 5
ENDMDL
