REMARK VINA RESULT:      -6.6      3.214      6.329
REMARK  1 active torsions:
REMARK  status: ('A' for Active; 'I' for Inactive)
REMARK    1  A    between atoms: C10_11  and  N2_12 
ROOT
HETATM    1  N2  LIG X 999      42.984 131.072  23.786  1.00  0.00    -0.052 NA
HETATM    2  N3  LIG X 999      42.343 130.106  24.205  1.00  0.00    -0.160 NA
HETATM    3  N4  LIG X 999      41.704 129.143  24.624  1.00  0.00     0.068 N 
ENDROOT
BRANCH   1   4
HETATM    4  C10 LIG X 999      43.257 131.266  22.393  1.00  0.00     0.186 C 
HETATM    5  N1  LIG X 999      44.420 130.795  21.885  1.00  0.00    -0.226 NA
HETATM    6  C9  LIG X 999      44.748 130.912  20.572  1.00  0.00     0.071 C 
HETATM    7  C8  LIG X 999      45.997 130.453  20.158  1.00  0.00     0.033 C 
HETATM    8  C14 LIG X 999      43.845 131.511  19.649  1.00  0.00     0.010 C 
HETATM    9  C7  LIG X 999      46.382 130.557  18.829  1.00  0.00     0.014 C 
HETATM   10  C5  LIG X 999      45.479 131.022  17.868  1.00  0.00    -0.025 C 
HETATM   11  C4  LIG X 999      44.172 131.443  18.253  1.00  0.00    -0.013 C 
HETATM   12  C6  LIG X 999      45.856 131.016  16.514  1.00  0.00     0.012 C 
HETATM   13  C3  LIG X 999      43.234 131.669  17.218  1.00  0.00     0.013 C 
HETATM   14  C2  LIG X 999      43.620 131.645  15.875  1.00  0.00     0.001 C 
HETATM   15  C1  LIG X 999      44.933 131.347  15.526  1.00  0.00     0.001 C 
HETATM   16  C12 LIG X 999      42.700 132.167  20.204  1.00  0.00    -0.045 C 
HETATM   17  C11 LIG X 999      42.387 131.976  21.560  1.00  0.00     0.063 C 
HETATM   18  C13 LIG X 999      41.866 133.190  19.469  1.00  0.00     0.049 C 
ENDBRANCH   1   4
TORSDOF 1
