MODEL 1
REMARK VINA RESULT:      -4.8      0.000      0.000
REMARK  6 active torsions:
REMARK  status: ('A' for Active; 'I' for Inactive)
REMARK    1  A    between atoms: C8_8  and  O1_9 
REMARK    2  A    between atoms: O1_9  and  C9_10 
REMARK    3  A    between atoms: C9_10  and  C10_11 
REMARK    4  A    between atoms: C10_11  and  C11_12 
REMARK    5  A    between atoms: C11_12  and  N1_13 
REMARK    6  A    between atoms: C13_18  and  N4_19 
ROOT
HETATM    1  N1  LIG X 999      43.461 131.676  20.777  1.00  0.00    -0.116 NA
HETATM    2  N2  LIG X 999      44.140 131.659  19.750  1.00  0.00    -0.168 NA
HETATM    3  N3  LIG X 999      44.818 131.646  18.723  1.00  0.00     0.068 N 
ENDROOT
BRANCH   1   4
HETATM    4  C11 LIG X 999      44.038 131.320  22.070  1.00  0.00     0.191 C 
BRANCH   4   5
HETATM    5  C10 LIG X 999      44.701 129.934  22.039  1.00  0.00     0.051 C 
BRANCH   5   6
HETATM    6  C9  LIG X 999      44.399 129.103  23.289  1.00  0.00     0.170 C 
BRANCH   6   7
HETATM    7  O1  LIG X 999      44.538 127.731  22.990  1.00  0.00    -0.384 OA
BRANCH   7   8
HETATM    8  C8  LIG X 999      44.557 126.948  24.173  1.00  0.00     0.146 C 
HETATM    9  C7  LIG X 999      43.138 126.461  24.493  1.00  0.00     0.072 C 
HETATM   10  C5  LIG X 999      42.628 125.475  23.470  1.00  0.00    -0.047 A 
HETATM   11  C4  LIG X 999      43.515 124.693  22.687  1.00  0.00    -0.023 A 
HETATM   12  C6  LIG X 999      41.242 125.283  23.347  1.00  0.00     0.008 A 
HETATM   13  C3  LIG X 999      42.980 123.793  21.746  1.00  0.00     0.010 A 
HETATM   14  C13 LIG X 999      45.021 124.892  22.746  1.00  0.00     0.199 C 
HETATM   15  C2  LIG X 999      41.599 123.626  21.625  1.00  0.00     0.001 A 
HETATM   16  C1  LIG X 999      40.732 124.365  22.429  1.00  0.00     0.001 A 
HETATM   17  C12 LIG X 999      45.468 125.731  23.962  1.00  0.00     0.143 C 
HETATM   18 CL1  LIG X 999      47.159 126.272  23.745  1.00  0.00    -0.120 Cl
BRANCH  14  19
HETATM   19  N4  LIG X 999      45.690 123.593  22.798  1.00  0.00    -0.104 NA
HETATM   20  N5  LIG X 999      46.595 123.312  22.012  1.00  0.00    -0.167 NA
HETATM   21  N6  LIG X 999      47.499 123.030  21.227  1.00  0.00     0.068 N 
ENDBRANCH  14  19
ENDBRANCH   7   8
ENDBRANCH   6   7
ENDBRANCH   5   6
ENDBRANCH   4   5
ENDBRANCH   1   4
TORSDOF 6
ENDMDL
MODEL 2
REMARK VINA RESULT:      -4.7      3.521      7.826
REMARK  6 active torsions:
REMARK  status: ('A' for Active; 'I' for Inactive)
REMARK    1  A    between atoms: C8_8  and  O1_9 
REMARK    2  A    between atoms: O1_9  and  C9_10 
REMARK    3  A    between atoms: C9_10  and  C10_11 
REMARK    4  A    between atoms: C10_11  and  C11_12 
REMARK    5  A    between atoms: C11_12  and  N1_13 
REMARK    6  A    between atoms: C13_18  and  N4_19 
ROOT
HETATM    1  N1  LIG X 999      43.322 126.493  23.402  1.00  0.00    -0.116 NA
HETATM    2  N2  LIG X 999      42.535 125.564  23.221  1.00  0.00    -0.168 NA
HETATM    3  N3  LIG X 999      41.747 124.638  23.037  1.00  0.00     0.068 N 
ENDROOT
BRANCH   1   4
HETATM    4  C11 LIG X 999      44.748 126.339  23.134  1.00  0.00     0.191 C 
BRANCH   4   5
HETATM    5  C10 LIG X 999      45.336 127.574  22.433  1.00  0.00     0.051 C 
BRANCH   5   6
HETATM    6  C9  LIG X 999      44.564 128.857  22.747  1.00  0.00     0.170 C 
BRANCH   6   7
HETATM    7  O1  LIG X 999      44.362 129.590  21.557  1.00  0.00    -0.384 OA
BRANCH   7   8
HETATM    8  C8  LIG X 999      44.971 130.869  21.633  1.00  0.00     0.146 C 
HETATM    9  C7  LIG X 999      45.946 131.047  20.462  1.00  0.00     0.072 C 
HETATM   10  C5  LIG X 999      45.235 131.115  19.132  1.00  0.00    -0.047 A 
HETATM   11  C4  LIG X 999      43.884 131.533  19.034  1.00  0.00    -0.023 A 
HETATM   12  C6  LIG X 999      45.957 130.824  17.963  1.00  0.00     0.008 A 
HETATM   13  C3  LIG X 999      43.273 131.571  17.766  1.00  0.00     0.010 A 
HETATM   14  C13 LIG X 999      43.043 131.815  20.268  1.00  0.00     0.199 C 
HETATM   15  C2  LIG X 999      44.001 131.263  16.615  1.00  0.00     0.001 A 
HETATM   16  C1  LIG X 999      45.342 130.896  16.713  1.00  0.00     0.001 A 
HETATM   17  C12 LIG X 999      43.888 131.953  21.552  1.00  0.00     0.143 C 
HETATM   18 CL1  LIG X 999      42.833 131.863  22.994  1.00  0.00    -0.120 Cl
BRANCH  14  19
HETATM   19  N4  LIG X 999      42.276 133.045  20.074  1.00  0.00    -0.104 NA
HETATM   20  N5  LIG X 999      41.337 133.333  20.816  1.00  0.00    -0.167 NA
HETATM   21  N6  LIG X 999      40.398 133.622  21.557  1.00  0.00     0.068 N 
ENDBRANCH  14  19
ENDBRANCH   7   8
ENDBRANCH   6   7
ENDBRANCH   5   6
ENDBRANCH   4   5
ENDBRANCH   1   4
TORSDOF 6
ENDMDL
MODEL 3
REMARK VINA RESULT:      -4.5      1.870      2.537
REMARK  6 active torsions:
REMARK  status: ('A' for Active; 'I' for Inactive)
REMARK    1  A    between atoms: C8_8  and  O1_9 
REMARK    2  A    between atoms: O1_9  and  C9_10 
REMARK    3  A    between atoms: C9_10  and  C10_11 
REMARK    4  A    between atoms: C10_11  and  C11_12 
REMARK    5  A    between atoms: C11_12  and  N1_13 
REMARK    6  A    between atoms: C13_18  and  N4_19 
ROOT
HETATM    1  N1  LIG X 999      43.308 131.851  20.166  1.00  0.00    -0.116 NA
HETATM    2  N2  LIG X 999      43.323 131.790  18.936  1.00  0.00    -0.168 NA
HETATM    3  N3  LIG X 999      43.337 131.732  17.707  1.00  0.00     0.068 N 
ENDROOT
BRANCH   1   4
HETATM    4  C11 LIG X 999      44.511 131.591  20.950  1.00  0.00     0.191 C 
BRANCH   4   5
HETATM    5  C10 LIG X 999      44.184 130.937  22.302  1.00  0.00     0.051 C 
BRANCH   5   6
HETATM    6  C9  LIG X 999      42.782 130.323  22.340  1.00  0.00     0.170 C 
BRANCH   6   7
HETATM    7  O1  LIG X 999      42.872 128.964  22.709  1.00  0.00    -0.384 OA
BRANCH   7   8
HETATM    8  C8  LIG X 999      42.867 128.814  24.119  1.00  0.00     0.146 C 
HETATM    9  C7  LIG X 999      41.422 128.723  24.625  1.00  0.00     0.072 C 
HETATM   10  C5  LIG X 999      40.736 127.458  24.171  1.00  0.00    -0.047 A 
HETATM   11  C4  LIG X 999      41.473 126.292  23.839  1.00  0.00    -0.023 A 
HETATM   12  C6  LIG X 999      39.332 127.420  24.147  1.00  0.00     0.008 A 
HETATM   13  C3  LIG X 999      40.778 125.143  23.418  1.00  0.00     0.010 A 
HETATM   14  C13 LIG X 999      42.993 126.292  23.803  1.00  0.00     0.199 C 
HETATM   15  C2  LIG X 999      39.382 125.128  23.385  1.00  0.00     0.001 A 
HETATM   16  C1  LIG X 999      38.661 126.262  23.755  1.00  0.00     0.001 A 
HETATM   17  C12 LIG X 999      43.611 127.525  24.495  1.00  0.00     0.143 C 
HETATM   18 CL1  LIG X 999      45.339 127.673  24.057  1.00  0.00    -0.120 Cl
BRANCH  14  19
HETATM   19  N4  LIG X 999      43.502 125.083  24.450  1.00  0.00    -0.104 NA
HETATM   20  N5  LIG X 999      44.435 124.445  23.961  1.00  0.00    -0.167 NA
HETATM   21  N6  LIG X 999      45.366 123.806  23.472  1.00  0.00     0.068 N 
ENDBRANCH  14  19
ENDBRANCH   7   8
ENDBRANCH   6   7
ENDBRANCH   5   6
ENDBRANCH   4   5
ENDBRANCH   1   4
TORSDOF 6
ENDMDL
MODEL 4
REMARK VINA RESULT:      -4.4      3.435      7.934
REMARK  6 active torsions:
REMARK  status: ('A' for Active; 'I' for Inactive)
REMARK    1  A    between atoms: C8_8  and  O1_9 
REMARK    2  A    between atoms: O1_9  and  C9_10 
REMARK    3  A    between atoms: C9_10  and  C10_11 
REMARK    4  A    between atoms: C10_11  and  C11_12 
REMARK    5  A    between atoms: C11_12  and  N1_13 
REMARK    6  A    between atoms: C13_18  and  N4_19 
ROOT
HETATM    1  N1  LIG X 999      46.698 125.522  22.958  1.00  0.00    -0.116 NA
HETATM    2  N2  LIG X 999      47.755 125.686  23.567  1.00  0.00    -0.168 NA
HETATM    3  N3  LIG X 999      48.814 125.851  24.172  1.00  0.00     0.068 N 
ENDROOT
BRANCH   1   4
HETATM    4  C11 LIG X 999      45.542 126.377  23.208  1.00  0.00     0.191 C 
BRANCH   4   5
HETATM    5  C10 LIG X 999      45.331 127.399  22.079  1.00  0.00     0.051 C 
BRANCH   5   6
HETATM    6  C9  LIG X 999      44.759 128.727  22.581  1.00  0.00     0.170 C 
BRANCH   6   7
HETATM    7  O1  LIG X 999      44.415 129.539  21.479  1.00  0.00    -0.384 OA
BRANCH   7   8
HETATM    8  C8  LIG X 999      45.021 130.819  21.576  1.00  0.00     0.146 C 
HETATM    9  C7  LIG X 999      46.010 131.010  20.420  1.00  0.00     0.072 C 
HETATM   10  C5  LIG X 999      45.317 131.090  19.081  1.00  0.00    -0.047 A 
HETATM   11  C4  LIG X 999      43.966 131.507  18.969  1.00  0.00    -0.023 A 
HETATM   12  C6  LIG X 999      46.056 130.812  17.919  1.00  0.00     0.008 A 
HETATM   13  C3  LIG X 999      43.373 131.558  17.694  1.00  0.00     0.010 A 
HETATM   14  C13 LIG X 999      43.109 131.775  20.195  1.00  0.00     0.199 C 
HETATM   15  C2  LIG X 999      44.117 131.263  16.550  1.00  0.00     0.001 A 
HETATM   16  C1  LIG X 999      45.457 130.897  16.662  1.00  0.00     0.001 A 
HETATM   17  C12 LIG X 999      43.936 131.902  21.492  1.00  0.00     0.143 C 
HETATM   18 CL1  LIG X 999      42.863 131.795  22.919  1.00  0.00    -0.120 Cl
BRANCH  14  19
HETATM   19  N4  LIG X 999      42.343 133.006  20.003  1.00  0.00    -0.104 NA
HETATM   20  N5  LIG X 999      41.422 133.308  20.764  1.00  0.00    -0.167 NA
HETATM   21  N6  LIG X 999      40.502 133.609  21.523  1.00  0.00     0.068 N 
ENDBRANCH  14  19
ENDBRANCH   7   8
ENDBRANCH   6   7
ENDBRANCH   5   6
ENDBRANCH   4   5
ENDBRANCH   1   4
TORSDOF 6
ENDMDL
MODEL 5
REMARK VINA RESULT:      -3.9      2.937      4.286
REMARK  6 active torsions:
REMARK  status: ('A' for Active; 'I' for Inactive)
REMARK    1  A    between atoms: C8_8  and  O1_9 
REMARK    2  A    between atoms: O1_9  and  C9_10 
REMARK    3  A    between atoms: C9_10  and  C10_11 
REMARK    4  A    between atoms: C10_11  and  C11_12 
REMARK    5  A    between atoms: C11_12  and  N1_13 
REMARK    6  A    between atoms: C13_18  and  N4_19 
ROOT
HETATM    1  N1  LIG X 999      44.553 131.749  17.720  1.00  0.00    -0.116 NA
HETATM    2  N2  LIG X 999      45.360 130.964  17.223  1.00  0.00    -0.168 NA
HETATM    3  N3  LIG X 999      46.168 130.179  16.730  1.00  0.00     0.068 N 
ENDROOT
BRANCH   1   4
HETATM    4  C11 LIG X 999      43.119 131.607  17.489  1.00  0.00     0.191 C 
BRANCH   4   5
HETATM    5  C10 LIG X 999      42.305 131.844  18.770  1.00  0.00     0.051 C 
BRANCH   5   6
HETATM    6  C9  LIG X 999      43.187 132.127  19.989  1.00  0.00     0.170 C 
BRANCH   6   7
HETATM    7  O1  LIG X 999      42.929 131.168  20.992  1.00  0.00    -0.384 OA
BRANCH   7   8
HETATM    8  C8  LIG X 999      43.690 131.430  22.161  1.00  0.00     0.146 C 
HETATM    9  C7  LIG X 999      42.808 131.251  23.403  1.00  0.00     0.072 C 
HETATM   10  C5  LIG X 999      42.397 129.814  23.609  1.00  0.00    -0.047 A 
HETATM   11  C4  LIG X 999      43.167 128.740  23.094  1.00  0.00    -0.023 A 
HETATM   12  C6  LIG X 999      41.263 129.540  24.392  1.00  0.00     0.008 A 
HETATM   13  C3  LIG X 999      42.731 127.421  23.316  1.00  0.00     0.010 A 
HETATM   14  C13 LIG X 999      44.376 128.980  22.204  1.00  0.00     0.199 C 
HETATM   15  C2  LIG X 999      41.592 127.167  24.083  1.00  0.00     0.001 A 
HETATM   16  C1  LIG X 999      40.863 128.224  24.625  1.00  0.00     0.001 A 
HETATM   17  C12 LIG X 999      44.864 130.443  22.233  1.00  0.00     0.143 C 
HETATM   18 CL1  LIG X 999      45.991 130.743  20.877  1.00  0.00    -0.120 Cl
BRANCH  14  19
HETATM   19  N4  LIG X 999      45.475 128.108  22.617  1.00  0.00    -0.104 NA
HETATM   20  N5  LIG X 999      45.491 126.915  22.311  1.00  0.00    -0.167 NA
HETATM   21  N6  LIG X 999      45.507 125.724  22.005  1.00  0.00     0.068 N 
ENDBRANCH  14  19
ENDBRANCH   7   8
ENDBRANCH   6   7
ENDBRANCH   5   6
ENDBRANCH   4   5
ENDBRANCH   1   4
TORSDOF 6
ENDMDL
MODEL 6
REMARK VINA RESULT:      -3.8      6.246      7.579
REMARK  6 active torsions:
REMARK  status: ('A' for Active; 'I' for Inactive)
REMARK    1  A    between atoms: C8_8  and  O1_9 
REMARK    2  A    between atoms: O1_9  and  C9_10 
REMARK    3  A    between atoms: C9_10  and  C10_11 
REMARK    4  A    between atoms: C10_11  and  C11_12 
REMARK    5  A    between atoms: C11_12  and  N1_13 
REMARK    6  A    between atoms: C13_18  and  N4_19 
ROOT
HETATM    1  N1  LIG X 999      49.038 135.476  21.618  1.00  0.00    -0.116 NA
HETATM    2  N2  LIG X 999      48.896 136.480  20.919  1.00  0.00    -0.168 NA
HETATM    3  N3  LIG X 999      48.756 137.482  20.219  1.00  0.00     0.068 N 
ENDROOT
BRANCH   1   4
HETATM    4  C11 LIG X 999      47.885 134.717  22.092  1.00  0.00     0.191 C 
BRANCH   4   5
HETATM    5  C10 LIG X 999      47.998 133.225  21.740  1.00  0.00     0.051 C 
BRANCH   5   6
HETATM    6  C9  LIG X 999      46.636 132.535  21.637  1.00  0.00     0.170 C 
BRANCH   6   7
HETATM    7  O1  LIG X 999      46.400 132.152  20.299  1.00  0.00    -0.384 OA
BRANCH   7   8
HETATM    8  C8  LIG X 999      45.836 130.852  20.230  1.00  0.00     0.146 C 
HETATM    9  C7  LIG X 999      44.791 130.682  21.340  1.00  0.00     0.072 C 
HETATM   10  C5  LIG X 999      43.583 131.561  21.127  1.00  0.00    -0.047 A 
HETATM   11  C4  LIG X 999      43.216 132.017  19.835  1.00  0.00    -0.023 A 
HETATM   12  C6  LIG X 999      42.770 131.871  22.229  1.00  0.00     0.008 A 
HETATM   13  C3  LIG X 999      42.081 132.839  19.700  1.00  0.00     0.010 A 
HETATM   14  C13 LIG X 999      44.085 131.750  18.617  1.00  0.00     0.199 C 
HETATM   15  C2  LIG X 999      41.292 133.151  20.809  1.00  0.00     0.001 A 
HETATM   16  C1  LIG X 999      41.632 132.663  22.070  1.00  0.00     0.001 A 
HETATM   17  C12 LIG X 999      45.154 130.666  18.867  1.00  0.00     0.143 C 
HETATM   18 CL1  LIG X 999      46.381 130.702  17.566  1.00  0.00    -0.120 Cl
BRANCH  14  19
HETATM   19  N4  LIG X 999      43.246 131.334  17.494  1.00  0.00    -0.104 NA
HETATM   20  N5  LIG X 999      43.612 131.502  16.330  1.00  0.00    -0.167 NA
HETATM   21  N6  LIG X 999      43.977 131.670  15.167  1.00  0.00     0.068 N 
ENDBRANCH  14  19
ENDBRANCH   7   8
ENDBRANCH   6   7
ENDBRANCH   5   6
ENDBRANCH   4   5
ENDBRANCH   1   4
TORSDOF 6
ENDMDL
MODEL 7
REMARK VINA RESULT:      -3.4      3.033      7.310
REMARK  6 active torsions:
REMARK  status: ('A' for Active; 'I' for Inactive)
REMARK    1  A    between atoms: C8_8  and  O1_9 
REMARK    2  A    between atoms: O1_9  and  C9_10 
REMARK    3  A    between atoms: C9_10  and  C10_11 
REMARK    4  A    between atoms: C10_11  and  C11_12 
REMARK    5  A    between atoms: C11_12  and  N1_13 
REMARK    6  A    between atoms: C13_18  and  N4_19 
ROOT
HETATM    1  N1  LIG X 999      43.310 124.707  22.113  1.00  0.00    -0.116 NA
HETATM    2  N2  LIG X 999      42.309 124.932  22.793  1.00  0.00    -0.168 NA
HETATM    3  N3  LIG X 999      41.308 125.153  23.473  1.00  0.00     0.068 N 
ENDROOT
BRANCH   1   4
HETATM    4  C11 LIG X 999      44.604 125.289  22.457  1.00  0.00     0.191 C 
BRANCH   4   5
HETATM    5  C10 LIG X 999      44.502 126.802  22.707  1.00  0.00     0.051 C 
BRANCH   5   6
HETATM    6  C9  LIG X 999      45.585 127.598  21.973  1.00  0.00     0.170 C 
BRANCH   6   7
HETATM    7  O1  LIG X 999      44.990 128.666  21.269  1.00  0.00    -0.384 OA
BRANCH   7   8
HETATM    8  C8  LIG X 999      45.631 129.897  21.565  1.00  0.00     0.146 C 
HETATM    9  C7  LIG X 999      46.022 130.603  20.261  1.00  0.00     0.072 C 
HETATM   10  C5  LIG X 999      44.817 131.057  19.474  1.00  0.00    -0.047 A 
HETATM   11  C4  LIG X 999      43.572 131.313  20.103  1.00  0.00    -0.023 A 
HETATM   12  C6  LIG X 999      44.960 131.298  18.097  1.00  0.00     0.008 A 
HETATM   13  C3  LIG X 999      42.483 131.730  19.316  1.00  0.00     0.010 A 
HETATM   14  C13 LIG X 999      43.350 131.026  21.580  1.00  0.00     0.199 C 
HETATM   15  C2  LIG X 999      42.638 131.949  17.945  1.00  0.00     0.001 A 
HETATM   16  C1  LIG X 999      43.875 131.739  17.339  1.00  0.00     0.001 A 
HETATM   17  C12 LIG X 999      44.666 130.795  22.352  1.00  0.00     0.143 C 
HETATM   18 CL1  LIG X 999      44.322 130.063  23.947  1.00  0.00    -0.120 Cl
BRANCH  14  19
HETATM   19  N4  LIG X 999      42.630 132.139  22.197  1.00  0.00    -0.104 NA
HETATM   20  N5  LIG X 999      42.431 132.172  23.412  1.00  0.00    -0.167 NA
HETATM   21  N6  LIG X 999      42.232 132.206  24.625  1.00  0.00     0.068 N 
ENDBRANCH  14  19
ENDBRANCH   7   8
ENDBRANCH   6   7
ENDBRANCH   5   6
ENDBRANCH   4   5
ENDBRANCH   1   4
TORSDOF 6
ENDMDL
MODEL 8
REMARK VINA RESULT:      -3.3      3.925      5.500
REMARK  6 active torsions:
REMARK  status: ('A' for Active; 'I' for Inactive)
REMARK    1  A    between atoms: C8_8  and  O1_9 
REMARK    2  A    between atoms: O1_9  and  C9_10 
REMARK    3  A    between atoms: C9_10  and  C10_11 
REMARK    4  A    between atoms: C10_11  and  C11_12 
REMARK    5  A    between atoms: C11_12  and  N1_13 
REMARK    6  A    between atoms: C13_18  and  N4_19 
ROOT
HETATM    1  N1  LIG X 999      45.624 130.693  16.229  1.00  0.00    -0.116 NA
HETATM    2  N2  LIG X 999      46.354 130.790  15.242  1.00  0.00    -0.168 NA
HETATM    3  N3  LIG X 999      47.082 130.884  14.254  1.00  0.00     0.068 N 
ENDROOT
BRANCH   1   4
HETATM    4  C11 LIG X 999      44.857 131.835  16.716  1.00  0.00     0.191 C 
BRANCH   4   5
HETATM    5  C10 LIG X 999      43.515 131.404  17.329  1.00  0.00     0.051 C 
BRANCH   5   6
HETATM    6  C9  LIG X 999      43.201 132.131  18.639  1.00  0.00     0.170 C 
BRANCH   6   7
HETATM    7  O1  LIG X 999      43.435 131.265  19.728  1.00  0.00    -0.384 OA
BRANCH   7   8
HETATM    8  C8  LIG X 999      44.567 131.677  20.478  1.00  0.00     0.146 C 
HETATM    9  C7  LIG X 999      44.111 132.278  21.813  1.00  0.00     0.072 C 
HETATM   10  C5  LIG X 999      43.490 131.245  22.722  1.00  0.00    -0.047 A 
HETATM   11  C4  LIG X 999      43.807 129.868  22.606  1.00  0.00    -0.023 A 
HETATM   12  C6  LIG X 999      42.635 131.675  23.750  1.00  0.00     0.008 A 
HETATM   13  C3  LIG X 999      43.193 128.952  23.480  1.00  0.00     0.010 A 
HETATM   14  C13 LIG X 999      44.690 129.343  21.485  1.00  0.00     0.199 C 
HETATM   15  C2  LIG X 999      42.332 129.394  24.486  1.00  0.00     0.001 A 
HETATM   16  C1  LIG X 999      42.059 130.754  24.625  1.00  0.00     0.001 A 
HETATM   17  C12 LIG X 999      45.463 130.462  20.755  1.00  0.00     0.143 C 
HETATM   18 CL1  LIG X 999      46.134 129.842  19.217  1.00  0.00    -0.120 Cl
BRANCH  14  19
HETATM   19  N4  LIG X 999      45.650 128.380  22.021  1.00  0.00    -0.104 NA
HETATM   20  N5  LIG X 999      45.377 127.181  22.090  1.00  0.00    -0.167 NA
HETATM   21  N6  LIG X 999      45.105 125.983  22.159  1.00  0.00     0.068 N 
ENDBRANCH  14  19
ENDBRANCH   7   8
ENDBRANCH   6   7
ENDBRANCH   5   6
ENDBRANCH   4   5
ENDBRANCH   1   4
TORSDOF 6
ENDMDL
MODEL 9
REMARK VINA RESULT:      -3.2      6.792      8.853
REMARK  6 active torsions:
REMARK  status: ('A' for Active; 'I' for Inactive)
REMARK    1  A    between atoms: C8_8  and  O1_9 
REMARK    2  A    between atoms: O1_9  and  C9_10 
REMARK    3  A    between atoms: C9_10  and  C10_11 
REMARK    4  A    between atoms: C10_11  and  C11_12 
REMARK    5  A    between atoms: C11_12  and  N1_13 
REMARK    6  A    between atoms: C13_18  and  N4_19 
ROOT
HETATM    1  N1  LIG X 999      47.252 129.092  13.993  1.00  0.00    -0.116 NA
HETATM    2  N2  LIG X 999      48.445 129.271  13.745  1.00  0.00    -0.168 NA
HETATM    3  N3  LIG X 999      49.636 129.448  13.496  1.00  0.00     0.068 N 
ENDROOT
BRANCH   1   4
HETATM    4  C11 LIG X 999      46.290 130.186  13.907  1.00  0.00     0.191 C 
BRANCH   4   5
HETATM    5  C10 LIG X 999      46.948 131.550  14.169  1.00  0.00     0.051 C 
BRANCH   5   6
HETATM    6  C9  LIG X 999      46.117 132.442  15.095  1.00  0.00     0.170 C 
BRANCH   6   7
HETATM    7  O1  LIG X 999      46.127 131.906  16.401  1.00  0.00    -0.384 OA
BRANCH   7   8
HETATM    8  C8  LIG X 999      45.379 130.702  16.467  1.00  0.00     0.146 C 
HETATM    9  C7  LIG X 999      45.800 129.900  17.705  1.00  0.00     0.072 C 
HETATM   10  C5  LIG X 999      45.409 130.586  18.991  1.00  0.00    -0.047 A 
HETATM   11  C4  LIG X 999      44.330 131.505  19.043  1.00  0.00    -0.023 A 
HETATM   12  C6  LIG X 999      46.087 130.246  20.173  1.00  0.00     0.008 A 
HETATM   13  C3  LIG X 999      44.015 132.117  20.271  1.00  0.00     0.010 A 
HETATM   14  C13 LIG X 999      43.592 131.943  17.788  1.00  0.00     0.199 C 
HETATM   15  C2  LIG X 999      44.711 131.780  21.434  1.00  0.00     0.001 A 
HETATM   16  C1  LIG X 999      45.741 130.842  21.386  1.00  0.00     0.001 A 
HETATM   17  C12 LIG X 999      43.885 131.039  16.572  1.00  0.00     0.143 C 
HETATM   18 CL1  LIG X 999      43.337 131.835  15.068  1.00  0.00    -0.120 Cl
BRANCH  14  19
HETATM   19  N4  LIG X 999      42.152 131.946  18.038  1.00  0.00    -0.104 NA
HETATM   20  N5  LIG X 999      41.677 132.517  19.020  1.00  0.00    -0.167 NA
HETATM   21  N6  LIG X 999      41.202 133.087  20.001  1.00  0.00     0.068 N 
ENDBRANCH  14  19
ENDBRANCH   7   8
ENDBRANCH   6   7
ENDBRANCH   5   6
ENDBRANCH   4   5
ENDBRANCH   1   4
TORSDOF 6
ENDMDL
