REMARK VINA RESULT:      -3.6      3.413      8.014
REMARK  2 active torsions:
REMARK  status: ('A' for Active; 'I' for Inactive)
REMARK    1  A    between atoms: C9_10  and  N2_11 
REMARK       I    between atoms: N2_11  and  C10_12 
REMARK    2  A    between atoms: C10_12  and  C11_14 
ROOT
HETATM    1  C11 LIG X 999      47.026 129.792  13.515  1.00  0.00     0.282 C 
HETATM    2 CL1  LIG X 999      46.898 131.389  12.736  1.00  0.00    -0.099 Cl
HETATM    3  C12 LIG X 999      48.439 129.465  13.729  1.00  0.00     0.089 C 
HETATM    4  N3  LIG X 999      49.554 129.207  13.898  1.00  0.00    -0.195 NA
ENDROOT
BRANCH   1   5
HETATM    5  C10 LIG X 999      46.297 129.797  14.822  1.00  0.00     0.276 C 
HETATM    6  N2  LIG X 999      46.161 131.022  15.558  1.00  0.00    -0.212 NA
HETATM    7  O1  LIG X 999      45.866 128.712  15.296  1.00  0.00    -0.268 OA
BRANCH   6   8
HETATM    8  C9  LIG X 999      45.295 131.253  16.678  1.00  0.00     0.061 A 
HETATM    9  C8  LIG X 999      43.977 131.652  16.433  1.00  0.00     0.032 A 
HETATM   10  C7  LIG X 999      43.089 131.872  17.489  1.00  0.00     0.014 A 
HETATM   11  C6  LIG X 999      43.505 131.678  18.812  1.00  0.00    -0.025 A 
HETATM   12  C5  LIG X 999      42.618 131.899  19.884  1.00  0.00     0.021 A 
HETATM   13  C14 LIG X 999      44.837 131.248  19.073  1.00  0.00    -0.023 A 
HETATM   14  C4  LIG X 999      43.073 131.678  21.184  1.00  0.00    -0.024 A 
HETATM   15  C3  LIG X 999      42.331 131.864  22.450  1.00  0.00     0.276 C 
HETATM   16  C16 LIG X 999      44.346 131.263  21.434  1.00  0.00    -0.024 A 
HETATM   17  N1  LIG X 999      43.239 131.360  23.529  1.00  0.00    -0.067 N 
HETATM   18  C1  LIG X 999      43.346 132.348  24.625  1.00  0.00     0.272 C 
HETATM   19  C2  LIG X 999      42.717 130.086  24.078  1.00  0.00     0.272 C 
HETATM   20  C17 LIG X 999      44.574 131.134  22.889  1.00  0.00     0.276 C 
HETATM   21  C15 LIG X 999      45.258 131.040  20.401  1.00  0.00     0.021 A 
HETATM   22  C13 LIG X 999      45.719 131.032  18.002  1.00  0.00     0.044 A 
ENDBRANCH   6   8
ENDBRANCH   1   5
TORSDOF 2
