REMARK VINA RESULT:      -6.9      2.010      3.044
REMARK  1 active torsions:
REMARK  status: ('A' for Active; 'I' for Inactive)
REMARK    1  A    between atoms: C8_8  and  N1_9 
ROOT
HETATM    1  N1  LIG X 999      43.850 131.568  15.935  1.00  0.00    -0.072 NA
HETATM    2  N2  LIG X 999      44.532 131.338  14.936  1.00  0.00    -0.162 NA
HETATM    3  N3  LIG X 999      45.212 131.109  13.937  1.00  0.00     0.068 N 
ENDROOT
BRANCH   1   4
HETATM    4  C8  LIG X 999      44.333 131.329  17.265  1.00  0.00     0.104 A 
HETATM    5  C7  LIG X 999      45.591 130.691  17.498  1.00  0.00     0.038 A 
HETATM    6  C6  LIG X 999      46.060 130.458  18.812  1.00  0.00     0.035 A 
HETATM    7  C5  LIG X 999      45.261 130.868  19.878  1.00  0.00     0.073 A 
HETATM    8  C4  LIG X 999      44.065 131.474  19.637  1.00  0.00     0.021 A 
HETATM    9  N4  LIG X 999      45.517 130.742  21.281  1.00  0.00    -0.209 NA
HETATM   10  C3  LIG X 999      43.435 131.798  20.794  1.00  0.00     0.047 A 
HETATM   11  C9  LIG X 999      43.553 131.728  18.375  1.00  0.00     0.009 A 
HETATM   12  C2  LIG X 999      42.192 132.428  20.777  1.00  0.00     0.018 A 
HETATM   13  C11 LIG X 999      44.339 131.343  21.847  1.00  0.00     0.278 A 
HETATM   14  C1  LIG X 999      41.619 132.715  19.515  1.00  0.00     0.002 A 
HETATM   15  C10 LIG X 999      42.294 132.367  18.314  1.00  0.00     0.015 A 
HETATM   16  O1  LIG X 999      44.134 131.452  23.083  1.00  0.00    -0.265 OA
ENDBRANCH   1   4
TORSDOF 1
