REMARK VINA RESULT:      -7.6      1.806      2.694
REMARK  5 active torsions:
REMARK  status: ('A' for Active; 'I' for Inactive)
REMARK    1  A    between atoms: C6_6  and  C7_7 
REMARK    2  A    between atoms: C7_7  and  N1_8 
REMARK    3  A    between atoms: N4_11  and  C8_12 
REMARK    4  A    between atoms: C8_12  and  C9_13 
REMARK    5  A    between atoms: C9_13  and  N5_14 
ROOT
HETATM    1  N1  LIG X 999      42.701 131.416  19.581  1.00  0.00    -0.052 NA
HETATM    2  N2  LIG X 999      42.145 132.418  20.033  1.00  0.00    -0.160 NA
HETATM    3  N3  LIG X 999      41.589 133.418  20.484  1.00  0.00     0.068 N 
ENDROOT
BRANCH   1   4
HETATM    4  C7  LIG X 999      44.092 131.407  19.216  1.00  0.00     0.191 C 
HETATM    5  N4  LIG X 999      45.007 131.493  20.138  1.00  0.00    -0.267 NA
BRANCH   4   6
HETATM    6  C6  LIG X 999      44.520 131.302  17.801  1.00  0.00     0.015 A 
HETATM    7  C5  LIG X 999      45.710 130.636  17.458  1.00  0.00     0.027 A 
HETATM    8  C4  LIG X 999      46.106 130.530  16.116  1.00  0.00    -0.025 A 
HETATM    9  C3  LIG X 999      47.297 129.873  15.770  1.00  0.00     0.012 A 
HETATM   10  C12 LIG X 999      45.295 131.090  15.099  1.00  0.00    -0.026 A 
HETATM   11  C2  LIG X 999      47.680 129.774  14.429  1.00  0.00     0.001 A 
HETATM   12  C1  LIG X 999      46.880 130.328  13.427  1.00  0.00     0.001 A 
HETATM   13  C13 LIG X 999      45.691 130.984  13.757  1.00  0.00     0.012 A 
HETATM   14  C11 LIG X 999      44.101 131.739  15.443  1.00  0.00     0.013 A 
HETATM   15  C10 LIG X 999      43.716 131.839  16.782  1.00  0.00     0.016 A 
ENDBRANCH   4   6
BRANCH   5  16
HETATM   16  C8  LIG X 999      44.755 131.577  21.577  1.00  0.00     0.181 C 
BRANCH  16  17
HETATM   17  C9  LIG X 999      44.239 130.244  22.127  1.00  0.00     0.288 C 
BRANCH  17  18
HETATM   18  N5  LIG X 999      42.816 130.324  22.445  1.00  0.00     0.079 N 
HETATM   19  H9  LIG X 999      42.283 130.173  21.558  1.00  0.00     0.312 HD
HETATM   20  H10 LIG X 999      42.602 131.301  22.748  1.00  0.00     0.312 HD
ENDBRANCH  17  18
ENDBRANCH  16  17
ENDBRANCH   5  16
ENDBRANCH   1   4
TORSDOF 5
