REMARK VINA RESULT:      -6.2      3.070      7.099
REMARK  3 active torsions:
REMARK  status: ('A' for Active; 'I' for Inactive)
REMARK    1  A    between atoms: O1_2  and  C2_3 
REMARK    2  A    between atoms: C2_3  and  C3_5 
REMARK    3  A    between atoms: C4_6  and  C5_7 
ROOT
HETATM    1  C5  LIG X 999      44.362 131.312  19.090  1.00  0.00     0.019 A 
HETATM    2  C6  LIG X 999      43.318 132.228  19.268  1.00  0.00     0.021 A 
HETATM    3  C7  LIG X 999      42.746 132.409  20.530  1.00  0.00     0.013 A 
HETATM    4  C8  LIG X 999      43.216 131.673  21.630  1.00  0.00    -0.026 A 
HETATM    5  C9  LIG X 999      42.650 131.847  22.902  1.00  0.00     0.012 A 
HETATM    6  C10 LIG X 999      43.126 131.108  23.988  1.00  0.00     0.001 A 
HETATM    7  C11 LIG X 999      44.168 130.193  23.814  1.00  0.00     0.001 A 
HETATM    8  C12 LIG X 999      44.741 130.010  22.553  1.00  0.00     0.012 A 
HETATM    9  C13 LIG X 999      44.272 130.746  21.452  1.00  0.00    -0.025 A 
HETATM   10  C14 LIG X 999      44.839 130.572  20.180  1.00  0.00     0.032 A 
ENDROOT
BRANCH   1  11
HETATM   11  C4  LIG X 999      44.946 131.131  17.787  1.00  0.00    -0.056 C 
HETATM   12  C3  LIG X 999      45.435 130.979  16.696  1.00  0.00     0.008 C 
BRANCH  12  13
HETATM   13  C2  LIG X 999      46.017 130.799  15.397  1.00  0.00     0.339 C 
HETATM   14  O2  LIG X 999      47.232 130.482  15.298  1.00  0.00    -0.249 OA
BRANCH  13  15
HETATM   15  O1  LIG X 999      45.226 130.977  14.259  1.00  0.00    -0.316 OA
HETATM   16  C1  LIG X 999      43.923 131.545  14.314  1.00  0.00     0.214 C 
ENDBRANCH  13  15
ENDBRANCH  12  13
ENDBRANCH   1  11
TORSDOF 3
