REMARK VINA RESULT:      -7.9      4.252      6.700
REMARK  1 active torsions:
REMARK  status: ('A' for Active; 'I' for Inactive)
REMARK    1  A    between atoms: C14_14  and  N1_15 
ROOT
HETATM    1  N1  LIG X 999      47.182 128.883  14.567  1.00  0.00    -0.054 NA
HETATM    2  N2  LIG X 999      47.940 129.412  13.751  1.00  0.00    -0.160 NA
HETATM    3  N3  LIG X 999      48.697 129.937  12.938  1.00  0.00     0.068 N 
ENDROOT
BRANCH   1   4
HETATM    4  C14 LIG X 999      46.318 129.647  15.422  1.00  0.00     0.165 C 
HETATM    5  C13 LIG X 999      45.219 130.347  14.915  1.00  0.00     0.061 C 
HETATM    6  C11 LIG X 999      44.400 131.100  15.769  1.00  0.00    -0.045 C 
HETATM    7  C10 LIG X 999      44.612 131.033  17.182  1.00  0.00     0.008 C 
HETATM    8  C12 LIG X 999      43.442 132.055  15.097  1.00  0.00     0.049 C 
HETATM    9  C4  LIG X 999      43.729 131.570  18.178  1.00  0.00    -0.013 C 
HETATM   10  C9  LIG X 999      45.820 130.416  17.620  1.00  0.00     0.045 C 
HETATM   11  C3  LIG X 999      42.369 131.874  17.932  1.00  0.00     0.013 C 
HETATM   12  C5  LIG X 999      44.196 131.710  19.516  1.00  0.00    -0.025 C 
HETATM   13  C2  LIG X 999      41.566 132.447  18.920  1.00  0.00     0.001 C 
HETATM   14  C1  LIG X 999      42.080 132.687  20.191  1.00  0.00     0.001 C 
HETATM   15  C6  LIG X 999      43.383 132.302  20.496  1.00  0.00     0.012 C 
HETATM   16  C7  LIG X 999      45.447 131.209  19.880  1.00  0.00     0.014 C 
HETATM   17  C8  LIG X 999      46.222 130.521  18.958  1.00  0.00     0.031 C 
HETATM   18  N4  LIG X 999      46.611 129.735  16.744  1.00  0.00    -0.338 N 
HETATM   19  H11 LIG X 999      47.475 129.254  17.089  1.00  0.00     0.167 HD
ENDBRANCH   1   4
TORSDOF 1
