REMARK VINA RESULT:      -7.1      3.436      6.694
REMARK  5 active torsions:
REMARK  status: ('A' for Active; 'I' for Inactive)
REMARK    1  A    between atoms: C6_6  and  C7_7 
REMARK    2  A    between atoms: C7_7  and  N3_15 
REMARK    3  A    between atoms: N1_8  and  C8_9 
REMARK    4  A    between atoms: C8_9  and  C9_10 
REMARK    5  A    between atoms: C9_10  and  N2_11 
ROOT
HETATM    1  N3  LIG X 999      45.757 131.269  20.859  1.00  0.00    -0.052 NA
HETATM    2  N4  LIG X 999      46.412 132.261  21.182  1.00  0.00    -0.160 NA
HETATM    3  N5  LIG X 999      47.069 133.250  21.504  1.00  0.00     0.068 N 
ENDROOT
BRANCH   1   4
HETATM    4  C7  LIG X 999      44.576 131.360  20.043  1.00  0.00     0.191 C 
HETATM    5  N1  LIG X 999      43.408 131.481  20.604  1.00  0.00    -0.267 NA
BRANCH   4   6
HETATM    6  C6  LIG X 999      44.650 131.315  18.564  1.00  0.00     0.015 A 
HETATM    7  C5  LIG X 999      45.764 130.735  17.933  1.00  0.00     0.027 A 
HETATM    8  C4  LIG X 999      45.839 130.675  16.533  1.00  0.00    -0.025 A 
HETATM    9  C3  LIG X 999      46.956 130.107  15.900  1.00  0.00     0.012 A 
HETATM   10  C12 LIG X 999      44.779 131.193  15.751  1.00  0.00    -0.026 A 
HETATM   11  C2  LIG X 999      47.020 130.053  14.504  1.00  0.00     0.001 A 
HETATM   12  C1  LIG X 999      45.973 130.564  13.732  1.00  0.00     0.001 A 
HETATM   13  C13 LIG X 999      44.856 131.132  14.350  1.00  0.00     0.012 A 
HETATM   14  C11 LIG X 999      43.663 131.756  16.383  1.00  0.00     0.013 A 
HETATM   15  C10 LIG X 999      43.597 131.812  17.777  1.00  0.00     0.016 A 
ENDBRANCH   4   6
BRANCH   5  16
HETATM   16  C8  LIG X 999      43.168 131.512  22.046  1.00  0.00     0.178 C 
BRANCH  16  17
HETATM   17  C9  LIG X 999      43.201 130.100  22.648  1.00  0.00     0.251 C 
BRANCH  17  18
HETATM   18  N2  LIG X 999      44.486 129.819  23.288  1.00  0.00    -0.078 N 
HETATM   19  H9  LIG X 999      44.507 130.278  24.227  1.00  0.00     0.274 HD
HETATM   20  H10 LIG X 999      45.270 130.202  22.712  1.00  0.00     0.274 HD
HETATM   21  H11 LIG X 999      44.610 128.788  23.414  1.00  0.00     0.274 HD
ENDBRANCH  17  18
ENDBRANCH  16  17
ENDBRANCH   5  16
ENDBRANCH   1   4
TORSDOF 5
