REMARK VINA RESULT:      -5.2      3.841      7.889
REMARK  2 active torsions:
REMARK  status: ('A' for Active; 'I' for Inactive)
REMARK    1  A    between atoms: C9_10  and  N2_11 
REMARK       I    between atoms: N2_11  and  C10_12 
REMARK    2  A    between atoms: C10_12  and  C11_14 
ROOT
HETATM    1  C11 LIG X 999      44.503 127.449  24.437  1.00  0.00     0.282 C 
HETATM    2 CL1  LIG X 999      42.731 127.428  24.625  1.00  0.00    -0.099 Cl
HETATM    3  C12 LIG X 999      45.021 126.081  24.532  1.00  0.00     0.089 C 
HETATM    4  N3  LIG X 999      45.431 125.001  24.606  1.00  0.00    -0.195 NA
ENDROOT
BRANCH   1   5
HETATM    5  C10 LIG X 999      44.878 128.050  23.119  1.00  0.00     0.276 C 
HETATM    6  N2  LIG X 999      44.698 129.457  22.912  1.00  0.00    -0.212 NA
HETATM    7  O1  LIG X 999      45.415 127.333  22.231  1.00  0.00    -0.268 OA
BRANCH   6   8
HETATM    8  C9  LIG X 999      44.769 130.151  21.657  1.00  0.00     0.061 A 
HETATM    9  C8  LIG X 999      44.166 131.410  21.555  1.00  0.00     0.032 A 
HETATM   10  C7  LIG X 999      44.193 132.119  20.350  1.00  0.00     0.014 A 
HETATM   11  C6  LIG X 999      44.809 131.566  19.221  1.00  0.00    -0.025 A 
HETATM   12  C5  LIG X 999      44.841 132.272  18.003  1.00  0.00     0.021 A 
HETATM   13  C14 LIG X 999      45.402 130.275  19.307  1.00  0.00    -0.023 A 
HETATM   14  C4  LIG X 999      45.453 131.675  16.901  1.00  0.00    -0.024 A 
HETATM   15  C3  LIG X 999      45.621 132.235  15.542  1.00  0.00     0.276 C 
HETATM   16  C16 LIG X 999      46.018 130.438  16.980  1.00  0.00    -0.024 A 
HETATM   17  N1  LIG X 999      46.220 131.134  14.722  1.00  0.00    -0.067 N 
HETATM   18  C1  LIG X 999      45.217 130.613  13.762  1.00  0.00     0.272 C 
HETATM   19  C2  LIG X 999      47.398 131.622  13.971  1.00  0.00     0.272 C 
HETATM   20  C17 LIG X 999      46.616 130.055  15.683  1.00  0.00     0.276 C 
HETATM   21  C15 LIG X 999      46.014 129.709  18.170  1.00  0.00     0.021 A 
HETATM   22  C13 LIG X 999      45.370 129.575  20.523  1.00  0.00     0.044 A 
ENDBRANCH   6   8
ENDBRANCH   1   5
TORSDOF 2
