REMARK VINA RESULT:      -7.8      1.094      2.063
REMARK  5 active torsions:
REMARK  status: ('A' for Active; 'I' for Inactive)
REMARK    1  A    between atoms: N1_1  and  C1_2 
REMARK    2  A    between atoms: C1_2  and  C2_3 
REMARK    3  A    between atoms: C2_3  and  C3_4 
REMARK    4  A    between atoms: C3_4  and  O1_5 
REMARK    5  A    between atoms: O1_5  and  C4_6 
ROOT
HETATM    1  C4  LIG X 999      45.574 130.731  17.440  1.00  0.00     0.069 A 
HETATM    2  C5  LIG X 999      45.286 131.962  16.838  1.00  0.00     0.037 A 
HETATM    3  C6  LIG X 999      45.764 132.262  15.560  1.00  0.00     0.015 A 
HETATM    4  C7  LIG X 999      46.542 131.328  14.862  1.00  0.00    -0.026 A 
HETATM    5  C8  LIG X 999      47.028 131.618  13.577  1.00  0.00     0.012 A 
HETATM    6  C9  LIG X 999      47.802 130.679  12.891  1.00  0.00     0.001 A 
HETATM    7  C10 LIG X 999      48.098 129.446  13.481  1.00  0.00     0.001 A 
HETATM    8  C11 LIG X 999      47.620 129.145  14.759  1.00  0.00     0.012 A 
HETATM    9  C12 LIG X 999      46.841 130.080  15.459  1.00  0.00    -0.023 A 
HETATM   10  C13 LIG X 999      46.356 129.788  16.744  1.00  0.00     0.049 A 
ENDROOT
BRANCH   1  11
HETATM   11  O1  LIG X 999      45.066 130.486  18.724  1.00  0.00    -0.351 OA
BRANCH  11  12
HETATM   12  C3  LIG X 999      45.783 130.717  19.934  1.00  0.00     0.177 C 
BRANCH  12  13
HETATM   13  C2  LIG X 999      44.883 131.420  20.954  1.00  0.00     0.054 C 
BRANCH  13  14
HETATM   14  C1  LIG X 999      43.708 132.178  20.312  1.00  0.00     0.231 C 
BRANCH  14  15
HETATM   15  N1  LIG X 999      42.444 131.450  20.440  1.00  0.00    -0.079 N 
HETATM   16  H1  LIG X 999      42.581 130.573  20.994  1.00  0.00     0.274 HD
HETATM   17  H2  LIG X 999      41.752 132.056  20.937  1.00  0.00     0.274 HD
HETATM   18  H3  LIG X 999      42.060 131.220  19.496  1.00  0.00     0.274 HD
ENDBRANCH  14  15
ENDBRANCH  13  14
ENDBRANCH  12  13
ENDBRANCH  11  12
ENDBRANCH   1  11
TORSDOF 5
