REMARK VINA RESULT:      -7.0      1.854      3.179
REMARK  1 active torsions:
REMARK  status: ('A' for Active; 'I' for Inactive)
REMARK    1  A    between atoms: C8_8  and  N1_9 
ROOT
HETATM    1  N1  LIG X 999      45.039 131.156  16.837  1.00  0.00    -0.072 NA
HETATM    2  N2  LIG X 999      45.198 130.153  16.140  1.00  0.00    -0.162 NA
HETATM    3  N3  LIG X 999      45.356 129.152  15.442  1.00  0.00     0.068 N 
ENDROOT
BRANCH   1   4
HETATM    4  C8  LIG X 999      44.998 131.094  18.271  1.00  0.00     0.104 A 
HETATM    5  C7  LIG X 999      46.068 130.517  19.023  1.00  0.00     0.038 A 
HETATM    6  C6  LIG X 999      46.022 130.459  20.436  1.00  0.00     0.033 A 
HETATM    7  C5  LIG X 999      44.900 130.983  21.074  1.00  0.00     0.047 A 
HETATM    8  C4  LIG X 999      43.887 131.531  20.343  1.00  0.00     0.019 A 
HETATM    9  N4  LIG X 999      44.608 131.049  22.471  1.00  0.00    -0.322 N 
HETATM   10  C3  LIG X 999      42.885 131.986  21.144  1.00  0.00     0.045 A 
HETATM   11  C9  LIG X 999      43.878 131.615  18.961  1.00  0.00     0.009 A 
HETATM   12  C2  LIG X 999      41.752 132.584  20.594  1.00  0.00     0.018 A 
HETATM   13  C11 LIG X 999      43.323 131.689  22.507  1.00  0.00     0.257 A 
HETATM   14  C1  LIG X 999      41.688 132.696  19.184  1.00  0.00     0.002 A 
HETATM   15  C10 LIG X 999      42.745 132.215  18.367  1.00  0.00     0.015 A 
HETATM   16  O1  LIG X 999      42.688 131.946  23.562  1.00  0.00    -0.267 OA
HETATM   17  H6  LIG X 999      45.187 130.714  23.272  1.00  0.00     0.169 HD
ENDBRANCH   1   4
TORSDOF 1
