REMARK VINA RESULT:      -5.0      3.064      5.820
REMARK  3 active torsions:
REMARK  status: ('A' for Active; 'I' for Inactive)
REMARK       I    between atoms: N1_2  and  C3_4 
REMARK    1  A    between atoms: C3_4  and  O2_6 
REMARK    2  A    between atoms: O2_6  and  C4_7 
REMARK    3  A    between atoms: C7_10  and  N2_11 
ROOT
HETATM    1  C4  LIG X 999      44.873 130.569  21.087  1.00  0.00     0.092 A 
HETATM    2  C5  LIG X 999      45.858 130.219  20.153  1.00  0.00     0.040 A 
HETATM    3  C6  LIG X 999      45.755 130.623  18.826  1.00  0.00     0.033 A 
HETATM    4  C7  LIG X 999      44.673 131.398  18.388  1.00  0.00     0.037 A 
HETATM    5  C8  LIG X 999      43.684 131.805  19.324  1.00  0.00     0.003 A 
HETATM    6  C9  LIG X 999      42.604 132.640  18.962  1.00  0.00     0.014 A 
HETATM    7  C10 LIG X 999      41.646 133.018  19.905  1.00  0.00     0.001 A 
HETATM    8  C11 LIG X 999      41.747 132.583  21.223  1.00  0.00     0.001 A 
HETATM    9  C12 LIG X 999      42.812 131.772  21.613  1.00  0.00     0.015 A 
HETATM   10  C13 LIG X 999      43.793 131.380  20.681  1.00  0.00     0.010 A 
ENDROOT
BRANCH   1  11
HETATM   11  O2  LIG X 999      44.969 130.168  22.430  1.00  0.00    -0.261 OA
BRANCH  11  12
HETATM   12  C3  LIG X 999      44.608 128.909  22.932  1.00  0.00     0.367 C 
HETATM   13  N1  LIG X 999      43.687 128.820  24.032  1.00  0.00    -0.336 N 
HETATM   14  C1  LIG X 999      43.291 127.508  24.550  1.00  0.00     0.154 C 
HETATM   15  C2  LIG X 999      43.160 130.052  24.625  1.00  0.00     0.154 C 
HETATM   16  O1  LIG X 999      45.046 127.857  22.391  1.00  0.00    -0.238 OA
ENDBRANCH  11  12
ENDBRANCH   1  11
BRANCH   4  17
HETATM   17  N2  LIG X 999      44.609 131.742  16.994  1.00  0.00    -0.398 N 
HETATM   18  H9  LIG X 999      44.452 130.999  16.277  1.00  0.00     0.156 HD
HETATM   19  H10 LIG X 999      44.604 132.724  16.647  1.00  0.00     0.156 HD
ENDBRANCH   4  17
TORSDOF 3
