REMARK VINA RESULT:      -8.0      0.000      0.000
REMARK  3 active torsions:
REMARK  status: ('A' for Active; 'I' for Inactive)
REMARK    1  A    between atoms: C3_3  and  S1_4 
REMARK    2  A    between atoms: S1_4  and  C4_5 
REMARK    3  A    between atoms: C8_9  and  N1_10 
ROOT
HETATM    1  C1  LIG X 999      47.246 131.175  13.373  1.00  0.00     0.013 C 
HETATM    2  C2  LIG X 999      46.828 131.323  14.494  1.00  0.00    -0.107 C 
HETATM    3  C3  LIG X 999      46.325 131.506  15.858  1.00  0.00     0.172 C 
ENDROOT
BRANCH   3   4
HETATM    4  S1  LIG X 999      45.911 129.894  16.606  1.00  0.00    -0.117 SA
BRANCH   4   5
HETATM    5  C4  LIG X 999      45.412 130.578  18.196  1.00  0.00     0.015 A 
HETATM    6  C5  LIG X 999      46.237 130.269  19.316  1.00  0.00     0.020 A 
HETATM    7  C6  LIG X 999      45.851 130.614  20.630  1.00  0.00     0.018 A 
HETATM    8  C7  LIG X 999      44.635 131.269  20.788  1.00  0.00     0.026 A 
HETATM    9  C8  LIG X 999      43.893 131.651  21.894  1.00  0.00     0.175 A 
HETATM   10  C10 LIG X 999      43.876 131.592  19.711  1.00  0.00     0.019 A 
HETATM   11  N4  LIG X 999      42.700 132.177  21.503  1.00  0.00    -0.337 N 
HETATM   12  H6  LIG X 999      41.921 132.512  22.112  1.00  0.00     0.167 HD
HETATM   13  C9  LIG X 999      42.710 132.130  20.151  1.00  0.00     0.046 A 
HETATM   14  C14 LIG X 999      41.633 132.462  19.210  1.00  0.00     0.033 C 
HETATM   15  C13 LIG X 999      41.859 132.281  17.893  1.00  0.00     0.034 C 
HETATM   16  C12 LIG X 999      43.182 131.785  17.389  1.00  0.00     0.060 C 
HETATM   17  C11 LIG X 999      44.202 131.314  18.394  1.00  0.00     0.022 A 
HETATM   18  N5  LIG X 999      43.438 131.927  16.127  1.00  0.00    -0.299 NA
HETATM   19  H7  LIG X 999      44.353 131.725  15.678  1.00  0.00     0.187 HD
BRANCH   9  20
HETATM   20  N1  LIG X 999      44.290 131.463  23.254  1.00  0.00    -0.053 NA
HETATM   21  N2  LIG X 999      44.298 130.343  23.767  1.00  0.00    -0.160 NA
HETATM   22  N3  LIG X 999      44.305 129.226  24.280  1.00  0.00     0.068 N 
ENDBRANCH   9  20
ENDBRANCH   4   5
ENDBRANCH   3   4
TORSDOF 3
