MODEL 1
REMARK VINA RESULT:      -7.5      0.000      0.000
REMARK  4 active torsions:
REMARK  status: ('A' for Active; 'I' for Inactive)
REMARK    1  A    between atoms: C3_4  and  O1_5 
REMARK    2  A    between atoms: C3_4  and  O2_6 
REMARK    3  A    between atoms: O2_6  and  C4_7 
REMARK    4  A    between atoms: C7_10  and  N2_11 
ROOT
HETATM    1  C4  LIG X 999      44.715 131.283  17.294  1.00  0.00     0.091 A 
HETATM    2  C5  LIG X 999      43.550 131.689  16.630  1.00  0.00     0.040 A 
HETATM    3  C6  LIG X 999      42.432 132.105  17.349  1.00  0.00     0.033 A 
HETATM    4  C7  LIG X 999      42.435 132.115  18.750  1.00  0.00     0.037 A 
HETATM    5  C8  LIG X 999      43.605 131.706  19.446  1.00  0.00     0.003 A 
HETATM    6  C9  LIG X 999      43.687 131.723  20.857  1.00  0.00     0.014 A 
HETATM    7  C10 LIG X 999      44.848 131.303  21.510  1.00  0.00     0.001 A 
HETATM    8  C11 LIG X 999      45.948 130.866  20.777  1.00  0.00     0.001 A 
HETATM    9  C12 LIG X 999      45.901 130.854  19.385  1.00  0.00     0.015 A 
HETATM   10  C13 LIG X 999      44.743 131.274  18.703  1.00  0.00     0.010 A 
ENDROOT
BRANCH   1  11
HETATM   11  O2  LIG X 999      45.839 130.843  16.576  1.00  0.00    -0.273 OA
BRANCH  11  12
HETATM   12  C3  LIG X 999      46.304 131.408  15.378  1.00  0.00     0.265 C 
HETATM   13  N1  LIG X 999      46.861 130.635  14.473  1.00  0.00    -0.350 N 
HETATM   14  C1  LIG X 999      46.964 129.189  14.725  1.00  0.00     0.153 C 
HETATM   15  C2  LIG X 999      47.379 131.182  13.212  1.00  0.00     0.153 C 
BRANCH  12  16
HETATM   16  O1  LIG X 999      46.200 132.793  15.198  1.00  0.00    -0.327 OA
HETATM   17  H7  LIG X 999      45.543 133.237  14.570  1.00  0.00     0.221 HD
ENDBRANCH  12  16
ENDBRANCH  11  12
ENDBRANCH   1  11
BRANCH   4  18
HETATM   18  N2  LIG X 999      41.234 132.524  19.423  1.00  0.00    -0.398 N 
HETATM   19  H10 LIG X 999      40.383 131.930  19.494  1.00  0.00     0.156 HD
HETATM   20  H11 LIG X 999      41.147 133.498  19.793  1.00  0.00     0.156 HD
ENDBRANCH   4  18
TORSDOF 4
ENDMDL
MODEL 2
REMARK VINA RESULT:      -7.4      1.631      3.089
REMARK  4 active torsions:
REMARK  status: ('A' for Active; 'I' for Inactive)
REMARK    1  A    between atoms: C3_4  and  O1_5 
REMARK    2  A    between atoms: C3_4  and  O2_6 
REMARK    3  A    between atoms: O2_6  and  C4_7 
REMARK    4  A    between atoms: C7_10  and  N2_11 
ROOT
HETATM    1  C4  LIG X 999      44.867 130.952  18.009  1.00  0.00     0.091 A 
HETATM    2  C5  LIG X 999      45.967 130.488  18.742  1.00  0.00     0.040 A 
HETATM    3  C6  LIG X 999      45.996 130.604  20.129  1.00  0.00     0.033 A 
HETATM    4  C7  LIG X 999      44.938 131.200  20.827  1.00  0.00     0.037 A 
HETATM    5  C8  LIG X 999      43.810 131.680  20.106  1.00  0.00     0.003 A 
HETATM    6  C9  LIG X 999      42.695 132.260  20.750  1.00  0.00     0.014 A 
HETATM    7  C10 LIG X 999      41.608 132.732  20.011  1.00  0.00     0.001 A 
HETATM    8  C11 LIG X 999      41.606 132.632  18.622  1.00  0.00     0.001 A 
HETATM    9  C12 LIG X 999      42.686 132.049  17.961  1.00  0.00     0.015 A 
HETATM   10  C13 LIG X 999      43.792 131.564  18.685  1.00  0.00     0.010 A 
ENDROOT
BRANCH   1  11
HETATM   11  O2  LIG X 999      44.840 130.856  16.608  1.00  0.00    -0.273 OA
BRANCH  11  12
HETATM   12  C3  LIG X 999      45.645 130.000  15.841  1.00  0.00     0.265 C 
HETATM   13  N1  LIG X 999      46.493 130.511  14.978  1.00  0.00    -0.350 N 
HETATM   14  C1  LIG X 999      46.598 131.972  14.850  1.00  0.00     0.153 C 
HETATM   15  C2  LIG X 999      47.344 129.655  14.140  1.00  0.00     0.153 C 
BRANCH  12  16
HETATM   16  O1  LIG X 999      45.490 128.615  15.988  1.00  0.00    -0.327 OA
HETATM   17  H7  LIG X 999      44.623 128.164  16.248  1.00  0.00     0.221 HD
ENDBRANCH  12  16
ENDBRANCH  11  12
ENDBRANCH   1  11
BRANCH   4  18
HETATM   18  N2  LIG X 999      45.052 131.315  22.255  1.00  0.00    -0.398 N 
HETATM   19  H10 LIG X 999      45.112 132.226  22.755  1.00  0.00     0.156 HD
HETATM   20  H11 LIG X 999      45.177 130.459  22.841  1.00  0.00     0.156 HD
ENDBRANCH   4  18
TORSDOF 4
ENDMDL
MODEL 3
REMARK VINA RESULT:      -6.3      3.271      5.879
REMARK  4 active torsions:
REMARK  status: ('A' for Active; 'I' for Inactive)
REMARK    1  A    between atoms: C3_4  and  O1_5 
REMARK    2  A    between atoms: C3_4  and  O2_6 
REMARK    3  A    between atoms: O2_6  and  C4_7 
REMARK    4  A    between atoms: C7_10  and  N2_11 
ROOT
HETATM    1  C4  LIG X 999      43.957 131.400  21.129  1.00  0.00     0.091 A 
HETATM    2  C5  LIG X 999      42.732 132.035  21.376  1.00  0.00     0.040 A 
HETATM    3  C6  LIG X 999      41.947 132.497  20.324  1.00  0.00     0.033 A 
HETATM    4  C7  LIG X 999      42.364 132.355  18.994  1.00  0.00     0.037 A 
HETATM    5  C8  LIG X 999      43.603 131.715  18.717  1.00  0.00     0.003 A 
HETATM    6  C9  LIG X 999      44.066 131.509  17.398  1.00  0.00     0.014 A 
HETATM    7  C10 LIG X 999      45.293 130.886  17.161  1.00  0.00     0.001 A 
HETATM    8  C11 LIG X 999      46.078 130.452  18.226  1.00  0.00     0.001 A 
HETATM    9  C12 LIG X 999      45.639 130.627  19.536  1.00  0.00     0.015 A 
HETATM   10  C13 LIG X 999      44.405 131.251  19.801  1.00  0.00     0.010 A 
ENDROOT
BRANCH   1  11
HETATM   11  O2  LIG X 999      44.763 130.948  22.187  1.00  0.00    -0.273 OA
BRANCH  11  12
HETATM   12  C3  LIG X 999      44.294 130.305  23.343  1.00  0.00     0.265 C 
HETATM   13  N1  LIG X 999      44.395 129.000  23.442  1.00  0.00    -0.350 N 
HETATM   14  C1  LIG X 999      45.019 128.240  22.348  1.00  0.00     0.153 C 
HETATM   15  C2  LIG X 999      43.903 128.280  24.624  1.00  0.00     0.153 C 
BRANCH  12  16
HETATM   16  O1  LIG X 999      43.690 131.074  24.347  1.00  0.00    -0.327 OA
HETATM   17  H7  LIG X 999      44.167 131.401  25.177  1.00  0.00     0.221 HD
ENDBRANCH  12  16
ENDBRANCH  11  12
ENDBRANCH   1  11
BRANCH   4  18
HETATM   18  N2  LIG X 999      41.517 132.887  17.962  1.00  0.00    -0.398 N 
HETATM   19  H10 LIG X 999      41.004 133.788  18.047  1.00  0.00     0.156 HD
HETATM   20  H11 LIG X 999      41.314 132.320  17.108  1.00  0.00     0.156 HD
ENDBRANCH   4  18
TORSDOF 4
ENDMDL
MODEL 4
REMARK VINA RESULT:      -5.2      2.191      5.281
REMARK  4 active torsions:
REMARK  status: ('A' for Active; 'I' for Inactive)
REMARK    1  A    between atoms: C3_4  and  O1_5 
REMARK    2  A    between atoms: C3_4  and  O2_6 
REMARK    3  A    between atoms: O2_6  and  C4_7 
REMARK    4  A    between atoms: C7_10  and  N2_11 
ROOT
HETATM    1  C4  LIG X 999      44.950 131.004  17.441  1.00  0.00     0.091 A 
HETATM    2  C5  LIG X 999      43.676 131.588  17.406  1.00  0.00     0.040 A 
HETATM    3  C6  LIG X 999      43.055 131.864  16.192  1.00  0.00     0.033 A 
HETATM    4  C7  LIG X 999      43.688 131.582  14.975  1.00  0.00     0.037 A 
HETATM    5  C8  LIG X 999      44.981 130.990  14.983  1.00  0.00     0.003 A 
HETATM    6  C9  LIG X 999      45.661 130.649  13.792  1.00  0.00     0.014 A 
HETATM    7  C10 LIG X 999      46.935 130.079  13.836  1.00  0.00     0.001 A 
HETATM    8  C11 LIG X 999      47.554 129.832  15.058  1.00  0.00     0.001 A 
HETATM    9  C12 LIG X 999      46.900 130.143  16.249  1.00  0.00     0.015 A 
HETATM   10  C13 LIG X 999      45.614 130.717  16.231  1.00  0.00     0.010 A 
ENDROOT
BRANCH   1  11
HETATM   11  O2  LIG X 999      45.591 130.740  18.663  1.00  0.00    -0.273 OA
BRANCH  11  12
HETATM   12  C3  LIG X 999      45.287 131.360  19.885  1.00  0.00     0.265 C 
HETATM   13  N1  LIG X 999      45.197 130.632  20.974  1.00  0.00    -0.350 N 
HETATM   14  C1  LIG X 999      45.439 129.183  20.894  1.00  0.00     0.153 C 
HETATM   15  C2  LIG X 999      44.864 131.232  22.273  1.00  0.00     0.153 C 
BRANCH  12  16
HETATM   16  O1  LIG X 999      45.047 132.741  19.901  1.00  0.00    -0.327 OA
HETATM   17  H7  LIG X 999      44.188 133.164  20.227  1.00  0.00     0.221 HD
ENDBRANCH  12  16
ENDBRANCH  11  12
ENDBRANCH   1  11
BRANCH   4  18
HETATM   18  N2  LIG X 999      43.000 131.926  13.761  1.00  0.00    -0.398 N 
HETATM   19  H10 LIG X 999      42.007 132.235  13.731  1.00  0.00     0.156 HD
HETATM   20  H11 LIG X 999      43.465 131.781  12.837  1.00  0.00     0.156 HD
ENDBRANCH   4  18
TORSDOF 4
ENDMDL
MODEL 5
REMARK VINA RESULT:      -5.0      2.237      3.075
REMARK  4 active torsions:
REMARK  status: ('A' for Active; 'I' for Inactive)
REMARK    1  A    between atoms: C3_4  and  O1_5 
REMARK    2  A    between atoms: C3_4  and  O2_6 
REMARK    3  A    between atoms: O2_6  and  C4_7 
REMARK    4  A    between atoms: C7_10  and  N2_11 
ROOT
HETATM    1  C4  LIG X 999      44.204 131.551  19.910  1.00  0.00     0.091 A 
HETATM    2  C5  LIG X 999      43.209 132.515  20.119  1.00  0.00     0.040 A 
HETATM    3  C6  LIG X 999      42.464 132.523  21.295  1.00  0.00     0.033 A 
HETATM    4  C7  LIG X 999      42.677 131.563  22.292  1.00  0.00     0.037 A 
HETATM    5  C8  LIG X 999      43.681 130.573  22.104  1.00  0.00     0.003 A 
HETATM    6  C9  LIG X 999      43.970 129.597  23.083  1.00  0.00     0.014 A 
HETATM    7  C10 LIG X 999      44.954 128.632  22.861  1.00  0.00     0.001 A 
HETATM    8  C11 LIG X 999      45.673 128.622  21.669  1.00  0.00     0.001 A 
HETATM    9  C12 LIG X 999      45.420 129.583  20.692  1.00  0.00     0.015 A 
HETATM   10  C13 LIG X 999      44.434 130.567  20.893  1.00  0.00     0.010 A 
ENDROOT
BRANCH   1  11
HETATM   11  O2  LIG X 999      44.946 131.525  18.717  1.00  0.00    -0.273 OA
BRANCH  11  12
HETATM   12  C3  LIG X 999      44.402 131.391  17.430  1.00  0.00     0.265 C 
HETATM   13  N1  LIG X 999      45.047 130.691  16.526  1.00  0.00    -0.350 N 
HETATM   14  C1  LIG X 999      46.317 130.042  16.888  1.00  0.00     0.153 C 
HETATM   15  C2  LIG X 999      44.528 130.537  15.160  1.00  0.00     0.153 C 
BRANCH  12  16
HETATM   16  O1  LIG X 999      43.200 132.047  17.133  1.00  0.00    -0.327 OA
HETATM   17  H7  LIG X 999      43.142 132.950  16.682  1.00  0.00     0.221 HD
ENDBRANCH  12  16
ENDBRANCH  11  12
ENDBRANCH   1  11
BRANCH   4  18
HETATM   18  N2  LIG X 999      41.847 131.613  23.464  1.00  0.00    -0.398 N 
HETATM   19  H10 LIG X 999      42.130 131.223  24.386  1.00  0.00     0.156 HD
HETATM   20  H11 LIG X 999      40.868 131.971  23.397  1.00  0.00     0.156 HD
ENDBRANCH   4  18
TORSDOF 4
ENDMDL
MODEL 6
REMARK VINA RESULT:      -4.9      4.871      6.723
REMARK  4 active torsions:
REMARK  status: ('A' for Active; 'I' for Inactive)
REMARK    1  A    between atoms: C3_4  and  O1_5 
REMARK    2  A    between atoms: C3_4  and  O2_6 
REMARK    3  A    between atoms: O2_6  and  C4_7 
REMARK    4  A    between atoms: C7_10  and  N2_11 
ROOT
HETATM    1  C4  LIG X 999      44.705 128.440  22.827  1.00  0.00     0.091 A 
HETATM    2  C5  LIG X 999      43.785 128.388  23.882  1.00  0.00     0.040 A 
HETATM    3  C6  LIG X 999      42.880 129.426  24.086  1.00  0.00     0.033 A 
HETATM    4  C7  LIG X 999      42.874 130.555  23.257  1.00  0.00     0.037 A 
HETATM    5  C8  LIG X 999      43.799 130.632  22.179  1.00  0.00     0.003 A 
HETATM    6  C9  LIG X 999      43.825 131.725  21.285  1.00  0.00     0.014 A 
HETATM    7  C10 LIG X 999      44.754 131.774  20.244  1.00  0.00     0.001 A 
HETATM    8  C11 LIG X 999      45.669 130.740  20.068  1.00  0.00     0.001 A 
HETATM    9  C12 LIG X 999      45.656 129.642  20.926  1.00  0.00     0.015 A 
HETATM   10  C13 LIG X 999      44.728 129.568  21.982  1.00  0.00     0.010 A 
ENDROOT
BRANCH   1  11
HETATM   11  O2  LIG X 999      45.634 127.405  22.627  1.00  0.00    -0.273 OA
BRANCH  11  12
HETATM   12  C3  LIG X 999      45.310 126.052  22.449  1.00  0.00     0.265 C 
HETATM   13  N1  LIG X 999      46.266 125.152  22.459  1.00  0.00    -0.350 N 
HETATM   14  C1  LIG X 999      47.656 125.579  22.680  1.00  0.00     0.153 C 
HETATM   15  C2  LIG X 999      45.979 123.725  22.259  1.00  0.00     0.153 C 
BRANCH  12  16
HETATM   16  O1  LIG X 999      43.972 125.701  22.222  1.00  0.00    -0.327 OA
HETATM   17  H7  LIG X 999      43.552 125.626  21.305  1.00  0.00     0.221 HD
ENDBRANCH  12  16
ENDBRANCH  11  12
ENDBRANCH   1  11
BRANCH   4  18
HETATM   18  N2  LIG X 999      41.934 131.602  23.549  1.00  0.00    -0.398 N 
HETATM   19  H10 LIG X 999      41.474 132.181  22.818  1.00  0.00     0.156 HD
HETATM   20  H11 LIG X 999      41.753 131.880  24.540  1.00  0.00     0.156 HD
ENDBRANCH   4  18
TORSDOF 4
ENDMDL
MODEL 7
REMARK VINA RESULT:      -4.8      5.024      6.886
REMARK  4 active torsions:
REMARK  status: ('A' for Active; 'I' for Inactive)
REMARK    1  A    between atoms: C3_4  and  O1_5 
REMARK    2  A    between atoms: C3_4  and  O2_6 
REMARK    3  A    between atoms: O2_6  and  C4_7 
REMARK    4  A    between atoms: C7_10  and  N2_11 
ROOT
HETATM    1  C4  LIG X 999      43.384 129.043  23.326  1.00  0.00     0.091 A 
HETATM    2  C5  LIG X 999      42.127 129.158  23.935  1.00  0.00     0.040 A 
HETATM    3  C6  LIG X 999      41.441 128.025  24.365  1.00  0.00     0.033 A 
HETATM    4  C7  LIG X 999      41.977 126.744  24.187  1.00  0.00     0.037 A 
HETATM    5  C8  LIG X 999      43.250 126.601  23.571  1.00  0.00     0.003 A 
HETATM    6  C9  LIG X 999      43.864 125.340  23.391  1.00  0.00     0.014 A 
HETATM    7  C10 LIG X 999      45.110 125.234  22.771  1.00  0.00     0.001 A 
HETATM    8  C11 LIG X 999      45.772 126.374  22.325  1.00  0.00     0.001 A 
HETATM    9  C12 LIG X 999      45.199 127.632  22.503  1.00  0.00     0.015 A 
HETATM   10  C13 LIG X 999      43.944 127.765  23.127  1.00  0.00     0.010 A 
ENDROOT
BRANCH   1  11
HETATM   11  O2  LIG X 999      44.073 130.180  22.872  1.00  0.00    -0.273 OA
BRANCH  11  12
HETATM   12  C3  LIG X 999      43.620 131.054  21.872  1.00  0.00     0.265 C 
HETATM   13  N1  LIG X 999      44.357 131.249  20.802  1.00  0.00    -0.350 N 
HETATM   14  C1  LIG X 999      45.631 130.528  20.664  1.00  0.00     0.153 C 
HETATM   15  C2  LIG X 999      43.934 132.168  19.737  1.00  0.00     0.153 C 
BRANCH  12  16
HETATM   16  O1  LIG X 999      42.408 131.731  22.064  1.00  0.00    -0.327 OA
HETATM   17  H7  LIG X 999      42.109 132.121  22.948  1.00  0.00     0.221 HD
ENDBRANCH  12  16
ENDBRANCH  11  12
ENDBRANCH   1  11
BRANCH   4  18
HETATM   18  N2  LIG X 999      41.196 125.620  24.625  1.00  0.00    -0.398 N 
HETATM   19  H10 LIG X 999      41.509 124.632  24.534  1.00  0.00     0.156 HD
HETATM   20  H11 LIG X 999      40.221 125.764  24.973  1.00  0.00     0.156 HD
ENDBRANCH   4  18
TORSDOF 4
ENDMDL
MODEL 8
REMARK VINA RESULT:      -4.7      3.238      5.176
REMARK  4 active torsions:
REMARK  status: ('A' for Active; 'I' for Inactive)
REMARK    1  A    between atoms: C3_4  and  O1_5 
REMARK    2  A    between atoms: C3_4  and  O2_6 
REMARK    3  A    between atoms: O2_6  and  C4_7 
REMARK    4  A    between atoms: C7_10  and  N2_11 
ROOT
HETATM    1  C4  LIG X 999      45.019 130.108  21.340  1.00  0.00     0.091 A 
HETATM    2  C5  LIG X 999      45.644 128.866  21.163  1.00  0.00     0.040 A 
HETATM    3  C6  LIG X 999      45.419 127.825  22.059  1.00  0.00     0.033 A 
HETATM    4  C7  LIG X 999      44.580 127.992  23.168  1.00  0.00     0.037 A 
HETATM    5  C8  LIG X 999      43.935 129.243  23.371  1.00  0.00     0.003 A 
HETATM    6  C9  LIG X 999      43.050 129.469  24.448  1.00  0.00     0.014 A 
HETATM    7  C10 LIG X 999      42.442 130.714  24.625  1.00  0.00     0.001 A 
HETATM    8  C11 LIG X 999      42.696 131.753  23.734  1.00  0.00     0.001 A 
HETATM    9  C12 LIG X 999      43.552 131.553  22.652  1.00  0.00     0.015 A 
HETATM   10  C13 LIG X 999      44.176 130.307  22.452  1.00  0.00     0.010 A 
ENDROOT
BRANCH   1  11
HETATM   11  O2  LIG X 999      45.256 131.169  20.451  1.00  0.00    -0.273 OA
BRANCH  11  12
HETATM   12  C3  LIG X 999      45.136 131.095  19.055  1.00  0.00     0.265 C 
HETATM   13  N1  LIG X 999      44.065 131.584  18.472  1.00  0.00    -0.350 N 
HETATM   14  C1  LIG X 999      43.024 132.219  19.294  1.00  0.00     0.153 C 
HETATM   15  C2  LIG X 999      43.885 131.514  17.015  1.00  0.00     0.153 C 
BRANCH  12  16
HETATM   16  O1  LIG X 999      46.147 130.461  18.321  1.00  0.00    -0.327 OA
HETATM   17  H7  LIG X 999      46.062 130.191  17.350  1.00  0.00     0.221 HD
ENDBRANCH  12  16
ENDBRANCH  11  12
ENDBRANCH   1  11
BRANCH   4  18
HETATM   18  N2  LIG X 999      44.423 126.883  24.069  1.00  0.00    -0.398 N 
HETATM   19  H10 LIG X 999      43.540 126.677  24.578  1.00  0.00     0.156 HD
HETATM   20  H11 LIG X 999      45.247 126.289  24.316  1.00  0.00     0.156 HD
ENDBRANCH   4  18
TORSDOF 4
ENDMDL
MODEL 9
REMARK VINA RESULT:      -4.7      7.731      9.680
REMARK  4 active torsions:
REMARK  status: ('A' for Active; 'I' for Inactive)
REMARK    1  A    between atoms: C3_4  and  O1_5 
REMARK    2  A    between atoms: C3_4  and  O2_6 
REMARK    3  A    between atoms: O2_6  and  C4_7 
REMARK    4  A    between atoms: C7_10  and  N2_11 
ROOT
HETATM    1  C4  LIG X 999      42.383 125.894  23.609  1.00  0.00     0.091 A 
HETATM    2  C5  LIG X 999      43.432 125.536  22.751  1.00  0.00     0.040 A 
HETATM    3  C6  LIG X 999      43.346 124.391  21.965  1.00  0.00     0.033 A 
HETATM    4  C7  LIG X 999      42.221 123.559  22.019  1.00  0.00     0.037 A 
HETATM    5  C8  LIG X 999      41.143 123.900  22.882  1.00  0.00     0.003 A 
HETATM    6  C9  LIG X 999      39.966 123.123  22.960  1.00  0.00     0.014 A 
HETATM    7  C10 LIG X 999      38.931 123.480  23.827  1.00  0.00     0.001 A 
HETATM    8  C11 LIG X 999      39.043 124.615  24.625  1.00  0.00     0.001 A 
HETATM    9  C12 LIG X 999      40.186 125.409  24.557  1.00  0.00     0.015 A 
HETATM   10  C13 LIG X 999      41.242 125.071  23.690  1.00  0.00     0.010 A 
ENDROOT
BRANCH   1  11
HETATM   11  O2  LIG X 999      42.471 127.038  24.419  1.00  0.00    -0.273 OA
BRANCH  11  12
HETATM   12  C3  LIG X 999      42.292 128.358  23.977  1.00  0.00     0.265 C 
HETATM   13  N1  LIG X 999      43.306 129.193  24.009  1.00  0.00    -0.350 N 
HETATM   14  C1  LIG X 999      44.614 128.720  24.487  1.00  0.00     0.153 C 
HETATM   15  C2  LIG X 999      43.163 130.589  23.574  1.00  0.00     0.153 C 
BRANCH  12  16
HETATM   16  O1  LIG X 999      41.020 128.762  23.551  1.00  0.00    -0.327 OA
HETATM   17  H7  LIG X 999      40.181 128.678  24.109  1.00  0.00     0.221 HD
ENDBRANCH  12  16
ENDBRANCH  11  12
ENDBRANCH   1  11
BRANCH   4  18
HETATM   18  N2  LIG X 999      42.218 122.375  21.204  1.00  0.00    -0.398 N 
HETATM   19  H10 LIG X 999      41.773 121.480  21.492  1.00  0.00     0.156 HD
HETATM   20  H11 LIG X 999      42.761 122.353  20.312  1.00  0.00     0.156 HD
ENDBRANCH   4  18
TORSDOF 4
ENDMDL
