REMARK VINA RESULT:      -7.7      3.768      6.737
REMARK  2 active torsions:
REMARK  status: ('A' for Active; 'I' for Inactive)
REMARK    1  A    between atoms: C1_2  and  C2_4 
REMARK    2  A    between atoms: C3_5  and  C4_6 
ROOT
HETATM    1  C4  LIG X 999      45.136 130.931  17.220  1.00  0.00     0.019 A 
HETATM    2  C5  LIG X 999      45.600 129.615  17.338  1.00  0.00     0.021 A 
HETATM    3  C6  LIG X 999      46.448 129.077  16.366  1.00  0.00     0.013 A 
HETATM    4  C7  LIG X 999      46.841 129.854  15.265  1.00  0.00    -0.026 A 
HETATM    5  C8  LIG X 999      47.693 129.325  14.283  1.00  0.00     0.012 A 
HETATM    6  C9  LIG X 999      48.076 130.108  13.191  1.00  0.00     0.001 A 
HETATM    7  C10 LIG X 999      47.614 131.422  13.070  1.00  0.00     0.001 A 
HETATM    8  C11 LIG X 999      46.765 131.962  14.041  1.00  0.00     0.012 A 
HETATM    9  C12 LIG X 999      46.372 131.185  15.144  1.00  0.00    -0.025 A 
HETATM   10  C13 LIG X 999      45.521 131.715  16.125  1.00  0.00     0.032 A 
ENDROOT
BRANCH   1  11
HETATM   11  C3  LIG X 999      44.262 131.477  18.226  1.00  0.00    -0.056 C 
HETATM   12  C2  LIG X 999      43.531 131.934  19.068  1.00  0.00     0.010 C 
BRANCH  12  13
HETATM   13  C1  LIG X 999      42.661 132.479  20.071  1.00  0.00     0.258 C 
HETATM   14  O1  LIG X 999      41.771 133.308  19.748  1.00  0.00    -0.637 OA
HETATM   15  O2  LIG X 999      42.803 132.093  21.396  1.00  0.00    -0.637 OA
ENDBRANCH  12  13
ENDBRANCH   1  11
TORSDOF 2
