REMARK VINA RESULT:      -6.4      3.028      6.914
REMARK  1 active torsions:
REMARK  status: ('A' for Active; 'I' for Inactive)
REMARK    1  A    between atoms: C11_13  and  N2_14 
ROOT
HETATM    1  N2  LIG X 999      43.112 131.748  23.402  1.00  0.00    -0.053 NA
HETATM    2  N3  LIG X 999      42.758 130.739  24.013  1.00  0.00    -0.160 NA
HETATM    3  N4  LIG X 999      42.404 129.732  24.625  1.00  0.00     0.068 N 
ENDROOT
BRANCH   1   4
HETATM    4  C11 LIG X 999      43.080 131.796  21.975  1.00  0.00     0.175 A 
HETATM    5  C10 LIG X 999      44.108 131.379  21.141  1.00  0.00     0.026 A 
HETATM    6  C5  LIG X 999      43.655 131.602  19.885  1.00  0.00     0.017 A 
HETATM    7  C9  LIG X 999      45.377 130.834  21.349  1.00  0.00     0.016 A 
HETATM    8  C4  LIG X 999      42.410 132.131  19.945  1.00  0.00     0.046 A 
HETATM    9  C6  LIG X 999      44.360 131.329  18.736  1.00  0.00     0.005 A 
HETATM   10  C3  LIG X 999      41.680 132.471  18.711  1.00  0.00     0.033 A 
HETATM   11  N5  LIG X 999      42.030 132.261  21.236  1.00  0.00    -0.337 N 
HETATM   12  C2  LIG X 999      42.286 132.242  17.523  1.00  0.00     0.034 A 
HETATM   13  C1  LIG X 999      43.671 131.654  17.460  1.00  0.00     0.059 A 
HETATM   14  N1  LIG X 999      44.252 131.435  16.322  1.00  0.00    -0.300 NA
HETATM   15  H1  LIG X 999      43.783 131.655  15.415  1.00  0.00     0.187 HD
HETATM   16  H7  LIG X 999      41.123 132.639  21.589  1.00  0.00     0.167 HD
HETATM   17  C7  LIG X 999      45.649 130.778  18.894  1.00  0.00     0.015 A 
HETATM   18  C8  LIG X 999      46.154 130.530  20.202  1.00  0.00     0.002 A 
ENDBRANCH   1   4
TORSDOF 1
