REMARK VINA RESULT:      -7.6      1.293      2.708
REMARK  1 active torsions:
REMARK  status: ('A' for Active; 'I' for Inactive)
REMARK    1  A    between atoms: C2_2  and  N1_3 
ROOT
HETATM    1  N1  LIG X 999      44.648 131.641  15.115  1.00  0.00    -0.073 NA
HETATM    2  N2  LIG X 999      45.477 131.319  14.263  1.00  0.00    -0.162 NA
HETATM    3  N3  LIG X 999      46.304 130.999  13.410  1.00  0.00     0.068 N 
ENDROOT
BRANCH   1   4
HETATM    4  C2  LIG X 999      44.819 131.334  16.505  1.00  0.00     0.094 A 
HETATM    5  C1  LIG X 999      45.939 130.589  16.897  1.00  0.00     0.035 A 
HETATM    6  C10 LIG X 999      46.146 130.266  18.241  1.00  0.00     0.014 A 
HETATM    7  C9  LIG X 999      45.233 130.685  19.217  1.00  0.00    -0.025 A 
HETATM    8  C4  LIG X 999      44.091 131.442  18.829  1.00  0.00    -0.023 A 
HETATM    9  C8  LIG X 999      45.432 130.361  20.573  1.00  0.00     0.021 A 
HETATM   10  C3  LIG X 999      43.894 131.760  17.478  1.00  0.00     0.046 A 
HETATM   11  C5  LIG X 999      43.168 131.863  19.807  1.00  0.00     0.021 A 
HETATM   12  C6  LIG X 999      43.406 131.529  21.140  1.00  0.00    -0.024 A 
HETATM   13  C7  LIG X 999      44.498 130.804  21.510  1.00  0.00    -0.024 A 
HETATM   14  C14 LIG X 999      42.569 131.842  22.318  1.00  0.00     0.276 C 
HETATM   15  C11 LIG X 999      44.494 130.565  22.969  1.00  0.00     0.276 C 
HETATM   16  N4  LIG X 999      43.348 131.366  23.506  1.00  0.00    -0.067 N 
HETATM   17  C12 LIG X 999      42.499 130.536  24.390  1.00  0.00     0.272 C 
HETATM   18  C13 LIG X 999      43.857 132.526  24.276  1.00  0.00     0.272 C 
ENDBRANCH   1   4
TORSDOF 1
