REMARK VINA RESULT:      -5.3      7.664      9.160
REMARK  2 active torsions:
REMARK  status: ('A' for Active; 'I' for Inactive)
REMARK    1  A    between atoms: N1_1  and  C1_2 
REMARK    2  A    between atoms: C2_5  and  C3_6 
ROOT
HETATM    1  C3  LIG X 999      50.564 137.297  21.655  1.00  0.00     0.030 A 
HETATM    2  C4  LIG X 999      51.763 137.815  22.177  1.00  0.00     0.017 A 
HETATM    3  C5  LIG X 999      52.403 137.199  23.250  1.00  0.00     0.002 A 
HETATM    4  C6  LIG X 999      51.865 136.052  23.825  1.00  0.00     0.012 A 
HETATM    5  C7  LIG X 999      50.687 135.492  23.313  1.00  0.00    -0.025 A 
HETATM    6  C8  LIG X 999      50.168 134.320  23.886  1.00  0.00     0.012 A 
HETATM    7  C9  LIG X 999      49.018 133.730  23.364  1.00  0.00     0.001 A 
HETATM    8  C10 LIG X 999      48.384 134.295  22.259  1.00  0.00     0.001 A 
HETATM    9  C11 LIG X 999      48.883 135.463  21.678  1.00  0.00     0.013 A 
HETATM   10  C12 LIG X 999      50.028 136.100  22.208  1.00  0.00    -0.011 A 
ENDROOT
BRANCH   1  11
HETATM   11  C2  LIG X 999      49.903 138.061  20.569  1.00  0.00     0.205 A 
HETATM   12  N3  LIG X 999      49.348 139.280  20.736  1.00  0.00    -0.119 NA
HETATM   13  N2  LIG X 999      48.829 139.624  19.567  1.00  0.00    -0.103 NA
HETATM   14  C1  LIG X 999      49.084 138.596  18.738  1.00  0.00     0.265 A 
HETATM   15  O1  LIG X 999      49.735 137.633  19.339  1.00  0.00    -0.255 OA
BRANCH  14  16
HETATM   16  N1  LIG X 999      48.690 138.562  17.370  1.00  0.00    -0.362 N 
HETATM   17  H1  LIG X 999      49.187 139.147  16.663  1.00  0.00     0.159 HD
HETATM   18  H2  LIG X 999      47.899 137.951  17.068  1.00  0.00     0.159 HD
ENDBRANCH  14  16
ENDBRANCH   1  11
TORSDOF 2
