REMARK VINA RESULT:      -6.9      2.115      3.122
REMARK  1 active torsions:
REMARK  status: ('A' for Active; 'I' for Inactive)
REMARK    1  A    between atoms: C8_8  and  N1_9 
ROOT
HETATM    1  N1  LIG X 999      43.768 131.587  15.958  1.00  0.00    -0.072 NA
HETATM    2  N2  LIG X 999      44.475 131.341  14.980  1.00  0.00    -0.162 NA
HETATM    3  N3  LIG X 999      45.178 131.103  13.999  1.00  0.00     0.068 N 
ENDROOT
BRANCH   1   4
HETATM    4  C8  LIG X 999      44.215 131.395  17.308  1.00  0.00     0.104 A 
HETATM    5  C7  LIG X 999      45.495 130.803  17.501  1.00  0.00     0.038 A 
HETATM    6  C6  LIG X 999      45.994 130.533  18.793  1.00  0.00     0.035 A 
HETATM    7  C5  LIG X 999      45.200 130.866  19.887  1.00  0.00     0.073 A 
HETATM    8  C4  LIG X 999      43.986 131.457  19.693  1.00  0.00     0.021 A 
HETATM    9  N4  LIG X 999      45.508 130.721  21.277  1.00  0.00    -0.209 NA
HETATM   10  C3  LIG X 999      43.400 131.759  20.880  1.00  0.00     0.047 A 
HETATM   11  C9  LIG X 999      43.446 131.765  18.451  1.00  0.00     0.009 A 
HETATM   12  C2  LIG X 999      42.182 132.430  20.925  1.00  0.00     0.018 A 
HETATM   13  C11 LIG X 999      44.343 131.298  21.893  1.00  0.00     0.278 A 
HETATM   14  C1  LIG X 999      41.586 132.785  19.693  1.00  0.00     0.002 A 
HETATM   15  C10 LIG X 999      42.214 132.466  18.460  1.00  0.00     0.015 A 
HETATM   16  O1  LIG X 999      44.183 131.392  23.138  1.00  0.00    -0.265 OA
ENDBRANCH   1   4
TORSDOF 1
