REMARK VINA RESULT:      -5.6      1.102      2.805
REMARK  3 active torsions:
REMARK  status: ('A' for Active; 'I' for Inactive)
REMARK       I    between atoms: N1_2  and  C3_4 
REMARK    1  A    between atoms: C3_4  and  O2_6 
REMARK    2  A    between atoms: O2_6  and  C4_7 
REMARK    3  A    between atoms: C7_10  and  N2_11 
ROOT
HETATM    1  C4  LIG X 999      43.405 131.520  17.739  1.00  0.00     0.092 A 
HETATM    2  C5  LIG X 999      42.178 132.192  17.826  1.00  0.00     0.040 A 
HETATM    3  C6  LIG X 999      41.685 132.613  19.058  1.00  0.00     0.033 A 
HETATM    4  C7  LIG X 999      42.404 132.388  20.239  1.00  0.00     0.037 A 
HETATM    5  C8  LIG X 999      43.672 131.751  20.172  1.00  0.00     0.003 A 
HETATM    6  C9  LIG X 999      44.476 131.552  21.317  1.00  0.00     0.014 A 
HETATM    7  C10 LIG X 999      45.716 130.918  21.218  1.00  0.00     0.001 A 
HETATM    8  C11 LIG X 999      46.183 130.477  19.982  1.00  0.00     0.001 A 
HETATM    9  C12 LIG X 999      45.419 130.674  18.834  1.00  0.00     0.015 A 
HETATM   10  C13 LIG X 999      44.166 131.314  18.908  1.00  0.00     0.010 A 
ENDROOT
BRANCH   1  11
HETATM   11  O2  LIG X 999      43.913 131.093  16.500  1.00  0.00    -0.261 OA
BRANCH  11  12
HETATM   12  C3  LIG X 999      45.141 131.482  15.945  1.00  0.00     0.367 C 
HETATM   13  N1  LIG X 999      45.911 130.533  15.188  1.00  0.00    -0.336 N 
HETATM   14  C1  LIG X 999      47.186 130.938  14.590  1.00  0.00     0.154 C 
HETATM   15  C2  LIG X 999      45.407 129.166  15.031  1.00  0.00     0.154 C 
HETATM   16  O1  LIG X 999      45.547 132.671  16.064  1.00  0.00    -0.238 OA
ENDBRANCH  11  12
ENDBRANCH   1  11
BRANCH   4  17
HETATM   17  N2  LIG X 999      41.814 132.812  21.479  1.00  0.00    -0.398 N 
HETATM   18  H9  LIG X 999      42.246 133.589  22.027  1.00  0.00     0.156 HD
HETATM   19  H10 LIG X 999      40.898 132.458  21.826  1.00  0.00     0.156 HD
ENDBRANCH   4  17
TORSDOF 3
