REMARK VINA RESULT:      -6.0      5.243      7.669
REMARK  3 active torsions:
REMARK  status: ('A' for Active; 'I' for Inactive)
REMARK    1  A    between atoms: C7_9  and  C8_10 
REMARK    2  A    between atoms: C9_14  and  N4_15 
REMARK    3  A    between atoms: N7_24  and  C14_25 
ROOT
HETATM    1  N4  LIG X 999      45.261 131.760  21.234  1.00  0.00    -0.025 NA
HETATM    2  N5  LIG X 999      45.098 131.456  20.052  1.00  0.00    -0.158 NA
HETATM    3  N6  LIG X 999      44.934 131.153  18.872  1.00  0.00     0.068 N 
ENDROOT
BRANCH   1   4
HETATM    4  C9  LIG X 999      44.589 131.044  22.268  1.00  0.00     0.302 A 
HETATM    5  N3  LIG X 999      44.590 131.411  23.558  1.00  0.00    -0.236 N 
HETATM    6  N2  LIG X 999      43.870 130.520  24.217  1.00  0.00    -0.145 NA
HETATM    7  H4  LIG X 999      45.057 132.242  23.984  1.00  0.00     0.193 HD
HETATM    8  C8  LIG X 999      43.462 129.625  23.289  1.00  0.00     0.203 A 
HETATM    9  O1  LIG X 999      43.893 129.948  22.089  1.00  0.00    -0.253 OA
BRANCH   8  10
HETATM   10  C7  LIG X 999      42.592 128.470  23.589  1.00  0.00     0.032 A 
HETATM   11  C6  LIG X 999      42.973 127.118  23.321  1.00  0.00     0.020 A 
HETATM   12  C1  LIG X 999      44.311 126.581  22.907  1.00  0.00     0.060 A 
HETATM   13  C5  LIG X 999      42.006 126.153  23.537  1.00  0.00     0.019 A 
HETATM   14  N1  LIG X 999      45.352 127.347  22.839  1.00  0.00    -0.299 NA
HETATM   15  C2  LIG X 999      44.456 125.104  22.671  1.00  0.00     0.034 A 
HETATM   16  H1  LIG X 999      46.297 126.979  22.586  1.00  0.00     0.187 HD
HETATM   17  C3  LIG X 999      43.431 124.255  22.890  1.00  0.00     0.033 A 
HETATM   18  C4  LIG X 999      42.151 124.813  23.356  1.00  0.00     0.048 A 
HETATM   19  N7  LIG X 999      41.006 124.179  23.711  1.00  0.00    -0.324 N 
HETATM   20  C13 LIG X 999      40.156 125.155  24.135  1.00  0.00     0.193 A 
HETATM   21  C12 LIG X 999      40.763 126.396  24.026  1.00  0.00     0.032 A 
HETATM   22  O2  LIG X 999      38.876 124.923  24.622  1.00  0.00    -0.171 OA
HETATM   23  C11 LIG X 999      40.365 127.688  24.345  1.00  0.00     0.018 A 
HETATM   24  C10 LIG X 999      41.291 128.730  24.119  1.00  0.00     0.018 A 
BRANCH  19  25
HETATM   25  C14 LIG X 999      40.766 122.737  23.744  1.00  0.00     0.127 C 
HETATM   26  C15 LIG X 999      39.488 122.396  22.988  1.00  0.00     0.027 C 
ENDBRANCH  19  25
ENDBRANCH   8  10
ENDBRANCH   1   4
TORSDOF 3
