MODEL 1
REMARK VINA RESULT:      -6.8      0.000      0.000
REMARK  6 active torsions:
REMARK  status: ('A' for Active; 'I' for Inactive)
REMARK    1  A    between atoms: S1_2  and  C1_3 
REMARK    2  A    between atoms: C1_3  and  N2_15 
REMARK    3  A    between atoms: N1_4  and  C2_5 
REMARK    4  A    between atoms: N2_15  and  C12_18 
REMARK    5  A    between atoms: C13_19  and  C14_20 
REMARK    6  A    between atoms: C14_20  and  O2_22 
ROOT
HETATM    1  C1  LIG X 999      43.062 131.245  22.881  1.00  0.00     0.266 C 
HETATM    2  N1  LIG X 999      43.473 132.137  22.025  1.00  0.00    -0.219 NA
ENDROOT
BRANCH   1   3
HETATM    3  S1  LIG X 999      43.134 131.649  24.625  1.00  0.00    -0.098 SA
HETATM    4  H1  LIG X 999      42.070 130.777  24.922  1.00  0.00     0.110 HD
ENDBRANCH   1   3
BRANCH   1   5
HETATM    5  N2  LIG X 999      42.517 129.972  22.467  1.00  0.00     0.010 N 
HETATM    6  H9  LIG X 999      42.591 129.885  21.427  1.00  0.00     0.293 HD
HETATM    7  H10 LIG X 999      41.506 129.953  22.710  1.00  0.00     0.293 HD
BRANCH   5   8
HETATM    8  C12 LIG X 999      43.258 128.881  23.057  1.00  0.00     0.164 A 
HETATM    9  C13 LIG X 999      42.721 127.913  23.926  1.00  0.00     0.114 A 
HETATM   10  S2  LIG X 999      43.978 126.910  24.417  1.00  0.00    -0.094 SA
HETATM   11  C16 LIG X 999      45.195 127.644  23.525  1.00  0.00     0.053 A 
HETATM   12  C17 LIG X 999      44.637 128.702  22.825  1.00  0.00     0.046 A 
BRANCH   9  13
HETATM   13  C14 LIG X 999      41.326 127.711  24.357  1.00  0.00     0.302 C 
HETATM   14  O1  LIG X 999      40.549 128.690  24.522  1.00  0.00    -0.259 OA
BRANCH  13  15
HETATM   15  O2  LIG X 999      40.857 126.407  24.539  1.00  0.00    -0.322 OA
HETATM   16  C15 LIG X 999      40.387 125.602  23.464  1.00  0.00     0.213 C 
ENDBRANCH  13  15
ENDBRANCH   9  13
ENDBRANCH   5   8
ENDBRANCH   1   5
BRANCH   2  17
HETATM   17  C2  LIG X 999      43.515 131.955  20.605  1.00  0.00     0.060 A 
HETATM   18  C3  LIG X 999      42.409 132.319  19.828  1.00  0.00     0.032 A 
HETATM   19  C4  LIG X 999      42.428 132.141  18.443  1.00  0.00     0.014 A 
HETATM   20  C5  LIG X 999      43.570 131.619  17.817  1.00  0.00    -0.026 A 
HETATM   21  C6  LIG X 999      43.603 131.436  16.425  1.00  0.00     0.012 A 
HETATM   22  C10 LIG X 999      44.703 131.277  18.596  1.00  0.00    -0.024 A 
HETATM   23  C7  LIG X 999      44.752 130.928  15.812  1.00  0.00     0.001 A 
HETATM   24  C8  LIG X 999      45.872 130.598  16.580  1.00  0.00     0.001 A 
HETATM   25  C9  LIG X 999      45.850 130.768  17.967  1.00  0.00     0.012 A 
HETATM   26  C11 LIG X 999      44.667 131.449  19.987  1.00  0.00     0.044 A 
ENDBRANCH   2  17
TORSDOF 6
ENDMDL
MODEL 2
REMARK VINA RESULT:      -6.0      1.761      2.556
REMARK  6 active torsions:
REMARK  status: ('A' for Active; 'I' for Inactive)
REMARK    1  A    between atoms: S1_2  and  C1_3 
REMARK    2  A    between atoms: C1_3  and  N2_15 
REMARK    3  A    between atoms: N1_4  and  C2_5 
REMARK    4  A    between atoms: N2_15  and  C12_18 
REMARK    5  A    between atoms: C13_19  and  C14_20 
REMARK    6  A    between atoms: C14_20  and  O2_22 
ROOT
HETATM    1  C1  LIG X 999      44.153 130.860  22.871  1.00  0.00     0.266 C 
HETATM    2  N1  LIG X 999      43.953 131.861  22.061  1.00  0.00    -0.219 NA
ENDROOT
BRANCH   1   3
HETATM    3  S1  LIG X 999      44.286 131.203  24.624  1.00  0.00    -0.098 SA
HETATM    4  H1  LIG X 999      44.306 132.592  24.402  1.00  0.00     0.110 HD
ENDBRANCH   1   3
BRANCH   1   5
HETATM    5  N2  LIG X 999      44.226 129.494  22.405  1.00  0.00     0.010 N 
HETATM    6  H9  LIG X 999      45.195 129.129  22.552  1.00  0.00     0.293 HD
HETATM    7  H10 LIG X 999      44.042 129.487  21.381  1.00  0.00     0.293 HD
BRANCH   5   8
HETATM    8  C12 LIG X 999      43.317 128.651  23.146  1.00  0.00     0.164 A 
HETATM    9  C13 LIG X 999      43.611 127.357  23.614  1.00  0.00     0.114 A 
HETATM   10  S2  LIG X 999      42.221 126.744  24.336  1.00  0.00    -0.094 SA
HETATM   11  C16 LIG X 999      41.251 128.094  24.109  1.00  0.00     0.053 A 
HETATM   12  C17 LIG X 999      42.001 129.057  23.452  1.00  0.00     0.046 A 
BRANCH   9  13
HETATM   13  C14 LIG X 999      44.878 126.606  23.561  1.00  0.00     0.302 C 
HETATM   14  O1  LIG X 999      45.215 125.834  24.500  1.00  0.00    -0.259 OA
BRANCH  13  15
HETATM   15  O2  LIG X 999      45.688 126.725  22.429  1.00  0.00    -0.322 OA
HETATM   16  C15 LIG X 999      46.813 125.886  22.195  1.00  0.00     0.213 C 
ENDBRANCH  13  15
ENDBRANCH   9  13
ENDBRANCH   5   8
ENDBRANCH   1   5
BRANCH   2  17
HETATM   17  C2  LIG X 999      43.860 131.760  20.635  1.00  0.00     0.060 A 
HETATM   18  C3  LIG X 999      42.670 132.117  19.993  1.00  0.00     0.032 A 
HETATM   19  C4  LIG X 999      42.559 132.016  18.604  1.00  0.00     0.014 A 
HETATM   20  C5  LIG X 999      43.651 131.580  17.840  1.00  0.00    -0.026 A 
HETATM   21  C6  LIG X 999      43.553 131.474  16.444  1.00  0.00     0.012 A 
HETATM   22  C10 LIG X 999      44.868 131.245  18.484  1.00  0.00    -0.024 A 
HETATM   23  C7  LIG X 999      44.654 131.052  15.693  1.00  0.00     0.001 A 
HETATM   24  C8  LIG X 999      45.857 130.729  16.328  1.00  0.00     0.001 A 
HETATM   25  C9  LIG X 999      45.966 130.822  17.719  1.00  0.00     0.012 A 
HETATM   26  C11 LIG X 999      44.964 131.339  19.880  1.00  0.00     0.044 A 
ENDBRANCH   2  17
TORSDOF 6
ENDMDL
MODEL 3
REMARK VINA RESULT:      -5.7      2.489      3.942
REMARK  6 active torsions:
REMARK  status: ('A' for Active; 'I' for Inactive)
REMARK    1  A    between atoms: S1_2  and  C1_3 
REMARK    2  A    between atoms: C1_3  and  N2_15 
REMARK    3  A    between atoms: N1_4  and  C2_5 
REMARK    4  A    between atoms: N2_15  and  C12_18 
REMARK    5  A    between atoms: C13_19  and  C14_20 
REMARK    6  A    between atoms: C14_20  and  O2_22 
ROOT
HETATM    1  C1  LIG X 999      43.057 132.173  19.745  1.00  0.00     0.266 C 
HETATM    2  N1  LIG X 999      43.036 132.002  18.453  1.00  0.00    -0.219 NA
ENDROOT
BRANCH   1   3
HETATM    3  S1  LIG X 999      41.630 132.927  20.523  1.00  0.00    -0.098 SA
HETATM    4  H1  LIG X 999      42.439 133.661  21.410  1.00  0.00     0.110 HD
ENDBRANCH   1   3
BRANCH   1   5
HETATM    5  N2  LIG X 999      44.167 131.739  20.562  1.00  0.00     0.010 N 
HETATM    6  H9  LIG X 999      44.828 132.537  20.703  1.00  0.00     0.293 HD
HETATM    7  H10 LIG X 999      44.680 130.994  20.049  1.00  0.00     0.293 HD
BRANCH   5   8
HETATM    8  C12 LIG X 999      43.707 131.310  21.864  1.00  0.00     0.164 A 
HETATM    9  C13 LIG X 999      44.036 130.087  22.476  1.00  0.00     0.114 A 
HETATM   10  S2  LIG X 999      43.199 130.002  23.933  1.00  0.00    -0.094 SA
HETATM   11  C16 LIG X 999      42.451 131.500  23.836  1.00  0.00     0.053 A 
HETATM   12  C17 LIG X 999      42.840 132.099  22.647  1.00  0.00     0.046 A 
BRANCH   9  13
HETATM   13  C14 LIG X 999      44.957 129.028  22.024  1.00  0.00     0.302 C 
HETATM   14  O1  LIG X 999      45.770 129.235  21.083  1.00  0.00    -0.259 OA
BRANCH  13  15
HETATM   15  O2  LIG X 999      44.950 127.798  22.687  1.00  0.00    -0.322 OA
HETATM   16  C15 LIG X 999      45.618 126.648  22.181  1.00  0.00     0.213 C 
ENDBRANCH  13  15
ENDBRANCH   9  13
ENDBRANCH   5   8
ENDBRANCH   1   5
BRANCH   2  17
HETATM   17  C2  LIG X 999      44.107 131.450  17.680  1.00  0.00     0.060 A 
HETATM   18  C3  LIG X 999      45.076 130.658  18.306  1.00  0.00     0.032 A 
HETATM   19  C4  LIG X 999      46.133 130.119  17.568  1.00  0.00     0.014 A 
HETATM   20  C5  LIG X 999      46.215 130.347  16.187  1.00  0.00    -0.026 A 
HETATM   21  C6  LIG X 999      47.271 129.810  15.434  1.00  0.00     0.012 A 
HETATM   22  C10 LIG X 999      45.220 131.123  15.543  1.00  0.00    -0.024 A 
HETATM   23  C7  LIG X 999      47.334 130.033  14.055  1.00  0.00     0.001 A 
HETATM   24  C8  LIG X 999      46.348 130.793  13.420  1.00  0.00     0.001 A 
HETATM   25  C9  LIG X 999      45.295 131.340  14.159  1.00  0.00     0.012 A 
HETATM   26  C11 LIG X 999      44.171 131.669  16.296  1.00  0.00     0.044 A 
ENDBRANCH   2  17
TORSDOF 6
ENDMDL
MODEL 4
REMARK VINA RESULT:      -5.7      2.797      6.880
REMARK  6 active torsions:
REMARK  status: ('A' for Active; 'I' for Inactive)
REMARK    1  A    between atoms: S1_2  and  C1_3 
REMARK    2  A    between atoms: C1_3  and  N2_15 
REMARK    3  A    between atoms: N1_4  and  C2_5 
REMARK    4  A    between atoms: N2_15  and  C12_18 
REMARK    5  A    between atoms: C13_19  and  C14_20 
REMARK    6  A    between atoms: C14_20  and  O2_22 
ROOT
HETATM    1  C1  LIG X 999      42.793 130.489  23.784  1.00  0.00     0.266 C 
HETATM    2  N1  LIG X 999      42.923 129.411  24.504  1.00  0.00    -0.219 NA
ENDROOT
BRANCH   1   3
HETATM    3  S1  LIG X 999      43.151 132.068  24.550  1.00  0.00    -0.098 SA
HETATM    4  H1  LIG X 999      44.066 131.483  25.445  1.00  0.00     0.110 HD
ENDBRANCH   1   3
BRANCH   1   5
HETATM    5  N2  LIG X 999      42.414 130.444  22.390  1.00  0.00     0.010 N 
HETATM    6  H9  LIG X 999      41.599 131.080  22.231  1.00  0.00     0.293 HD
HETATM    7  H10 LIG X 999      42.103 129.477  22.166  1.00  0.00     0.293 HD
BRANCH   5   8
HETATM    8  C12 LIG X 999      43.499 130.895  21.549  1.00  0.00     0.164 A 
HETATM    9  C13 LIG X 999      43.371 131.796  20.476  1.00  0.00     0.114 A 
HETATM   10  S2  LIG X 999      44.881 131.946  19.750  1.00  0.00    -0.094 SA
HETATM   11  C16 LIG X 999      45.716 130.924  20.785  1.00  0.00     0.053 A 
HETATM   12  C17 LIG X 999      44.821 130.436  21.723  1.00  0.00     0.046 A 
BRANCH   9  13
HETATM   13  C14 LIG X 999      42.189 132.547  20.017  1.00  0.00     0.302 C 
HETATM   14  O1  LIG X 999      41.503 133.234  20.822  1.00  0.00    -0.259 OA
BRANCH  13  15
HETATM   15  O2  LIG X 999      41.861 132.526  18.659  1.00  0.00    -0.322 OA
HETATM   16  C15 LIG X 999      42.623 131.810  17.694  1.00  0.00     0.213 C 
ENDBRANCH  13  15
ENDBRANCH   9  13
ENDBRANCH   5   8
ENDBRANCH   1   5
BRANCH   2  17
HETATM   17  C2  LIG X 999      42.641 128.081  24.053  1.00  0.00     0.060 A 
HETATM   18  C3  LIG X 999      43.679 127.286  23.554  1.00  0.00     0.032 A 
HETATM   19  C4  LIG X 999      43.420 125.990  23.101  1.00  0.00     0.014 A 
HETATM   20  C5  LIG X 999      42.121 125.467  23.167  1.00  0.00    -0.026 A 
HETATM   21  C6  LIG X 999      41.848 124.166  22.717  1.00  0.00     0.012 A 
HETATM   22  C10 LIG X 999      41.072 126.258  23.699  1.00  0.00    -0.024 A 
HETATM   23  C7  LIG X 999      40.550 123.652  22.801  1.00  0.00     0.001 A 
HETATM   24  C8  LIG X 999      39.518 124.431  23.332  1.00  0.00     0.001 A 
HETATM   25  C9  LIG X 999      39.774 125.730  23.778  1.00  0.00     0.012 A 
HETATM   26  C11 LIG X 999      41.342 127.562  24.139  1.00  0.00     0.044 A 
ENDBRANCH   2  17
TORSDOF 6
ENDMDL
MODEL 5
REMARK VINA RESULT:      -5.5      2.815      6.469
REMARK  6 active torsions:
REMARK  status: ('A' for Active; 'I' for Inactive)
REMARK    1  A    between atoms: S1_2  and  C1_3 
REMARK    2  A    between atoms: C1_3  and  N2_15 
REMARK    3  A    between atoms: N1_4  and  C2_5 
REMARK    4  A    between atoms: N2_15  and  C12_18 
REMARK    5  A    between atoms: C13_19  and  C14_20 
REMARK    6  A    between atoms: C14_20  and  O2_22 
ROOT
HETATM    1  C1  LIG X 999      42.987 130.607  23.766  1.00  0.00     0.266 C 
HETATM    2  N1  LIG X 999      43.044 129.504  24.459  1.00  0.00    -0.219 NA
ENDROOT
BRANCH   1   3
HETATM    3  S1  LIG X 999      43.580 132.117  24.526  1.00  0.00    -0.098 SA
HETATM    4  H1  LIG X 999      44.190 131.408  25.577  1.00  0.00     0.110 HD
ENDBRANCH   1   3
BRANCH   1   5
HETATM    5  N2  LIG X 999      42.506 130.636  22.404  1.00  0.00     0.010 N 
HETATM    6  H9  LIG X 999      41.771 131.374  22.311  1.00  0.00     0.293 HD
HETATM    7  H10 LIG X 999      42.058 129.722  22.194  1.00  0.00     0.293 HD
BRANCH   5   8
HETATM    8  C12 LIG X 999      43.577 130.960  21.489  1.00  0.00     0.164 A 
HETATM    9  C13 LIG X 999      43.436 131.716  20.311  1.00  0.00     0.114 A 
HETATM   10  S2  LIG X 999      44.930 131.749  19.541  1.00  0.00    -0.094 SA
HETATM   11  C16 LIG X 999      45.777 130.858  20.681  1.00  0.00     0.053 A 
HETATM   12  C17 LIG X 999      44.897 130.508  21.694  1.00  0.00     0.046 A 
BRANCH   9  13
HETATM   13  C14 LIG X 999      42.251 132.417  19.783  1.00  0.00     0.302 C 
HETATM   14  O1  LIG X 999      41.628 133.258  20.485  1.00  0.00    -0.259 OA
BRANCH  13  15
HETATM   15  O2  LIG X 999      41.851 132.171  18.466  1.00  0.00    -0.322 OA
HETATM   16  C15 LIG X 999      42.757 131.750  17.453  1.00  0.00     0.213 C 
ENDBRANCH  13  15
ENDBRANCH   9  13
ENDBRANCH   5   8
ENDBRANCH   1   5
BRANCH   2  17
HETATM   17  C2  LIG X 999      42.579 128.226  24.011  1.00  0.00     0.060 A 
HETATM   18  C3  LIG X 999      41.211 127.934  24.054  1.00  0.00     0.032 A 
HETATM   19  C4  LIG X 999      40.741 126.689  23.630  1.00  0.00     0.014 A 
HETATM   20  C5  LIG X 999      41.636 125.731  23.132  1.00  0.00    -0.026 A 
HETATM   21  C6  LIG X 999      41.177 124.476  22.701  1.00  0.00     0.012 A 
HETATM   22  C10 LIG X 999      43.019 126.034  23.059  1.00  0.00    -0.024 A 
HETATM   23  C7  LIG X 999      42.078 123.535  22.194  1.00  0.00     0.001 A 
HETATM   24  C8  LIG X 999      43.441 123.837  22.115  1.00  0.00     0.001 A 
HETATM   25  C9  LIG X 999      43.913 125.080  22.548  1.00  0.00     0.012 A 
HETATM   26  C11 LIG X 999      43.480 127.282  23.499  1.00  0.00     0.044 A 
ENDBRANCH   2  17
TORSDOF 6
ENDMDL
MODEL 6
REMARK VINA RESULT:      -5.1      3.059      6.906
REMARK  6 active torsions:
REMARK  status: ('A' for Active; 'I' for Inactive)
REMARK    1  A    between atoms: S1_2  and  C1_3 
REMARK    2  A    between atoms: C1_3  and  N2_15 
REMARK    3  A    between atoms: N1_4  and  C2_5 
REMARK    4  A    between atoms: N2_15  and  C12_18 
REMARK    5  A    between atoms: C13_19  and  C14_20 
REMARK    6  A    between atoms: C14_20  and  O2_22 
ROOT
HETATM    1  C1  LIG X 999      44.249 130.583  23.768  1.00  0.00     0.266 C 
HETATM    2  N1  LIG X 999      43.838 129.529  24.414  1.00  0.00    -0.219 NA
ENDROOT
BRANCH   1   3
HETATM    3  S1  LIG X 999      44.250 132.156  24.625  1.00  0.00    -0.098 SA
HETATM    4  H1  LIG X 999      44.989 131.627  25.699  1.00  0.00     0.110 HD
ENDBRANCH   1   3
BRANCH   1   5
HETATM    5  N2  LIG X 999      44.738 130.512  22.410  1.00  0.00     0.010 N 
HETATM    6  H9  LIG X 999      44.758 129.513  22.100  1.00  0.00     0.293 HD
HETATM    7  H10 LIG X 999      45.716 130.863  22.394  1.00  0.00     0.293 HD
BRANCH   5   8
HETATM    8  C12 LIG X 999      43.866 131.236  21.513  1.00  0.00     0.164 A 
HETATM    9  C13 LIG X 999      44.135 131.497  20.157  1.00  0.00     0.114 A 
HETATM   10  S2  LIG X 999      42.879 132.440  19.557  1.00  0.00    -0.094 SA
HETATM   11  C16 LIG X 999      41.968 132.501  20.964  1.00  0.00     0.053 A 
HETATM   12  C17 LIG X 999      42.639 131.783  21.942  1.00  0.00     0.046 A 
BRANCH   9  13
HETATM   13  C14 LIG X 999      45.261 131.045  19.320  1.00  0.00     0.302 C 
HETATM   14  O1  LIG X 999      46.126 130.247  19.772  1.00  0.00    -0.259 OA
BRANCH  13  15
HETATM   15  O2  LIG X 999      45.334 131.479  17.993  1.00  0.00    -0.322 OA
HETATM   16  C15 LIG X 999      45.666 130.609  16.917  1.00  0.00     0.213 C 
ENDBRANCH  13  15
ENDBRANCH   9  13
ENDBRANCH   5   8
ENDBRANCH   1   5
BRANCH   2  17
HETATM   17  C2  LIG X 999      43.741 128.211  23.863  1.00  0.00     0.060 A 
HETATM   18  C3  LIG X 999      44.888 127.586  23.361  1.00  0.00     0.032 A 
HETATM   19  C4  LIG X 999      44.811 126.304  22.811  1.00  0.00     0.014 A 
HETATM   20  C5  LIG X 999      43.586 125.624  22.781  1.00  0.00    -0.026 A 
HETATM   21  C6  LIG X 999      43.495 124.335  22.232  1.00  0.00     0.012 A 
HETATM   22  C10 LIG X 999      42.427 126.241  23.315  1.00  0.00    -0.024 A 
HETATM   23  C7  LIG X 999      42.269 123.661  22.222  1.00  0.00     0.001 A 
HETATM   24  C8  LIG X 999      41.129 124.268  22.755  1.00  0.00     0.001 A 
HETATM   25  C9  LIG X 999      41.203 125.554  23.298  1.00  0.00     0.012 A 
HETATM   26  C11 LIG X 999      42.515 127.533  23.854  1.00  0.00     0.044 A 
ENDBRANCH   2  17
TORSDOF 6
ENDMDL
MODEL 7
REMARK VINA RESULT:      -4.6      2.691      4.517
REMARK  6 active torsions:
REMARK  status: ('A' for Active; 'I' for Inactive)
REMARK    1  A    between atoms: S1_2  and  C1_3 
REMARK    2  A    between atoms: C1_3  and  N2_15 
REMARK    3  A    between atoms: N1_4  and  C2_5 
REMARK    4  A    between atoms: N2_15  and  C12_18 
REMARK    5  A    between atoms: C13_19  and  C14_20 
REMARK    6  A    between atoms: C14_20  and  O2_22 
ROOT
HETATM    1  C1  LIG X 999      43.491 131.730  18.811  1.00  0.00     0.266 C 
HETATM    2  N1  LIG X 999      43.669 131.868  17.527  1.00  0.00    -0.219 NA
ENDROOT
BRANCH   1   3
HETATM    3  S1  LIG X 999      42.201 132.693  19.596  1.00  0.00    -0.098 SA
HETATM    4  H1  LIG X 999      42.791 133.905  19.192  1.00  0.00     0.110 HD
ENDBRANCH   1   3
BRANCH   1   5
HETATM    5  N2  LIG X 999      44.268 130.802  19.601  1.00  0.00     0.010 N 
HETATM    6  H9  LIG X 999      45.024 130.389  19.008  1.00  0.00     0.293 HD
HETATM    7  H10 LIG X 999      43.645 130.024  19.899  1.00  0.00     0.293 HD
BRANCH   5   8
HETATM    8  C12 LIG X 999      44.897 131.477  20.713  1.00  0.00     0.164 A 
HETATM    9  C13 LIG X 999      44.436 131.450  22.042  1.00  0.00     0.114 A 
HETATM   10  S2  LIG X 999      45.437 132.448  22.953  1.00  0.00    -0.094 SA
HETATM   11  C16 LIG X 999      46.477 132.893  21.714  1.00  0.00     0.053 A 
HETATM   12  C17 LIG X 999      46.052 132.268  20.551  1.00  0.00     0.046 A 
BRANCH   9  13
HETATM   13  C14 LIG X 999      43.317 130.694  22.632  1.00  0.00     0.302 C 
HETATM   14  O1  LIG X 999      42.247 131.271  22.965  1.00  0.00    -0.259 OA
BRANCH  13  15
HETATM   15  O2  LIG X 999      43.439 129.309  22.777  1.00  0.00    -0.322 OA
HETATM   16  C15 LIG X 999      44.698 128.651  22.846  1.00  0.00     0.213 C 
ENDBRANCH  13  15
ENDBRANCH   9  13
ENDBRANCH   5   8
ENDBRANCH   1   5
BRANCH   2  17
HETATM   17  C2  LIG X 999      44.678 131.200  16.760  1.00  0.00     0.060 A 
HETATM   18  C3  LIG X 999      45.082 129.911  17.123  1.00  0.00     0.032 A 
HETATM   19  C4  LIG X 999      46.070 129.248  16.391  1.00  0.00     0.014 A 
HETATM   20  C5  LIG X 999      46.647 129.862  15.271  1.00  0.00    -0.026 A 
HETATM   21  C6  LIG X 999      47.641 129.207  14.526  1.00  0.00     0.012 A 
HETATM   22  C10 LIG X 999      46.220 131.156  14.882  1.00  0.00    -0.024 A 
HETATM   23  C7  LIG X 999      48.198 129.825  13.402  1.00  0.00     0.001 A 
HETATM   24  C8  LIG X 999      47.771 131.098  13.016  1.00  0.00     0.001 A 
HETATM   25  C9  LIG X 999      46.787 131.765  13.752  1.00  0.00     0.012 A 
HETATM   26  C11 LIG X 999      45.235 131.816  15.631  1.00  0.00     0.044 A 
ENDBRANCH   2  17
TORSDOF 6
ENDMDL
MODEL 8
REMARK VINA RESULT:      -4.4      2.883      3.628
REMARK  6 active torsions:
REMARK  status: ('A' for Active; 'I' for Inactive)
REMARK    1  A    between atoms: S1_2  and  C1_3 
REMARK    2  A    between atoms: C1_3  and  N2_15 
REMARK    3  A    between atoms: N1_4  and  C2_5 
REMARK    4  A    between atoms: N2_15  and  C12_18 
REMARK    5  A    between atoms: C13_19  and  C14_20 
REMARK    6  A    between atoms: C14_20  and  O2_22 
ROOT
HETATM    1  C1  LIG X 999      44.627 129.244  22.850  1.00  0.00     0.266 C 
HETATM    2  N1  LIG X 999      44.203 130.385  22.383  1.00  0.00    -0.219 NA
ENDROOT
BRANCH   1   3
HETATM    3  S1  LIG X 999      44.636 129.006  24.625  1.00  0.00    -0.098 SA
HETATM    4  H1  LIG X 999      45.451 127.865  24.518  1.00  0.00     0.110 HD
ENDBRANCH   1   3
BRANCH   1   5
HETATM    5  N2  LIG X 999      45.043 128.165  21.984  1.00  0.00     0.010 N 
HETATM    6  H9  LIG X 999      46.087 128.149  21.926  1.00  0.00     0.293 HD
HETATM    7  H10 LIG X 999      44.680 128.352  21.028  1.00  0.00     0.293 HD
BRANCH   5   8
HETATM    8  C12 LIG X 999      44.610 126.890  22.510  1.00  0.00     0.164 A 
HETATM    9  C13 LIG X 999      45.385 125.716  22.531  1.00  0.00     0.114 A 
HETATM   10  S2  LIG X 999      44.429 124.481  23.153  1.00  0.00    -0.094 SA
HETATM   11  C16 LIG X 999      43.055 125.399  23.439  1.00  0.00     0.053 A 
HETATM   12  C17 LIG X 999      43.318 126.702  23.044  1.00  0.00     0.046 A 
BRANCH   9  13
HETATM   13  C14 LIG X 999      46.791 125.514  22.136  1.00  0.00     0.302 C 
HETATM   14  O1  LIG X 999      47.687 126.329  22.485  1.00  0.00    -0.259 OA
BRANCH  13  15
HETATM   15  O2  LIG X 999      47.130 124.372  21.404  1.00  0.00    -0.322 OA
HETATM   16  C15 LIG X 999      48.193 123.505  21.780  1.00  0.00     0.213 C 
ENDBRANCH  13  15
ENDBRANCH   9  13
ENDBRANCH   5   8
ENDBRANCH   1   5
BRANCH   2  17
HETATM   17  C2  LIG X 999      44.168 130.745  20.997  1.00  0.00     0.060 A 
HETATM   18  C3  LIG X 999      43.115 131.528  20.513  1.00  0.00     0.032 A 
HETATM   19  C4  LIG X 999      43.060 131.881  19.163  1.00  0.00     0.014 A 
HETATM   20  C5  LIG X 999      44.076 131.473  18.286  1.00  0.00    -0.026 A 
HETATM   21  C6  LIG X 999      44.033 131.821  16.927  1.00  0.00     0.012 A 
HETATM   22  C10 LIG X 999      45.160 130.704  18.778  1.00  0.00    -0.024 A 
HETATM   23  C7  LIG X 999      45.059 131.420  16.067  1.00  0.00     0.001 A 
HETATM   24  C8  LIG X 999      46.132 130.668  16.555  1.00  0.00     0.001 A 
HETATM   25  C9  LIG X 999      46.183 130.307  17.904  1.00  0.00     0.012 A 
HETATM   26  C11 LIG X 999      45.198 130.346  20.134  1.00  0.00     0.044 A 
ENDBRANCH   2  17
TORSDOF 6
ENDMDL
MODEL 9
REMARK VINA RESULT:      -4.3      3.665      7.093
REMARK  6 active torsions:
REMARK  status: ('A' for Active; 'I' for Inactive)
REMARK    1  A    between atoms: S1_2  and  C1_3 
REMARK    2  A    between atoms: C1_3  and  N2_15 
REMARK    3  A    between atoms: N1_4  and  C2_5 
REMARK    4  A    between atoms: N2_15  and  C12_18 
REMARK    5  A    between atoms: C13_19  and  C14_20 
REMARK    6  A    between atoms: C14_20  and  O2_22 
ROOT
HETATM    1  C1  LIG X 999      45.334 131.661  21.449  1.00  0.00     0.266 C 
HETATM    2  N1  LIG X 999      44.895 131.359  22.638  1.00  0.00    -0.219 NA
ENDROOT
BRANCH   1   3
HETATM    3  S1  LIG X 999      46.215 133.206  21.238  1.00  0.00    -0.098 SA
HETATM    4  H1  LIG X 999      45.049 133.960  21.462  1.00  0.00     0.110 HD
ENDBRANCH   1   3
BRANCH   1   5
HETATM    5  N2  LIG X 999      45.168 130.776  20.319  1.00  0.00     0.010 N 
HETATM    6  H9  LIG X 999      44.884 129.828  20.659  1.00  0.00     0.293 HD
HETATM    7  H10 LIG X 999      46.087 130.675  19.843  1.00  0.00     0.293 HD
BRANCH   5   8
HETATM    8  C12 LIG X 999      44.130 131.259  19.437  1.00  0.00     0.164 A 
HETATM    9  C13 LIG X 999      44.262 131.430  18.047  1.00  0.00     0.114 A 
HETATM   10  S2  LIG X 999      42.827 132.094  17.474  1.00  0.00    -0.094 SA
HETATM   11  C16 LIG X 999      42.014 132.140  18.939  1.00  0.00     0.053 A 
HETATM   12  C17 LIG X 999      42.859 131.638  19.917  1.00  0.00     0.046 A 
BRANCH   9  13
HETATM   13  C14 LIG X 999      45.391 131.088  17.163  1.00  0.00     0.302 C 
HETATM   14  O1  LIG X 999      45.999 129.990  17.282  1.00  0.00    -0.259 OA
BRANCH  13  15
HETATM   15  O2  LIG X 999      45.753 131.983  16.152  1.00  0.00    -0.322 OA
HETATM   16  C15 LIG X 999      46.385 131.568  14.948  1.00  0.00     0.213 C 
ENDBRANCH  13  15
ENDBRANCH   9  13
ENDBRANCH   5   8
ENDBRANCH   1   5
BRANCH   2  17
HETATM   17  C2  LIG X 999      44.144 130.184  22.964  1.00  0.00     0.060 A 
HETATM   18  C3  LIG X 999      42.820 130.308  23.399  1.00  0.00     0.032 A 
HETATM   19  C4  LIG X 999      42.075 129.174  23.729  1.00  0.00     0.014 A 
HETATM   20  C5  LIG X 999      42.643 127.897  23.602  1.00  0.00    -0.026 A 
HETATM   21  C6  LIG X 999      41.905 126.749  23.930  1.00  0.00     0.012 A 
HETATM   22  C10 LIG X 999      43.974 127.765  23.134  1.00  0.00    -0.024 A 
HETATM   23  C7  LIG X 999      42.478 125.482  23.785  1.00  0.00     0.001 A 
HETATM   24  C8  LIG X 999      43.789 125.352  23.316  1.00  0.00     0.001 A 
HETATM   25  C9  LIG X 999      44.537 126.487  22.993  1.00  0.00     0.012 A 
HETATM   26  C11 LIG X 999      44.715 128.912  22.817  1.00  0.00     0.044 A 
ENDBRANCH   2  17
TORSDOF 6
ENDMDL
