REMARK VINA RESULT:      -6.2      4.421      6.893
REMARK  4 active torsions:
REMARK  status: ('A' for Active; 'I' for Inactive)
REMARK    1  A    between atoms: C2_2  and  N1_3 
REMARK    2  A    between atoms: C3_6  and  O1_7 
REMARK    3  A    between atoms: O1_7  and  C4_8 
REMARK    4  A    between atoms: C4_8  and  C5_9 
ROOT
HETATM    1  N1  LIG X 999      42.992 131.529  23.063  1.00  0.00    -0.070 NA
HETATM    2  N2  LIG X 999      43.432 132.374  23.845  1.00  0.00    -0.162 NA
HETATM    3  N3  LIG X 999      43.868 133.219  24.625  1.00  0.00     0.068 N 
ENDROOT
BRANCH   1   4
HETATM    4  C2  LIG X 999      43.658 130.278  22.827  1.00  0.00     0.127 A 
HETATM    5  C1  LIG X 999      43.291 129.112  23.525  1.00  0.00     0.049 A 
HETATM    6  C14 LIG X 999      43.950 127.901  23.281  1.00  0.00    -0.023 A 
HETATM    7  C9  LIG X 999      44.999 127.852  22.323  1.00  0.00    -0.022 A 
HETATM    8  C13 LIG X 999      43.585 126.733  23.979  1.00  0.00     0.021 A 
HETATM    9  C8  LIG X 999      45.362 129.017  21.633  1.00  0.00     0.051 A 
HETATM   10  C10 LIG X 999      45.667 126.637  22.077  1.00  0.00     0.021 A 
HETATM   11  C3  LIG X 999      44.693 130.233  21.878  1.00  0.00     0.102 A 
HETATM   12  C11 LIG X 999      45.270 125.500  22.783  1.00  0.00    -0.024 A 
HETATM   13  C12 LIG X 999      44.265 125.547  23.700  1.00  0.00    -0.024 A 
HETATM   14  C18 LIG X 999      45.837 124.138  22.702  1.00  0.00     0.276 C 
HETATM   15  C15 LIG X 999      44.066 124.219  24.321  1.00  0.00     0.276 C 
HETATM   16  N4  LIG X 999      44.960 123.284  23.566  1.00  0.00    -0.067 N 
HETATM   17  C16 LIG X 999      45.776 122.473  24.499  1.00  0.00     0.272 C 
HETATM   18  C17 LIG X 999      44.148 122.375  22.722  1.00  0.00     0.272 C 
BRANCH  11  19
HETATM   19  O1  LIG X 999      45.027 131.420  21.201  1.00  0.00    -0.337 OA
BRANCH  19  20
HETATM   20  C4  LIG X 999      44.389 131.912  20.024  1.00  0.00     0.269 C 
BRANCH  20  21
HETATM   21  C5  LIG X 999      44.979 131.302  18.828  1.00  0.00    -0.080 C 
HETATM   22  C6  LIG X 999      45.469 130.801  17.847  1.00  0.00    -0.109 C 
HETATM   23  C7  LIG X 999      46.069 130.195  16.659  1.00  0.00     0.112 C 
ENDBRANCH  20  21
ENDBRANCH  19  20
ENDBRANCH  11  19
ENDBRANCH   1   4
TORSDOF 4
