REMARK VINA RESULT:      -6.7      1.404      1.892
REMARK  1 active torsions:
REMARK  status: ('A' for Active; 'I' for Inactive)
REMARK    1  A    between atoms: C2_5  and  C3_6 
ROOT
HETATM    1  C3  LIG X 999      43.583 131.717  18.984  1.00  0.00     0.030 A 
HETATM    2  C4  LIG X 999      42.482 132.531  18.648  1.00  0.00     0.017 A 
HETATM    3  C5  LIG X 999      41.599 132.997  19.616  1.00  0.00     0.002 A 
HETATM    4  C6  LIG X 999      41.785 132.666  20.952  1.00  0.00     0.012 A 
HETATM    5  C7  LIG X 999      42.863 131.862  21.336  1.00  0.00    -0.025 A 
HETATM    6  C8  LIG X 999      43.025 131.544  22.694  1.00  0.00     0.012 A 
HETATM    7  C9  LIG X 999      44.087 130.746  23.109  1.00  0.00     0.001 A 
HETATM    8  C10 LIG X 999      44.996 130.257  22.175  1.00  0.00     0.001 A 
HETATM    9  C11 LIG X 999      44.851 130.561  20.819  1.00  0.00     0.013 A 
HETATM   10  C12 LIG X 999      43.783 131.370  20.361  1.00  0.00    -0.011 A 
ENDROOT
BRANCH   1  11
HETATM   11  C2  LIG X 999      44.460 131.279  17.854  1.00  0.00     0.203 A 
HETATM   12  O1  LIG X 999      45.535 130.524  17.952  1.00  0.00    -0.255 OA
HETATM   13  C1  LIG X 999      45.979 130.398  16.729  1.00  0.00     0.262 A 
HETATM   14  N1  LIG X 999      47.031 129.723  16.396  1.00  0.00    -0.260 NA
HETATM   15  N3  LIG X 999      45.207 131.060  15.858  1.00  0.00    -0.238 N 
HETATM   16  H1  LIG X 999      47.596 129.226  17.120  1.00  0.00     0.190 HD
HETATM   17  N2  LIG X 999      44.239 131.623  16.561  1.00  0.00    -0.145 NA
HETATM   18  H9  LIG X 999      45.323 131.133  14.822  1.00  0.00     0.193 HD
ENDBRANCH   1  11
TORSDOF 1
