REMARK VINA RESULT:      -6.6      3.146      6.735
REMARK  4 active torsions:
REMARK  status: ('A' for Active; 'I' for Inactive)
REMARK    1  A    between atoms: C1_1  and  C2_6 
REMARK    2  A    between atoms: N1_2  and  N2_3 
REMARK    3  A    between atoms: C2_6  and  C3_8 
REMARK    4  A    between atoms: C11_16  and  N4_17 
ROOT
HETATM    1  N4  LIG X 999      45.760 130.127  18.916  1.00  0.00    -0.105 NA
HETATM    2  N5  LIG X 999      45.702 129.772  20.095  1.00  0.00    -0.167 NA
HETATM    3  N6  LIG X 999      45.644 129.417  21.271  1.00  0.00     0.068 N 
ENDROOT
BRANCH   1   4
HETATM    4  C11 LIG X 999      45.488 131.507  18.521  1.00  0.00     0.179 C 
HETATM    5  C10 LIG X 999      44.098 131.918  18.977  1.00  0.00    -0.024 A 
HETATM    6  C5  LIG X 999      42.991 131.903  18.092  1.00  0.00    -0.049 A 
HETATM    7  C9  LIG X 999      43.892 132.243  20.329  1.00  0.00     0.010 A 
HETATM    8  C4  LIG X 999      43.165 131.686  16.608  1.00  0.00     0.051 C 
HETATM    9  C6  LIG X 999      41.714 132.229  18.578  1.00  0.00     0.007 A 
HETATM   10  C3  LIG X 999      44.481 130.964  16.266  1.00  0.00     0.068 C 
HETATM   11  C12 LIG X 999      45.652 131.637  16.999  1.00  0.00     0.048 C 
HETATM   12  C7  LIG X 999      41.527 132.540  19.926  1.00  0.00     0.001 A 
HETATM   13  C8  LIG X 999      42.614 132.550  20.800  1.00  0.00     0.001 A 
BRANCH  10  14
HETATM   14  C2  LIG X 999      44.737 130.951  14.774  1.00  0.00     0.172 C 
HETATM   15  O1  LIG X 999      43.869 131.412  13.984  1.00  0.00    -0.291 OA
BRANCH  14  16
HETATM   16  C1  LIG X 999      46.012 130.477  14.211  1.00  0.00     0.190 C 
HETATM   17  N1  LIG X 999      46.598 129.420  14.681  1.00  0.00    -0.165 NA
BRANCH  17  18
HETATM   18  N2  LIG X 999      47.818 128.961  14.164  1.00  0.00    -0.177 N 
HETATM   19  H2  LIG X 999      48.209 128.035  14.448  1.00  0.00     0.214 HD
HETATM   20  N3  LIG X 999      48.453 129.673  13.327  1.00  0.00    -0.031 N 
ENDBRANCH  17  18
ENDBRANCH  14  16
ENDBRANCH  10  14
ENDBRANCH   1   4
TORSDOF 4
