REMARK VINA RESULT:      -8.6      4.143      6.910
REMARK  2 active torsions:
REMARK  status: ('A' for Active; 'I' for Inactive)
REMARK    1  A    between atoms: C6_6  and  C7_7 
REMARK    2  A    between atoms: C8_11  and  N3_12 
ROOT
HETATM    1  N3  LIG X 999      42.642 131.889  23.112  1.00  0.00    -0.025 NA
HETATM    2  N4  LIG X 999      42.726 130.800  23.678  1.00  0.00    -0.158 NA
HETATM    3  N5  LIG X 999      42.810 129.711  24.244  1.00  0.00     0.068 N 
ENDROOT
BRANCH   1   4
HETATM    4  C8  LIG X 999      42.771 131.998  21.693  1.00  0.00     0.302 A 
HETATM    5  N2  LIG X 999      41.940 132.691  20.895  1.00  0.00    -0.236 N 
HETATM    6  N1  LIG X 999      42.386 132.554  19.659  1.00  0.00    -0.145 NA
HETATM    7  H5  LIG X 999      41.098 133.242  21.171  1.00  0.00     0.193 HD
HETATM    8  C7  LIG X 999      43.485 131.772  19.751  1.00  0.00     0.202 A 
HETATM    9  O1  LIG X 999      43.725 131.428  21.000  1.00  0.00    -0.253 OA
BRANCH   8  10
HETATM   10  C6  LIG X 999      44.311 131.355  18.600  1.00  0.00     0.020 A 
HETATM   11  C5  LIG X 999      43.915 131.663  17.288  1.00  0.00     0.028 A 
HETATM   12  C4  LIG X 999      44.703 131.264  16.197  1.00  0.00    -0.025 A 
HETATM   13  C3  LIG X 999      44.312 131.569  14.883  1.00  0.00     0.012 A 
HETATM   14  C11 LIG X 999      45.903 130.549  16.421  1.00  0.00    -0.026 A 
HETATM   15  C2  LIG X 999      45.106 131.167  13.804  1.00  0.00     0.001 A 
HETATM   16  C1  LIG X 999      46.290 130.461  14.026  1.00  0.00     0.001 A 
HETATM   17  C12 LIG X 999      46.691 130.152  15.329  1.00  0.00     0.012 A 
HETATM   18  C10 LIG X 999      46.294 130.244  17.732  1.00  0.00     0.013 A 
HETATM   19  C9  LIG X 999      45.503 130.644  18.812  1.00  0.00     0.017 A 
ENDBRANCH   8  10
ENDBRANCH   1   4
TORSDOF 2
