MODEL 1
REMARK VINA RESULT:      -8.4      0.000      0.000
REMARK  3 active torsions:
REMARK  status: ('A' for Active; 'I' for Inactive)
REMARK    1  A    between atoms: C7_9  and  C8_10 
REMARK    2  A    between atoms: C9_13  and  N4_14 
REMARK    3  A    between atoms: N7_23  and  C14_24 
ROOT
HETATM    1  N4  LIG X 999      47.096 131.510  13.995  1.00  0.00    -0.023 NA
HETATM    2  N5  LIG X 999      47.737 130.501  13.701  1.00  0.00    -0.158 NA
HETATM    3  N6  LIG X 999      48.376 129.492  13.407  1.00  0.00     0.068 N 
ENDROOT
BRANCH   1   4
HETATM    4  C9  LIG X 999      45.856 131.409  14.691  1.00  0.00     0.326 A 
HETATM    5  N3  LIG X 999      44.711 131.004  14.117  1.00  0.00    -0.099 NA
HETATM    6  N2  LIG X 999      43.795 131.041  15.073  1.00  0.00    -0.119 NA
HETATM    7  C8  LIG X 999      44.423 131.460  16.191  1.00  0.00     0.205 A 
HETATM    8  O1  LIG X 999      45.692 131.698  15.959  1.00  0.00    -0.252 OA
BRANCH   7   9
HETATM    9  C7  LIG X 999      43.745 131.678  17.485  1.00  0.00     0.032 A 
HETATM   10  C6  LIG X 999      44.340 131.346  18.742  1.00  0.00     0.020 A 
HETATM   11  C1  LIG X 999      45.595 130.570  19.014  1.00  0.00     0.060 A 
HETATM   12  C5  LIG X 999      43.638 131.724  19.873  1.00  0.00     0.019 A 
HETATM   13  N1  LIG X 999      46.258 130.003  18.057  1.00  0.00    -0.299 NA
HETATM   14  C2  LIG X 999      46.024 130.363  20.441  1.00  0.00     0.034 A 
HETATM   15  H1  LIG X 999      47.113 129.431  18.237  1.00  0.00     0.187 HD
HETATM   16  C3  LIG X 999      45.268 130.800  21.468  1.00  0.00     0.033 A 
HETATM   17  C4  LIG X 999      44.012 131.503  21.162  1.00  0.00     0.048 A 
HETATM   18  N7  LIG X 999      43.055 131.975  21.999  1.00  0.00    -0.324 N 
HETATM   19  C13 LIG X 999      42.072 132.471  21.197  1.00  0.00     0.193 A 
HETATM   20  C12 LIG X 999      42.424 132.329  19.866  1.00  0.00     0.032 A 
HETATM   21  O2  LIG X 999      40.882 133.021  21.663  1.00  0.00    -0.171 OA
HETATM   22  C11 LIG X 999      41.786 132.629  18.668  1.00  0.00     0.018 A 
HETATM   23  C10 LIG X 999      42.460 132.301  17.471  1.00  0.00     0.018 A 
BRANCH  18  24
HETATM   24  C14 LIG X 999      43.024 131.868  23.457  1.00  0.00     0.127 C 
HETATM   25  C15 LIG X 999      42.476 130.510  23.876  1.00  0.00     0.027 C 
ENDBRANCH  18  24
ENDBRANCH   7   9
ENDBRANCH   1   4
TORSDOF 3
ENDMDL
MODEL 2
REMARK VINA RESULT:      -6.6      1.406      2.708
REMARK  3 active torsions:
REMARK  status: ('A' for Active; 'I' for Inactive)
REMARK    1  A    between atoms: C7_9  and  C8_10 
REMARK    2  A    between atoms: C9_13  and  N4_14 
REMARK    3  A    between atoms: N7_23  and  C14_24 
ROOT
HETATM    1  N4  LIG X 999      47.031 131.002  13.745  1.00  0.00    -0.023 NA
HETATM    2  N5  LIG X 999      47.929 130.245  13.376  1.00  0.00    -0.158 NA
HETATM    3  N6  LIG X 999      48.825 129.488  13.007  1.00  0.00     0.068 N 
ENDROOT
BRANCH   1   4
HETATM    4  C9  LIG X 999      46.211 130.670  14.864  1.00  0.00     0.326 A 
HETATM    5  N3  LIG X 999      45.155 129.842  14.792  1.00  0.00    -0.099 NA
HETATM    6  N2  LIG X 999      44.659 129.785  16.019  1.00  0.00    -0.119 NA
HETATM    7  C8  LIG X 999      45.438 130.573  16.787  1.00  0.00     0.205 A 
HETATM    8  O1  LIG X 999      46.391 131.129  16.078  1.00  0.00    -0.252 OA
BRANCH   7   9
HETATM    9  C7  LIG X 999      45.202 130.819  18.224  1.00  0.00     0.032 A 
HETATM   10  C6  LIG X 999      43.992 131.391  18.728  1.00  0.00     0.020 A 
HETATM   11  C1  LIG X 999      42.860 132.019  17.969  1.00  0.00     0.060 A 
HETATM   12  C5  LIG X 999      43.864 131.443  20.105  1.00  0.00     0.019 A 
HETATM   13  N1  LIG X 999      42.924 132.199  16.689  1.00  0.00    -0.299 NA
HETATM   14  C2  LIG X 999      41.677 132.543  18.736  1.00  0.00     0.034 A 
HETATM   15  H1  LIG X 999      42.158 132.666  16.155  1.00  0.00     0.187 HD
HETATM   16  C3  LIG X 999      41.651 132.518  20.084  1.00  0.00     0.033 A 
HETATM   17  C4  LIG X 999      42.808 131.951  20.795  1.00  0.00     0.048 A 
HETATM   18  N7  LIG X 999      43.055 131.871  22.126  1.00  0.00    -0.324 N 
HETATM   19  C13 LIG X 999      44.298 131.325  22.241  1.00  0.00     0.193 A 
HETATM   20  C12 LIG X 999      44.814 131.045  20.987  1.00  0.00     0.032 A 
HETATM   21  O2  LIG X 999      44.949 131.104  23.450  1.00  0.00    -0.171 OA
HETATM   22  C11 LIG X 999      46.024 130.526  20.543  1.00  0.00     0.018 A 
HETATM   23  C10 LIG X 999      46.212 130.411  19.148  1.00  0.00     0.018 A 
BRANCH  18  24
HETATM   24  C14 LIG X 999      42.218 132.377  23.213  1.00  0.00     0.127 C 
HETATM   25  C15 LIG X 999      41.980 131.286  24.249  1.00  0.00     0.027 C 
ENDBRANCH  18  24
ENDBRANCH   7   9
ENDBRANCH   1   4
TORSDOF 3
ENDMDL
MODEL 3
REMARK VINA RESULT:      -5.9      5.112      7.827
REMARK  3 active torsions:
REMARK  status: ('A' for Active; 'I' for Inactive)
REMARK    1  A    between atoms: C7_9  and  C8_10 
REMARK    2  A    between atoms: C9_13  and  N4_14 
REMARK    3  A    between atoms: N7_23  and  C14_24 
ROOT
HETATM    1  N4  LIG X 999      44.921 132.077  20.696  1.00  0.00    -0.023 NA
HETATM    2  N5  LIG X 999      44.716 131.773  19.520  1.00  0.00    -0.158 NA
HETATM    3  N6  LIG X 999      44.510 131.469  18.347  1.00  0.00     0.068 N 
ENDROOT
BRANCH   1   4
HETATM    4  C9  LIG X 999      44.627 131.160  21.748  1.00  0.00     0.326 A 
HETATM    5  N3  LIG X 999      44.380 131.534  23.014  1.00  0.00    -0.099 NA
HETATM    6  N2  LIG X 999      44.153 130.414  23.683  1.00  0.00    -0.119 NA
HETATM    7  C8  LIG X 999      44.264 129.405  22.795  1.00  0.00     0.205 A 
HETATM    8  O1  LIG X 999      44.565 129.859  21.601  1.00  0.00    -0.252 OA
BRANCH   7   9
HETATM    9  C7  LIG X 999      44.122 127.977  23.145  1.00  0.00     0.032 A 
HETATM   10  C6  LIG X 999      42.874 127.385  23.514  1.00  0.00     0.020 A 
HETATM   11  C1  LIG X 999      41.566 128.056  23.812  1.00  0.00     0.060 A 
HETATM   12  C5  LIG X 999      42.875 126.013  23.691  1.00  0.00     0.019 A 
HETATM   13  N1  LIG X 999      41.464 129.345  23.858  1.00  0.00    -0.299 NA
HETATM   14  C2  LIG X 999      40.380 127.202  24.168  1.00  0.00     0.034 A 
HETATM   15  H1  LIG X 999      40.567 129.824  24.099  1.00  0.00     0.187 HD
HETATM   16  C3  LIG X 999      40.492 125.864  24.289  1.00  0.00     0.033 A 
HETATM   17  C4  LIG X 999      41.808 125.249  24.049  1.00  0.00     0.048 A 
HETATM   18  N7  LIG X 999      42.196 123.955  24.169  1.00  0.00    -0.324 N 
HETATM   19  C13 LIG X 999      43.531 123.942  23.900  1.00  0.00     0.193 A 
HETATM   20  C12 LIG X 999      43.969 125.218  23.593  1.00  0.00     0.032 A 
HETATM   21  O2  LIG X 999      44.330 122.804  23.951  1.00  0.00    -0.171 OA
HETATM   22  C11 LIG X 999      45.213 125.756  23.283  1.00  0.00     0.018 A 
HETATM   23  C10 LIG X 999      45.282 127.149  23.055  1.00  0.00     0.018 A 
BRANCH  18  24
HETATM   24  C14 LIG X 999      41.381 122.825  24.612  1.00  0.00     0.127 C 
HETATM   25  C15 LIG X 999      40.433 122.388  23.502  1.00  0.00     0.027 C 
ENDBRANCH  18  24
ENDBRANCH   7   9
ENDBRANCH   1   4
TORSDOF 3
ENDMDL
MODEL 4
REMARK VINA RESULT:      -5.4      7.074      8.311
REMARK  3 active torsions:
REMARK  status: ('A' for Active; 'I' for Inactive)
REMARK    1  A    between atoms: C7_9  and  C8_10 
REMARK    2  A    between atoms: C9_13  and  N4_14 
REMARK    3  A    between atoms: N7_23  and  C14_24 
ROOT
HETATM    1  N4  LIG X 999      49.147 122.900  19.885  1.00  0.00    -0.023 NA
HETATM    2  N5  LIG X 999      49.979 123.395  19.125  1.00  0.00    -0.158 NA
HETATM    3  N6  LIG X 999      50.811 123.890  18.366  1.00  0.00     0.068 N 
ENDROOT
BRANCH   1   4
HETATM    4  C9  LIG X 999      48.520 123.691  20.893  1.00  0.00     0.326 A 
HETATM    5  N3  LIG X 999      49.152 124.133  21.993  1.00  0.00    -0.099 NA
HETATM    6  N2  LIG X 999      48.250 124.822  22.675  1.00  0.00    -0.119 NA
HETATM    7  C8  LIG X 999      47.108 124.777  21.958  1.00  0.00     0.205 A 
HETATM    8  O1  LIG X 999      47.266 124.072  20.863  1.00  0.00    -0.252 OA
BRANCH   7   9
HETATM    9  C7  LIG X 999      45.837 125.391  22.392  1.00  0.00     0.032 A 
HETATM   10  C6  LIG X 999      44.701 124.625  22.803  1.00  0.00     0.020 A 
HETATM   11  C1  LIG X 999      44.477 123.145  22.701  1.00  0.00     0.060 A 
HETATM   12  C5  LIG X 999      43.627 125.340  23.302  1.00  0.00     0.019 A 
HETATM   13  N1  LIG X 999      45.322 122.375  22.094  1.00  0.00    -0.299 NA
HETATM   14  C2  LIG X 999      43.189 122.571  23.223  1.00  0.00     0.034 A 
HETATM   15  H1  LIG X 999      45.161 121.349  21.985  1.00  0.00     0.187 HD
HETATM   16  C3  LIG X 999      42.217 123.366  23.714  1.00  0.00     0.033 A 
HETATM   17  C4  LIG X 999      42.450 124.819  23.740  1.00  0.00     0.048 A 
HETATM   18  N7  LIG X 999      41.620 125.824  24.114  1.00  0.00    -0.324 N 
HETATM   19  C13 LIG X 999      42.303 126.978  23.875  1.00  0.00     0.193 A 
HETATM   20  C12 LIG X 999      43.561 126.692  23.374  1.00  0.00     0.032 A 
HETATM   21  O2  LIG X 999      41.789 128.253  24.090  1.00  0.00    -0.171 OA
HETATM   22  C11 LIG X 999      44.623 127.480  22.943  1.00  0.00     0.018 A 
HETATM   23  C10 LIG X 999      45.769 126.817  22.451  1.00  0.00     0.018 A 
BRANCH  18  24
HETATM   24  C14 LIG X 999      40.234 125.706  24.567  1.00  0.00     0.127 C 
HETATM   25  C15 LIG X 999      39.287 126.306  23.536  1.00  0.00     0.027 C 
ENDBRANCH  18  24
ENDBRANCH   7   9
ENDBRANCH   1   4
TORSDOF 3
ENDMDL
