MODEL 1
REMARK VINA RESULT:      -8.3      0.000      0.000
REMARK  1 active torsions:
REMARK  status: ('A' for Active; 'I' for Inactive)
REMARK    1  A    between atoms: N1_2  and  C1_3 
ROOT
HETATM    1  C1  LIG X 999      46.553 129.659  15.268  1.00  0.00     0.120 C 
HETATM    2  C2  LIG X 999      45.464 130.341  14.736  1.00  0.00     0.057 C 
HETATM    3  C3  LIG X 999      44.607 131.073  15.570  1.00  0.00    -0.045 C 
HETATM    4  C4  LIG X 999      43.656 132.019  14.878  1.00  0.00     0.049 C 
HETATM    5  C5  LIG X 999      44.778 130.994  16.990  1.00  0.00     0.008 C 
HETATM    6  C6  LIG X 999      43.856 131.508  17.963  1.00  0.00    -0.013 C 
HETATM    7  C7  LIG X 999      42.500 131.795  17.677  1.00  0.00     0.013 C 
HETATM    8  C8  LIG X 999      41.659 132.348  18.646  1.00  0.00     0.001 C 
HETATM    9  C9  LIG X 999      42.130 132.582  19.935  1.00  0.00     0.001 C 
HETATM   10  C10 LIG X 999      43.428 132.210  20.277  1.00  0.00     0.012 C 
HETATM   11  C11 LIG X 999      44.279 131.640  19.317  1.00  0.00    -0.025 C 
HETATM   12  C12 LIG X 999      45.524 131.151  19.716  1.00  0.00     0.014 C 
HETATM   13  C13 LIG X 999      46.338 130.484  18.811  1.00  0.00     0.031 C 
HETATM   14  C14 LIG X 999      45.980 130.388  17.461  1.00  0.00     0.045 C 
HETATM   15  N2  LIG X 999      46.808 129.727  16.602  1.00  0.00    -0.341 N 
HETATM   16  H12 LIG X 999      47.666 129.258  16.976  1.00  0.00     0.167 HD
ENDROOT
BRANCH   1  17
HETATM   17  N1  LIG X 999      47.340 128.997  14.478  1.00  0.00    -0.284 NA
HETATM   18  H1  LIG X 999      47.774 128.089  14.757  1.00  0.00     0.188 HD
ENDBRANCH   1  17
TORSDOF 1
ENDMDL
MODEL 2
REMARK VINA RESULT:      -8.0      2.965      5.670
REMARK  1 active torsions:
REMARK  status: ('A' for Active; 'I' for Inactive)
REMARK    1  A    between atoms: N1_2  and  C1_3 
ROOT
HETATM    1  C1  LIG X 999      42.989 131.695  22.291  1.00  0.00     0.120 C 
HETATM    2  C2  LIG X 999      44.356 131.488  22.139  1.00  0.00     0.057 C 
HETATM    3  C3  LIG X 999      44.934 131.463  20.862  1.00  0.00    -0.045 C 
HETATM    4  C4  LIG X 999      46.440 131.546  20.814  1.00  0.00     0.049 C 
HETATM    5  C5  LIG X 999      44.085 131.508  19.710  1.00  0.00     0.008 C 
HETATM    6  C6  LIG X 999      44.512 131.276  18.359  1.00  0.00    -0.013 C 
HETATM    7  C7  LIG X 999      45.706 130.594  18.024  1.00  0.00     0.013 C 
HETATM    8  C8  LIG X 999      46.105 130.445  16.694  1.00  0.00     0.001 C 
HETATM    9  C9  LIG X 999      45.303 130.924  15.662  1.00  0.00     0.001 C 
HETATM   10  C10 LIG X 999      44.071 131.504  15.954  1.00  0.00     0.012 C 
HETATM   11  C11 LIG X 999      43.651 131.647  17.286  1.00  0.00    -0.025 C 
HETATM   12  C12 LIG X 999      42.358 132.104  17.547  1.00  0.00     0.014 C 
HETATM   13  C13 LIG X 999      41.880 132.149  18.849  1.00  0.00     0.031 C 
HETATM   14  C14 LIG X 999      42.717 131.848  19.930  1.00  0.00     0.045 C 
HETATM   15  N2  LIG X 999      42.211 131.908  21.195  1.00  0.00    -0.341 N 
HETATM   16  H12 LIG X 999      41.196 132.122  21.332  1.00  0.00     0.167 HD
ENDROOT
BRANCH   1  17
HETATM   17  N1  LIG X 999      42.476 131.727  23.481  1.00  0.00    -0.284 NA
HETATM   18  H1  LIG X 999      41.498 131.415  23.674  1.00  0.00     0.188 HD
ENDBRANCH   1  17
TORSDOF 1
ENDMDL
MODEL 3
REMARK VINA RESULT:      -6.9      2.282      5.480
REMARK  1 active torsions:
REMARK  status: ('A' for Active; 'I' for Inactive)
REMARK    1  A    between atoms: N1_2  and  C1_3 
ROOT
HETATM    1  C1  LIG X 999      42.586 131.995  18.980  1.00  0.00     0.120 C 
HETATM    2  C2  LIG X 999      43.820 131.581  19.469  1.00  0.00     0.057 C 
HETATM    3  C3  LIG X 999      44.865 131.264  18.590  1.00  0.00    -0.045 C 
HETATM    4  C4  LIG X 999      46.235 131.130  19.208  1.00  0.00     0.049 C 
HETATM    5  C5  LIG X 999      44.607 131.230  17.182  1.00  0.00     0.008 C 
HETATM    6  C6  LIG X 999      45.508 130.719  16.189  1.00  0.00    -0.013 C 
HETATM    7  C7  LIG X 999      46.573 129.834  16.482  1.00  0.00     0.013 C 
HETATM    8  C8  LIG X 999      47.457 129.411  15.487  1.00  0.00     0.001 C 
HETATM    9  C9  LIG X 999      47.276 129.816  14.168  1.00  0.00     0.001 C 
HETATM   10  C10 LIG X 999      46.175 130.599  13.828  1.00  0.00     0.012 C 
HETATM   11  C11 LIG X 999      45.271 131.019  14.816  1.00  0.00    -0.025 C 
HETATM   12  C12 LIG X 999      44.105 131.686  14.433  1.00  0.00     0.014 C 
HETATM   13  C13 LIG X 999      43.143 132.013  15.378  1.00  0.00     0.031 C 
HETATM   14  C14 LIG X 999      43.370 131.786  16.740  1.00  0.00     0.045 C 
HETATM   15  N2  LIG X 999      42.400 132.125  17.638  1.00  0.00    -0.341 N 
HETATM   16  H12 LIG X 999      41.486 132.496  17.289  1.00  0.00     0.167 HD
ENDROOT
BRANCH   1  17
HETATM   17  N1  LIG X 999      41.637 132.295  19.810  1.00  0.00    -0.284 NA
HETATM   18  H1  LIG X 999      41.788 132.319  20.843  1.00  0.00     0.188 HD
ENDBRANCH   1  17
TORSDOF 1
ENDMDL
MODEL 4
REMARK VINA RESULT:      -6.5      1.845      3.524
REMARK  1 active torsions:
REMARK  status: ('A' for Active; 'I' for Inactive)
REMARK    1  A    between atoms: N1_2  and  C1_3 
ROOT
HETATM    1  C1  LIG X 999      44.655 131.644  15.987  1.00  0.00     0.120 C 
HETATM    2  C2  LIG X 999      45.602 131.019  16.791  1.00  0.00     0.057 C 
HETATM    3  C3  LIG X 999      45.377 130.864  18.166  1.00  0.00    -0.045 C 
HETATM    4  C4  LIG X 999      46.302 129.912  18.886  1.00  0.00     0.049 C 
HETATM    5  C5  LIG X 999      44.231 131.482  18.761  1.00  0.00     0.008 C 
HETATM    6  C6  LIG X 999      43.989 131.591  20.172  1.00  0.00    -0.013 C 
HETATM    7  C7  LIG X 999      45.005 131.469  21.149  1.00  0.00     0.013 C 
HETATM    8  C8  LIG X 999      44.707 131.526  22.513  1.00  0.00     0.001 C 
HETATM    9  C9  LIG X 999      43.402 131.755  22.938  1.00  0.00     0.001 C 
HETATM   10  C10 LIG X 999      42.398 131.986  22.000  1.00  0.00     0.012 C 
HETATM   11  C11 LIG X 999      42.687 131.946  20.627  1.00  0.00    -0.025 C 
HETATM   12  C12 LIG X 999      41.698 132.315  19.712  1.00  0.00     0.014 C 
HETATM   13  C13 LIG X 999      41.990 132.392  18.358  1.00  0.00     0.031 C 
HETATM   14  C14 LIG X 999      43.241 131.993  17.871  1.00  0.00     0.045 C 
HETATM   15  N2  LIG X 999      43.488 132.080  16.532  1.00  0.00    -0.341 N 
HETATM   16  H12 LIG X 999      42.761 132.494  15.902  1.00  0.00     0.167 HD
ENDROOT
BRANCH   1  17
HETATM   17  N1  LIG X 999      44.877 131.767  14.716  1.00  0.00    -0.284 NA
HETATM   18  H1  LIG X 999      45.715 131.348  14.254  1.00  0.00     0.188 HD
ENDBRANCH   1  17
TORSDOF 1
ENDMDL
MODEL 5
REMARK VINA RESULT:      -6.1      2.788      5.147
REMARK  1 active torsions:
REMARK  status: ('A' for Active; 'I' for Inactive)
REMARK    1  A    between atoms: N1_2  and  C1_3 
ROOT
HETATM    1  C1  LIG X 999      43.308 131.965  22.367  1.00  0.00     0.120 C 
HETATM    2  C2  LIG X 999      42.400 132.271  21.359  1.00  0.00     0.057 C 
HETATM    3  C3  LIG X 999      42.685 131.955  20.024  1.00  0.00    -0.045 C 
HETATM    4  C4  LIG X 999      41.527 132.038  19.060  1.00  0.00     0.049 C 
HETATM    5  C5  LIG X 999      43.980 131.445  19.687  1.00  0.00     0.008 C 
HETATM    6  C6  LIG X 999      44.484 131.282  18.353  1.00  0.00    -0.013 C 
HETATM    7  C7  LIG X 999      43.949 131.956  17.229  1.00  0.00     0.013 C 
HETATM    8  C8  LIG X 999      44.438 131.718  15.943  1.00  0.00     0.001 C 
HETATM    9  C9  LIG X 999      45.503 130.843  15.747  1.00  0.00     0.001 C 
HETATM   10  C10 LIG X 999      46.122 130.247  16.844  1.00  0.00     0.012 C 
HETATM   11  C11 LIG X 999      45.649 130.489  18.143  1.00  0.00    -0.025 C 
HETATM   12  C12 LIG X 999      46.366 129.991  19.232  1.00  0.00     0.014 C 
HETATM   13  C13 LIG X 999      45.984 130.309  20.528  1.00  0.00     0.031 C 
HETATM   14  C14 LIG X 999      44.812 131.035  20.771  1.00  0.00     0.045 C 
HETATM   15  N2  LIG X 999      44.468 131.324  22.059  1.00  0.00    -0.341 N 
HETATM   16  H12 LIG X 999      45.113 131.048  22.836  1.00  0.00     0.167 HD
ENDROOT
BRANCH   1  17
HETATM   17  N1  LIG X 999      43.020 132.256  23.597  1.00  0.00    -0.284 NA
HETATM   18  H1  LIG X 999      43.748 132.291  24.345  1.00  0.00     0.188 HD
ENDBRANCH   1  17
TORSDOF 1
ENDMDL
MODEL 6
REMARK VINA RESULT:      -5.9      2.005      4.549
REMARK  1 active torsions:
REMARK  status: ('A' for Active; 'I' for Inactive)
REMARK    1  A    between atoms: N1_2  and  C1_3 
ROOT
HETATM    1  C1  LIG X 999      44.929 131.627  20.899  1.00  0.00     0.120 C 
HETATM    2  C2  LIG X 999      43.732 132.071  20.348  1.00  0.00     0.057 C 
HETATM    3  C3  LIG X 999      43.448 131.852  18.993  1.00  0.00    -0.045 C 
HETATM    4  C4  LIG X 999      42.019 132.085  18.568  1.00  0.00     0.049 C 
HETATM    5  C5  LIG X 999      44.462 131.296  18.148  1.00  0.00     0.008 C 
HETATM    6  C6  LIG X 999      44.392 131.216  16.716  1.00  0.00    -0.013 C 
HETATM    7  C7  LIG X 999      43.525 132.014  15.931  1.00  0.00     0.013 C 
HETATM    8  C8  LIG X 999      43.454 131.856  14.545  1.00  0.00     0.001 C 
HETATM    9  C9  LIG X 999      44.279 130.940  13.899  1.00  0.00     0.001 C 
HETATM   10  C10 LIG X 999      45.220 130.218  14.630  1.00  0.00     0.012 C 
HETATM   11  C11 LIG X 999      45.311 130.376  16.022  1.00  0.00    -0.025 C 
HETATM   12  C12 LIG X 999      46.347 129.747  16.713  1.00  0.00     0.014 C 
HETATM   13  C13 LIG X 999      46.527 129.976  18.070  1.00  0.00     0.031 C 
HETATM   14  C14 LIG X 999      45.609 130.747  18.793  1.00  0.00     0.045 C 
HETATM   15  N2  LIG X 999      45.818 130.947  20.126  1.00  0.00    -0.341 N 
HETATM   16  H12 LIG X 999      46.687 130.568  20.572  1.00  0.00     0.167 HD
ENDROOT
BRANCH   1  17
HETATM   17  N1  LIG X 999      45.167 131.829  22.157  1.00  0.00    -0.284 NA
HETATM   18  H1  LIG X 999      46.133 131.987  22.523  1.00  0.00     0.188 HD
ENDBRANCH   1  17
TORSDOF 1
ENDMDL
MODEL 7
REMARK VINA RESULT:      -5.9      2.115      5.128
REMARK  1 active torsions:
REMARK  status: ('A' for Active; 'I' for Inactive)
REMARK    1  A    between atoms: N1_2  and  C1_3 
ROOT
HETATM    1  C1  LIG X 999      43.114 131.867  17.577  1.00  0.00     0.120 C 
HETATM    2  C2  LIG X 999      42.855 132.091  16.230  1.00  0.00     0.057 C 
HETATM    3  C3  LIG X 999      43.740 131.625  15.247  1.00  0.00    -0.045 C 
HETATM    4  C4  LIG X 999      43.225 131.641  13.829  1.00  0.00     0.049 C 
HETATM    5  C5  LIG X 999      44.984 131.042  15.648  1.00  0.00     0.008 C 
HETATM    6  C6  LIG X 999      46.070 130.721  14.765  1.00  0.00    -0.013 C 
HETATM    7  C7  LIG X 999      46.221 131.287  13.477  1.00  0.00     0.013 C 
HETATM    8  C8  LIG X 999      47.264 130.897  12.633  1.00  0.00     0.001 C 
HETATM    9  C9  LIG X 999      48.211 129.975  13.068  1.00  0.00     0.001 C 
HETATM   10  C10 LIG X 999      48.152 129.480  14.369  1.00  0.00     0.012 C 
HETATM   11  C11 LIG X 999      47.117 129.874  15.231  1.00  0.00    -0.025 C 
HETATM   12  C12 LIG X 999      47.155 129.474  16.568  1.00  0.00     0.014 C 
HETATM   13  C13 LIG X 999      46.206 129.941  17.467  1.00  0.00     0.031 C 
HETATM   14  C14 LIG X 999      45.131 130.725  17.031  1.00  0.00     0.045 C 
HETATM   15  N2  LIG X 999      44.217 131.161  17.945  1.00  0.00    -0.341 N 
HETATM   16  H12 LIG X 999      44.365 130.949  18.960  1.00  0.00     0.167 HD
ENDROOT
BRANCH   1  17
HETATM   17  N1  LIG X 999      42.277 132.296  18.469  1.00  0.00    -0.284 NA
HETATM   18  H1  LIG X 999      41.248 132.141  18.387  1.00  0.00     0.188 HD
ENDBRANCH   1  17
TORSDOF 1
ENDMDL
MODEL 8
REMARK VINA RESULT:      -5.3      1.901      3.195
REMARK  1 active torsions:
REMARK  status: ('A' for Active; 'I' for Inactive)
REMARK    1  A    between atoms: N1_2  and  C1_3 
ROOT
HETATM    1  C1  LIG X 999      44.256 131.251  16.652  1.00  0.00     0.120 C 
HETATM    2  C2  LIG X 999      43.035 131.725  17.119  1.00  0.00     0.057 C 
HETATM    3  C3  LIG X 999      42.843 131.973  18.486  1.00  0.00    -0.045 C 
HETATM    4  C4  LIG X 999      41.613 132.768  18.850  1.00  0.00     0.049 C 
HETATM    5  C5  LIG X 999      43.866 131.596  19.414  1.00  0.00     0.008 C 
HETATM    6  C6  LIG X 999      43.723 131.588  20.843  1.00  0.00    -0.013 C 
HETATM    7  C7  LIG X 999      42.471 131.562  21.502  1.00  0.00     0.013 C 
HETATM    8  C8  LIG X 999      42.386 131.614  22.895  1.00  0.00     0.001 C 
HETATM    9  C9  LIG X 999      43.543 131.642  23.669  1.00  0.00     0.001 C 
HETATM   10  C10 LIG X 999      44.790 131.560  23.055  1.00  0.00     0.012 C 
HETATM   11  C11 LIG X 999      44.889 131.493  21.656  1.00  0.00    -0.025 C 
HETATM   12  C12 LIG X 999      46.138 131.274  21.071  1.00  0.00     0.014 C 
HETATM   13  C13 LIG X 999      46.248 131.092  19.700  1.00  0.00     0.031 C 
HETATM   14  C14 LIG X 999      45.133 131.238  18.866  1.00  0.00     0.045 C 
HETATM   15  N2  LIG X 999      45.283 131.056  17.523  1.00  0.00    -0.341 N 
HETATM   16  H12 LIG X 999      46.213 130.756  17.147  1.00  0.00     0.167 HD
ENDROOT
BRANCH   1  17
HETATM   17  N1  LIG X 999      44.417 131.040  15.383  1.00  0.00    -0.284 NA
HETATM   18  H1  LIG X 999      45.117 130.357  15.017  1.00  0.00     0.188 HD
ENDBRANCH   1  17
TORSDOF 1
ENDMDL
