REMARK VINA RESULT:      -6.6      2.166      2.783
REMARK  5 active torsions:
REMARK  status: ('A' for Active; 'I' for Inactive)
REMARK    1  A    between atoms: C6_6  and  C7_7 
REMARK       I    between atoms: C7_7  and  N1_9 
REMARK    2  A    between atoms: N1_9  and  C8_11 
REMARK    3  A    between atoms: C8_11  and  C9_12 
REMARK    4  A    between atoms: C9_12  and  N2_13 
REMARK    5  A    between atoms: C13_19  and  N5_20 
ROOT
HETATM    1  N2  LIG X 999      45.789 130.135  14.330  1.00  0.00    -0.114 NA
HETATM    2  N3  LIG X 999      46.926 129.985  13.884  1.00  0.00    -0.168 NA
HETATM    3  N4  LIG X 999      48.062 129.835  13.436  1.00  0.00     0.068 N 
ENDROOT
BRANCH   1   4
HETATM    4  C9  LIG X 999      45.444 129.640  15.655  1.00  0.00     0.208 C 
BRANCH   4   5
HETATM    5  C8  LIG X 999      46.451 130.151  16.686  1.00  0.00     0.147 C 
BRANCH   5   6
HETATM    6  N1  LIG X 999      45.869 130.156  18.028  1.00  0.00    -0.355 N 
HETATM    7  C7  LIG X 999      45.082 131.251  18.523  1.00  0.00     0.251 C 
HETATM    8  O1  LIG X 999      44.952 132.293  17.822  1.00  0.00    -0.268 OA
HETATM    9  H4  LIG X 999      46.057 129.330  18.638  1.00  0.00     0.162 HD
BRANCH   7  10
HETATM   10  C6  LIG X 999      44.430 131.190  19.854  1.00  0.00     0.032 A 
HETATM   11  C1  LIG X 999      43.328 132.012  20.131  1.00  0.00     0.017 A 
HETATM   12  C2  LIG X 999      42.698 131.961  21.375  1.00  0.00     0.011 A 
HETATM   13  C3  LIG X 999      43.146 131.077  22.368  1.00  0.00    -0.024 A 
HETATM   14  C4  LIG X 999      44.262 130.247  22.104  1.00  0.00    -0.049 A 
HETATM   15  C13 LIG X 999      42.479 131.105  23.726  1.00  0.00     0.179 C 
HETATM   16  C5  LIG X 999      44.880 130.299  20.843  1.00  0.00     0.024 A 
HETATM   17  C10 LIG X 999      44.735 129.214  23.101  1.00  0.00     0.039 C 
HETATM   18  C11 LIG X 999      44.260 129.503  24.527  1.00  0.00     0.007 C 
HETATM   19  C12 LIG X 999      42.765 129.826  24.534  1.00  0.00     0.035 C 
BRANCH  15  20
HETATM   20  N5  LIG X 999      42.940 132.287  24.452  1.00  0.00    -0.105 NA
HETATM   21  N6  LIG X 999      44.138 132.556  24.537  1.00  0.00    -0.167 NA
HETATM   22  N7  LIG X 999      45.335 132.827  24.624  1.00  0.00     0.068 N 
ENDBRANCH  15  20
ENDBRANCH   7  10
ENDBRANCH   5   6
ENDBRANCH   4   5
ENDBRANCH   1   4
TORSDOF 5
