REMARK VINA RESULT:      -5.3      0.000      0.000
REMARK  5 active torsions:
REMARK  status: ('A' for Active; 'I' for Inactive)
REMARK    1  A    between atoms: O1_2  and  C1_3 
REMARK    2  A    between atoms: C1_3  and  C15_22 
REMARK    3  A    between atoms: N1_4  and  C2_5 
REMARK    4  A    between atoms: C3_6  and  O2_7 
REMARK    5  A    between atoms: O2_7  and  C4_8 
REMARK       I    between atoms: C4_8  and  N2_10 
ROOT
HETATM    1  C2  LIG X 999      44.136 127.724  23.108  1.00  0.00     0.104 A 
HETATM    2  C3  LIG X 999      43.195 127.309  24.066  1.00  0.00     0.110 A 
HETATM    3  C7  LIG X 999      42.309 128.246  24.625  1.00  0.00     0.041 A 
HETATM    4  C8  LIG X 999      42.329 129.576  24.209  1.00  0.00     0.015 A 
HETATM    5  C9  LIG X 999      43.228 129.995  23.221  1.00  0.00    -0.024 A 
HETATM    6  C10 LIG X 999      43.226 131.331  22.788  1.00  0.00     0.012 A 
HETATM    7  C11 LIG X 999      44.105 131.746  21.787  1.00  0.00     0.001 A 
HETATM    8  C12 LIG X 999      44.988 130.834  21.206  1.00  0.00     0.001 A 
HETATM    9  C13 LIG X 999      45.004 129.503  21.629  1.00  0.00     0.014 A 
HETATM   10  C14 LIG X 999      44.138 129.067  22.653  1.00  0.00     0.006 A 
ENDROOT
BRANCH   1  11
HETATM   11  N1  LIG X 999      45.052 126.751  22.587  1.00  0.00    -0.221 NA
HETATM   12  C1  LIG X 999      46.122 126.358  23.212  1.00  0.00     0.176 C 
BRANCH  12  13
HETATM   13  O1  LIG X 999      46.420 126.870  24.477  1.00  0.00    -0.344 OA
HETATM   14  H1  LIG X 999      45.810 127.521  24.954  1.00  0.00     0.219 HD
ENDBRANCH  12  13
BRANCH  12  15
HETATM   15  C15 LIG X 999      47.002 125.363  22.573  1.00  0.00     0.053 A 
HETATM   16  C16 LIG X 999      46.622 124.163  21.996  1.00  0.00     0.156 A 
HETATM   17  N3  LIG X 999      47.715 123.526  21.531  1.00  0.00    -0.185 NA
HETATM   18  N4  LIG X 999      48.763 124.294  21.785  1.00  0.00    -0.285 N 
HETATM   19  C17 LIG X 999      50.137 123.916  21.490  1.00  0.00     0.179 C 
HETATM   20  C18 LIG X 999      48.376 125.411  22.428  1.00  0.00     0.129 A 
ENDBRANCH  12  15
ENDBRANCH   1  11
BRANCH   2  21
HETATM   21  O2  LIG X 999      43.206 125.967  24.478  1.00  0.00    -0.254 OA
BRANCH  21  22
HETATM   22  C4  LIG X 999      42.447 124.937  23.904  1.00  0.00     0.461 C 
HETATM   23  O3  LIG X 999      41.210 124.842  24.145  1.00  0.00    -0.230 OA
HETATM   24  N2  LIG X 999      43.077 124.033  22.974  1.00  0.00     0.009 N 
HETATM   25  H2  LIG X 999      44.105 124.234  22.957  1.00  0.00     0.292 HD
HETATM   26  C5  LIG X 999      42.543 124.245  21.620  1.00  0.00     0.282 C 
HETATM   27  C6  LIG X 999      42.888 122.639  23.403  1.00  0.00     0.282 C 
ENDBRANCH  21  22
ENDBRANCH   2  21
TORSDOF 5
