REMARK VINA RESULT:      -5.4      7.074      8.311
REMARK  3 active torsions:
REMARK  status: ('A' for Active; 'I' for Inactive)
REMARK    1  A    between atoms: C7_9  and  C8_10 
REMARK    2  A    between atoms: C9_13  and  N4_14 
REMARK    3  A    between atoms: N7_23  and  C14_24 
ROOT
HETATM    1  N4  LIG X 999      49.147 122.900  19.885  1.00  0.00    -0.023 NA
HETATM    2  N5  LIG X 999      49.979 123.395  19.125  1.00  0.00    -0.158 NA
HETATM    3  N6  LIG X 999      50.811 123.890  18.366  1.00  0.00     0.068 N 
ENDROOT
BRANCH   1   4
HETATM    4  C9  LIG X 999      48.520 123.691  20.893  1.00  0.00     0.326 A 
HETATM    5  N3  LIG X 999      49.152 124.133  21.993  1.00  0.00    -0.099 NA
HETATM    6  N2  LIG X 999      48.250 124.822  22.675  1.00  0.00    -0.119 NA
HETATM    7  C8  LIG X 999      47.108 124.777  21.958  1.00  0.00     0.205 A 
HETATM    8  O1  LIG X 999      47.266 124.072  20.863  1.00  0.00    -0.252 OA
BRANCH   7   9
HETATM    9  C7  LIG X 999      45.837 125.391  22.392  1.00  0.00     0.032 A 
HETATM   10  C6  LIG X 999      44.701 124.625  22.803  1.00  0.00     0.020 A 
HETATM   11  C1  LIG X 999      44.477 123.145  22.701  1.00  0.00     0.060 A 
HETATM   12  C5  LIG X 999      43.627 125.340  23.302  1.00  0.00     0.019 A 
HETATM   13  N1  LIG X 999      45.322 122.375  22.094  1.00  0.00    -0.299 NA
HETATM   14  C2  LIG X 999      43.189 122.571  23.223  1.00  0.00     0.034 A 
HETATM   15  H1  LIG X 999      45.161 121.349  21.985  1.00  0.00     0.187 HD
HETATM   16  C3  LIG X 999      42.217 123.366  23.714  1.00  0.00     0.033 A 
HETATM   17  C4  LIG X 999      42.450 124.819  23.740  1.00  0.00     0.048 A 
HETATM   18  N7  LIG X 999      41.620 125.824  24.114  1.00  0.00    -0.324 N 
HETATM   19  C13 LIG X 999      42.303 126.978  23.875  1.00  0.00     0.193 A 
HETATM   20  C12 LIG X 999      43.561 126.692  23.374  1.00  0.00     0.032 A 
HETATM   21  O2  LIG X 999      41.789 128.253  24.090  1.00  0.00    -0.171 OA
HETATM   22  C11 LIG X 999      44.623 127.480  22.943  1.00  0.00     0.018 A 
HETATM   23  C10 LIG X 999      45.769 126.817  22.451  1.00  0.00     0.018 A 
BRANCH  18  24
HETATM   24  C14 LIG X 999      40.234 125.706  24.567  1.00  0.00     0.127 C 
HETATM   25  C15 LIG X 999      39.287 126.306  23.536  1.00  0.00     0.027 C 
ENDBRANCH  18  24
ENDBRANCH   7   9
ENDBRANCH   1   4
TORSDOF 3
