REMARK VINA RESULT:      -7.0      3.359      6.630
REMARK  3 active torsions:
REMARK  status: ('A' for Active; 'I' for Inactive)
REMARK    1  A    between atoms: C3_3  and  S1_4 
REMARK    2  A    between atoms: S1_4  and  C4_7 
REMARK    3  A    between atoms: C13_16  and  N1_17 
ROOT
HETATM    1  C1  LIG X 999      43.328 131.753  23.957  1.00  0.00     0.013 C 
HETATM    2  C2  LIG X 999      43.276 131.523  22.775  1.00  0.00    -0.102 C 
HETATM    3  C3  LIG X 999      43.217 131.247  21.338  1.00  0.00     0.238 C 
ENDROOT
BRANCH   3   4
HETATM    4  S1  LIG X 999      44.863 131.039  20.686  1.00  0.00     0.185 S 
HETATM    5  O1  LIG X 999      45.400 129.701  21.107  1.00  0.00    -0.222 OA
HETATM    6  O2  LIG X 999      45.764 132.111  21.235  1.00  0.00    -0.222 OA
BRANCH   4   7
HETATM    7  C4  LIG X 999      44.823 131.133  18.927  1.00  0.00     0.060 A 
HETATM    8  C5  LIG X 999      43.842 131.896  18.288  1.00  0.00     0.024 A 
HETATM    9  C6  LIG X 999      43.825 131.996  16.896  1.00  0.00     0.011 A 
HETATM   10  C7  LIG X 999      44.793 131.339  16.119  1.00  0.00    -0.022 A 
HETATM   11  C8  LIG X 999      45.787 130.563  16.763  1.00  0.00    -0.048 A 
HETATM   12  C13 LIG X 999      44.699 131.421  14.604  1.00  0.00     0.217 C 
HETATM   13  C9  LIG X 999      45.799 130.480  18.164  1.00  0.00     0.031 A 
HETATM   14  C10 LIG X 999      46.919 129.924  15.994  1.00  0.00     0.039 C 
HETATM   15  C11 LIG X 999      46.604 129.744  14.508  1.00  0.00     0.007 C 
HETATM   16  C12 LIG X 999      46.026 131.032  13.920  1.00  0.00     0.038 C 
BRANCH  12  17
HETATM   17  N1  LIG X 999      43.587 130.591  14.119  1.00  0.00    -0.071 N 
HETATM   18  H14 LIG X 999      43.777 129.582  14.317  1.00  0.00     0.275 HD
HETATM   19  H15 LIG X 999      43.489 130.700  13.083  1.00  0.00     0.275 HD
HETATM   20  H16 LIG X 999      42.686 130.869  14.571  1.00  0.00     0.275 HD
ENDBRANCH  12  17
ENDBRANCH   4   7
ENDBRANCH   3   4
TORSDOF 3
