REMARK VINA RESULT:      -4.9      2.739      4.830
REMARK  4 active torsions:
REMARK  status: ('A' for Active; 'I' for Inactive)
REMARK    1  A    between atoms: C3_3  and  O1_4 
REMARK    2  A    between atoms: O1_4  and  C4_5 
REMARK    3  A    between atoms: C9_12  and  N2_13 
REMARK    4  A    between atoms: C11_17  and  C12_18 
ROOT
HETATM    1  C1  LIG X 999      47.797 123.051  21.167  1.00  0.00     0.014 C 
HETATM    2  C2  LIG X 999      46.705 123.169  21.665  1.00  0.00    -0.091 C 
HETATM    3  C3  LIG X 999      45.381 123.312  22.269  1.00  0.00     0.268 C 
ENDROOT
BRANCH   3   4
HETATM    4  O1  LIG X 999      45.090 124.696  22.436  1.00  0.00    -0.339 OA
BRANCH   4   5
HETATM    5  C4  LIG X 999      43.834 125.212  22.796  1.00  0.00     0.085 A 
HETATM    6  C5  LIG X 999      42.664 124.392  22.773  1.00  0.00     0.052 A 
HETATM    7  C6  LIG X 999      41.419 124.928  23.146  1.00  0.00     0.008 A 
HETATM    8  C7  LIG X 999      41.391 126.249  23.522  1.00  0.00     0.018 A 
HETATM    9  C15 LIG X 999      40.112 124.216  23.139  1.00  0.00     0.059 A 
HETATM   10  C8  LIG X 999      40.273 126.942  23.849  1.00  0.00     0.046 A 
HETATM   11  C10 LIG X 999      42.470 127.076  23.548  1.00  0.00     0.042 A 
HETATM   12  N1  LIG X 999      40.588 128.231  24.084  1.00  0.00    -0.337 N 
HETATM   13  C13 LIG X 999      38.950 126.293  23.847  1.00  0.00     0.033 A 
HETATM   14  H5  LIG X 999      39.924 129.001  24.321  1.00  0.00     0.167 HD
HETATM   15  C9  LIG X 999      41.935 128.323  23.895  1.00  0.00     0.176 A 
HETATM   16  C14 LIG X 999      38.877 124.986  23.511  1.00  0.00     0.034 A 
HETATM   17  C11 LIG X 999      43.746 126.581  23.197  1.00  0.00     0.050 A 
HETATM   18  N5  LIG X 999      40.043 122.965  22.812  1.00  0.00    -0.300 NA
HETATM   19  H9  LIG X 999      39.136 122.449  22.798  1.00  0.00     0.187 HD
BRANCH  15  20
HETATM   20  N2  LIG X 999      42.657 129.554  23.957  1.00  0.00    -0.053 NA
HETATM   21  N3  LIG X 999      42.854 130.233  22.949  1.00  0.00    -0.160 NA
HETATM   22  N4  LIG X 999      43.051 130.911  21.943  1.00  0.00     0.068 N 
ENDBRANCH  15  20
BRANCH  17  23
HETATM   23  C12 LIG X 999      44.973 127.405  23.244  1.00  0.00     0.273 C 
HETATM   24  O2  LIG X 999      45.347 128.089  22.257  1.00  0.00    -0.301 OA
ENDBRANCH  17  23
ENDBRANCH   4   5
ENDBRANCH   3   4
TORSDOF 4
