REMARK VINA RESULT:      -7.8      1.360      2.192
REMARK  7 active torsions:
REMARK  status: ('A' for Active; 'I' for Inactive)
REMARK    1  A    between atoms: C6_6  and  O1_7 
REMARK    2  A    between atoms: O1_7  and  C7_8 
REMARK    3  A    between atoms: C7_8  and  O3_10 
REMARK    4  A    between atoms: O3_10  and  C8_11 
REMARK    5  A    between atoms: C8_11  and  N1_12 
REMARK       I    between atoms: N1_12  and  C9_14 
REMARK    6  A    between atoms: C9_14  and  C10_16 
REMARK    7  A    between atoms: C10_16  and  N2_17 
ROOT
HETATM    1  N2  LIG X 999      44.761 127.492  24.214  1.00  0.00    -0.261 NA
HETATM    2  C11 LIG X 999      45.805 126.786  24.396  1.00  0.00     0.158 C 
HETATM    3  S1  LIG X 999      47.126 125.891  24.624  1.00  0.00    -0.055 SA
ENDROOT
BRANCH   1   4
HETATM    4  C10 LIG X 999      44.402 128.014  22.898  1.00  0.00     0.197 C 
HETATM    5  C12 LIG X 999      45.290 127.368  21.835  1.00  0.00     0.044 C 
BRANCH   4   6
HETATM    6  C9  LIG X 999      44.558 129.513  22.870  1.00  0.00     0.243 C 
HETATM    7  N1  LIG X 999      45.024 130.168  21.683  1.00  0.00    -0.338 N 
HETATM    8  H7  LIG X 999      45.369 129.595  20.881  1.00  0.00     0.164 HD
HETATM    9  O4  LIG X 999      44.250 130.191  23.889  1.00  0.00    -0.271 OA
BRANCH   7  10
HETATM   10  C8  LIG X 999      44.944 131.617  21.519  1.00  0.00     0.306 C 
BRANCH  10  11
HETATM   11  O3  LIG X 999      45.051 131.962  20.140  1.00  0.00    -0.278 OA
BRANCH  11  12
HETATM   12  C7  LIG X 999      43.987 131.851  19.242  1.00  0.00     0.413 C 
HETATM   13  O2  LIG X 999      42.824 131.594  19.660  1.00  0.00    -0.229 OA
BRANCH  12  14
HETATM   14  O1  LIG X 999      44.223 132.098  17.884  1.00  0.00    -0.256 OA
BRANCH  14  15
HETATM   15  C6  LIG X 999      45.082 131.354  17.062  1.00  0.00     0.082 A 
HETATM   16  C5  LIG X 999      45.557 131.947  15.886  1.00  0.00     0.049 A 
HETATM   17  C4  LIG X 999      46.415 131.244  15.029  1.00  0.00    -0.023 A 
HETATM   18  C3  LIG X 999      46.879 131.831  13.841  1.00  0.00     0.012 A 
HETATM   19  C15 LIG X 999      46.818 129.929  15.364  1.00  0.00    -0.026 A 
HETATM   20  C2  LIG X 999      47.734 131.119  12.994  1.00  0.00     0.001 A 
HETATM   21  C1  LIG X 999      48.131 129.821  13.325  1.00  0.00     0.001 A 
HETATM   22  C16 LIG X 999      47.678 129.226  14.506  1.00  0.00     0.012 A 
HETATM   23  C14 LIG X 999      46.360 129.346  16.553  1.00  0.00     0.015 A 
HETATM   24  C13 LIG X 999      45.502 130.055  17.399  1.00  0.00     0.038 A 
ENDBRANCH  14  15
ENDBRANCH  12  14
ENDBRANCH  11  12
ENDBRANCH  10  11
ENDBRANCH   7  10
ENDBRANCH   4   6
ENDBRANCH   1   4
TORSDOF 7
