REMARK VINA RESULT:      -8.4      0.000      0.000
REMARK  4 active torsions:
REMARK  status: ('A' for Active; 'I' for Inactive)
REMARK    1  A    between atoms: C3_3  and  O1_4 
REMARK    2  A    between atoms: O1_4  and  C4_5 
REMARK    3  A    between atoms: C4_5  and  O2_6 
REMARK    4  A    between atoms: C5_8  and  C6_9 
ROOT
HETATM    1  C1  LIG X 999      44.638 129.639  22.391  1.00  0.00     0.014 C 
HETATM    2  C2  LIG X 999      43.992 130.596  22.044  1.00  0.00    -0.091 C 
HETATM    3  C3  LIG X 999      43.211 131.759  21.622  1.00  0.00     0.266 C 
ENDROOT
BRANCH   3   4
HETATM    4  O1  LIG X 999      43.617 132.133  20.326  1.00  0.00    -0.319 OA
BRANCH   4   5
HETATM    5  C4  LIG X 999      42.477 132.475  19.570  1.00  0.00     0.314 A 
HETATM    6  O3  LIG X 999      41.846 131.311  19.092  1.00  0.00    -0.312 OA
HETATM    7  C5  LIG X 999      42.400 132.169  18.117  1.00  0.00     0.254 A 
BRANCH   5   8
HETATM    8  O2  LIG X 999      41.534 133.328  20.155  1.00  0.00    -0.341 OA
HETATM    9  H4  LIG X 999      42.051 133.909  20.770  1.00  0.00     0.215 HD
ENDBRANCH   5   8
BRANCH   7  10
HETATM   10  C6  LIG X 999      43.644 131.601  17.492  1.00  0.00    -0.021 A 
HETATM   11  C7  LIG X 999      44.612 130.946  18.271  1.00  0.00     0.011 A 
HETATM   12  C8  LIG X 999      45.761 130.417  17.676  1.00  0.00     0.013 A 
HETATM   13  C9  LIG X 999      45.951 130.524  16.290  1.00  0.00    -0.026 A 
HETATM   14  C10 LIG X 999      47.103 130.001  15.683  1.00  0.00     0.012 A 
HETATM   15  C14 LIG X 999      44.967 131.161  15.496  1.00  0.00    -0.025 A 
HETATM   16  C11 LIG X 999      47.277 130.109  14.300  1.00  0.00     0.001 A 
HETATM   17  C12 LIG X 999      46.306 130.738  13.516  1.00  0.00     0.001 A 
HETATM   18  C13 LIG X 999      45.153 131.263  14.109  1.00  0.00     0.012 A 
HETATM   19  C15 LIG X 999      43.815 131.685  16.103  1.00  0.00     0.022 A 
ENDBRANCH   7  10
ENDBRANCH   4   5
ENDBRANCH   3   4
TORSDOF 4
