REMARK VINA RESULT:      -8.2      0.000      0.000
REMARK  3 active torsions:
REMARK  status: ('A' for Active; 'I' for Inactive)
REMARK    1  A    between atoms: C6_6  and  C7_7 
REMARK    2  A    between atoms: C7_7  and  C8_9 
REMARK    3  A    between atoms: C8_9  and  N1_10 
ROOT
HETATM    1  N1  LIG X 999      46.782 131.341  13.885  1.00  0.00    -0.108 NA
HETATM    2  N2  LIG X 999      47.551 130.401  13.683  1.00  0.00    -0.167 NA
HETATM    3  N3  LIG X 999      48.320 129.462  13.481  1.00  0.00     0.068 N 
ENDROOT
BRANCH   1   4
HETATM    4  C8  LIG X 999      46.434 131.751  15.241  1.00  0.00     0.272 C 
BRANCH   4   5
HETATM    5  C7  LIG X 999      44.987 131.449  15.540  1.00  0.00     0.181 C 
HETATM    6  O1  LIG X 999      44.225 131.107  14.594  1.00  0.00    -0.290 OA
BRANCH   5   7
HETATM    7  C6  LIG X 999      44.446 131.520  16.924  1.00  0.00     0.012 A 
HETATM    8  C5  LIG X 999      45.261 131.266  18.046  1.00  0.00     0.027 A 
HETATM    9  C4  LIG X 999      44.735 131.336  19.345  1.00  0.00    -0.025 A 
HETATM   10  C3  LIG X 999      45.548 131.083  20.462  1.00  0.00     0.012 A 
HETATM   11  C11 LIG X 999      43.373 131.665  19.534  1.00  0.00    -0.026 A 
HETATM   12  C2  LIG X 999      45.014 131.156  21.751  1.00  0.00     0.001 A 
HETATM   13  C1  LIG X 999      43.667 131.481  21.937  1.00  0.00     0.001 A 
HETATM   14  C12 LIG X 999      42.847 131.735  20.834  1.00  0.00     0.012 A 
HETATM   15  C10 LIG X 999      42.560 131.915  18.421  1.00  0.00     0.013 A 
HETATM   16  C9  LIG X 999      43.091 131.843  17.131  1.00  0.00     0.016 A 
ENDBRANCH   5   7
ENDBRANCH   4   5
ENDBRANCH   1   4
TORSDOF 3
