REMARK VINA RESULT:      -8.5      0.000      0.000
REMARK  3 active torsions:
REMARK  status: ('A' for Active; 'I' for Inactive)
REMARK    1  A    between atoms: C3_3  and  S1_4 
REMARK    2  A    between atoms: S1_4  and  C4_7 
REMARK    3  A    between atoms: C13_16  and  N1_17 
ROOT
HETATM    1  C1  LIG X 999      47.461 130.761  13.368  1.00  0.00     0.013 C 
HETATM    2  C2  LIG X 999      46.869 131.362  14.229  1.00  0.00    -0.102 C 
HETATM    3  C3  LIG X 999      46.145 132.091  15.273  1.00  0.00     0.238 C 
ENDROOT
BRANCH   3   4
HETATM    4  S1  LIG X 999      44.759 131.127  15.845  1.00  0.00     0.185 S 
HETATM    5  O1  LIG X 999      44.877 129.725  15.319  1.00  0.00    -0.222 OA
HETATM    6  O2  LIG X 999      43.480 131.726  15.328  1.00  0.00    -0.222 OA
BRANCH   4   7
HETATM    7  C4  LIG X 999      44.739 131.098  17.606  1.00  0.00     0.060 A 
HETATM    8  C5  LIG X 999      45.808 130.538  18.310  1.00  0.00     0.024 A 
HETATM    9  C6  LIG X 999      45.809 130.539  19.705  1.00  0.00     0.011 A 
HETATM   10  C7  LIG X 999      44.742 131.107  20.422  1.00  0.00    -0.022 A 
HETATM   11  C8  LIG X 999      43.656 131.673  19.712  1.00  0.00    -0.048 A 
HETATM   12  C13 LIG X 999      44.753 131.029  21.939  1.00  0.00     0.217 C 
HETATM   13  C9  LIG X 999      43.673 131.675  18.308  1.00  0.00     0.031 A 
HETATM   14  C10 LIG X 999      42.534 132.396  20.419  1.00  0.00     0.039 C 
HETATM   15  C11 LIG X 999      42.408 132.004  21.893  1.00  0.00     0.007 C 
HETATM   16  C12 LIG X 999      43.775 132.037  22.577  1.00  0.00     0.038 C 
BRANCH  12  17
HETATM   17  N1  LIG X 999      44.462 129.656  22.379  1.00  0.00    -0.071 N 
HETATM   18  H14 LIG X 999      44.893 128.967  21.720  1.00  0.00     0.275 HD
HETATM   19  H15 LIG X 999      43.428 129.495  22.377  1.00  0.00     0.275 HD
HETATM   20  H16 LIG X 999      44.825 129.486  23.344  1.00  0.00     0.275 HD
ENDBRANCH  12  17
ENDBRANCH   4   7
ENDBRANCH   3   4
TORSDOF 3
