REMARK VINA RESULT:      -9.0      0.000      0.000
REMARK  3 active torsions:
REMARK  status: ('A' for Active; 'I' for Inactive)
REMARK    1  A    between atoms: C3_3  and  N1_4 
REMARK    2  A    between atoms: N1_4  and  C6_7 
REMARK    3  A    between atoms: C6_7  and  C7_8 
ROOT
HETATM    1  C1  LIG X 999      48.339 129.476  13.789  1.00  0.00     0.013 C 
HETATM    2  C2  LIG X 999      47.334 130.137  13.718  1.00  0.00    -0.089 C 
HETATM    3  C3  LIG X 999      46.102 130.946  13.629  1.00  0.00     0.329 C 
ENDROOT
BRANCH   3   4
HETATM    4  N1  LIG X 999      45.247 130.865  14.852  1.00  0.00    -0.061 N 
HETATM    5  C4  LIG X 999      45.179 129.446  15.282  1.00  0.00     0.273 C 
HETATM    6  C5  LIG X 999      43.862 131.297  14.523  1.00  0.00     0.273 C 
BRANCH   4   7
HETATM    7  C6  LIG X 999      45.755 131.724  15.970  1.00  0.00     0.276 C 
BRANCH   7   8
HETATM    8  C7  LIG X 999      44.919 131.671  17.237  1.00  0.00    -0.032 A 
HETATM    9  C8  LIG X 999      43.531 131.879  17.180  1.00  0.00     0.010 A 
HETATM   10  C9  LIG X 999      42.756 131.835  18.342  1.00  0.00     0.013 A 
HETATM   11  C10 LIG X 999      43.359 131.593  19.583  1.00  0.00    -0.026 A 
HETATM   12  C11 LIG X 999      42.589 131.545  20.755  1.00  0.00     0.012 A 
HETATM   13  C15 LIG X 999      44.759 131.400  19.655  1.00  0.00    -0.025 A 
HETATM   14  C12 LIG X 999      43.205 131.307  21.988  1.00  0.00     0.001 A 
HETATM   15  C13 LIG X 999      44.587 131.117  22.061  1.00  0.00     0.001 A 
HETATM   16  C14 LIG X 999      45.364 131.164  20.900  1.00  0.00     0.012 A 
HETATM   17  C16 LIG X 999      45.529 131.448  18.484  1.00  0.00     0.021 A 
ENDBRANCH   7   8
ENDBRANCH   4   7
ENDBRANCH   3   4
TORSDOF 3
