REMARK VINA RESULT:      -7.1      3.845      8.284
REMARK  7 active torsions:
REMARK  status: ('A' for Active; 'I' for Inactive)
REMARK    1  A    between atoms: N1_2  and  C2_3 
REMARK    2  A    between atoms: C2_3  and  C4_5 
REMARK    3  A    between atoms: C4_5  and  C5_6 
REMARK    4  A    between atoms: C5_6  and  C6_7 
REMARK    5  A    between atoms: C6_7  and  C7_8 
REMARK    6  A    between atoms: C7_8  and  N2_9 
REMARK    7  A    between atoms: N2_9  and  C8_10 
ROOT
HETATM    1  C8  LIG X 999      43.437 131.064  22.705  1.00  0.00     0.101 C 
HETATM    2  C9  LIG X 999      42.519 131.805  21.952  1.00  0.00     0.056 C 
HETATM    3  C10 LIG X 999      42.757 132.069  20.596  1.00  0.00    -0.045 C 
HETATM    4  C11 LIG X 999      41.875 133.116  19.959  1.00  0.00     0.049 C 
HETATM    5  C12 LIG X 999      43.879 131.462  19.951  1.00  0.00     0.008 C 
HETATM    6  C13 LIG X 999      44.848 130.848  20.795  1.00  0.00     0.045 C 
HETATM    7  C14 LIG X 999      46.087 130.451  20.277  1.00  0.00     0.031 C 
HETATM    8  C15 LIG X 999      46.385 130.628  18.933  1.00  0.00     0.014 C 
HETATM    9  C16 LIG X 999      45.409 131.102  18.052  1.00  0.00    -0.025 C 
HETATM   10  C17 LIG X 999      45.699 131.165  16.679  1.00  0.00     0.012 C 
HETATM   11  C18 LIG X 999      44.704 131.505  15.766  1.00  0.00     0.001 C 
HETATM   12  C19 LIG X 999      43.407 131.742  16.210  1.00  0.00     0.001 C 
HETATM   13  C20 LIG X 999      43.109 131.697  17.574  1.00  0.00     0.013 C 
HETATM   14  C21 LIG X 999      44.119 131.462  18.537  1.00  0.00    -0.013 C 
HETATM   15  N3  LIG X 999      44.593 130.654  22.121  1.00  0.00    -0.342 N 
HETATM   16  H28 LIG X 999      45.302 130.165  22.713  1.00  0.00     0.167 HD
ENDROOT
BRANCH   1  17
HETATM   17  N2  LIG X 999      43.219 130.788  24.102  1.00  0.00    -0.376 N 
HETATM   18  H17 LIG X 999      43.825 131.274  24.801  1.00  0.00     0.161 HD
BRANCH  17  19
HETATM   19  C7  LIG X 999      42.249 129.820  24.624  1.00  0.00     0.121 C 
BRANCH  19  20
HETATM   20  C6  LIG X 999      42.130 128.592  23.710  1.00  0.00     0.020 C 
BRANCH  20  21
HETATM   21  C5  LIG X 999      40.914 127.727  24.067  1.00  0.00     0.004 C 
BRANCH  21  22
HETATM   22  C4  LIG X 999      41.139 126.265  23.652  1.00  0.00     0.035 C 
BRANCH  22  23
HETATM   23  C2  LIG X 999      39.862 125.420  23.816  1.00  0.00     0.216 C 
HETATM   24  C3  LIG X 999      38.627 126.339  23.850  1.00  0.00     0.042 C 
BRANCH  23  25
HETATM   25  N1  LIG X 999      39.779 124.441  22.715  1.00  0.00     0.083 N 
HETATM   26  C1  LIG X 999      39.535 123.080  23.200  1.00  0.00     0.307 C 
HETATM   27  H4  LIG X 999      39.011 124.704  22.052  1.00  0.00     0.315 HD
ENDBRANCH  23  25
ENDBRANCH  22  23
ENDBRANCH  21  22
ENDBRANCH  20  21
ENDBRANCH  19  20
ENDBRANCH  17  19
ENDBRANCH   1  17
TORSDOF 7
