REMARK VINA RESULT:      -4.7      3.419      6.061
REMARK  5 active torsions:
REMARK  status: ('A' for Active; 'I' for Inactive)
REMARK    1  A    between atoms: O1_2  and  C1_3 
REMARK    2  A    between atoms: C1_3  and  O4_19 
REMARK       I    between atoms: N1_4  and  C2_5 
REMARK    3  A    between atoms: C2_5  and  C3_7 
REMARK    4  A    between atoms: C4_8  and  O3_9 
REMARK    5  A    between atoms: O4_19  and  C13_20 
ROOT
HETATM    1  C3  LIG X 999      44.453 131.101  21.050  1.00  0.00     0.068 A 
HETATM    2  C4  LIG X 999      43.150 131.281  21.557  1.00  0.00     0.082 A 
HETATM    3  C5  LIG X 999      42.607 130.338  22.442  1.00  0.00     0.049 A 
HETATM    4  C6  LIG X 999      43.358 129.226  22.846  1.00  0.00    -0.023 A 
HETATM    5  C7  LIG X 999      42.818 128.282  23.734  1.00  0.00     0.012 A 
HETATM    6  C8  LIG X 999      43.579 127.180  24.133  1.00  0.00     0.001 A 
HETATM    7  C9  LIG X 999      44.880 127.012  23.652  1.00  0.00     0.001 A 
HETATM    8  C10 LIG X 999      45.429 127.945  22.768  1.00  0.00     0.012 A 
HETATM    9  C11 LIG X 999      44.674 129.056  22.359  1.00  0.00    -0.025 A 
HETATM   10  C12 LIG X 999      45.214 129.997  21.470  1.00  0.00     0.032 A 
ENDROOT
BRANCH   1  11
HETATM   11  C2  LIG X 999      45.051 132.076  20.106  1.00  0.00     0.283 C 
HETATM   12  N1  LIG X 999      45.199 131.798  18.706  1.00  0.00    -0.162 NA
HETATM   13  C1  LIG X 999      45.485 130.639  18.188  1.00  0.00     0.289 C 
HETATM   14  O2  LIG X 999      45.409 133.204  20.538  1.00  0.00    -0.265 OA
BRANCH  13  15
HETATM   15  O1  LIG X 999      45.759 129.545  19.005  1.00  0.00    -0.325 OA
HETATM   16  H1  LIG X 999      46.448 128.856  18.730  1.00  0.00     0.221 HD
ENDBRANCH  13  15
BRANCH  13  17
HETATM   17  O4  LIG X 999      45.552 130.472  16.797  1.00  0.00    -0.294 OA
BRANCH  17  18
HETATM   18  C13 LIG X 999      45.496 131.527  15.830  1.00  0.00     0.224 C 
HETATM   19 CL1  LIG X 999      43.881 131.630  15.071  1.00  0.00    -0.095 Cl
HETATM   20  C14 LIG X 999      46.590 131.374  14.775  1.00  0.00     0.057 C 
ENDBRANCH  17  18
ENDBRANCH  13  17
ENDBRANCH   1  11
BRANCH   2  21
HETATM   21  O3  LIG X 999      42.402 132.402  21.197  1.00  0.00    -0.360 OA
HETATM   22  H2  LIG X 999      42.815 133.326  21.153  1.00  0.00     0.217 HD
ENDBRANCH   2  21
TORSDOF 5
