MODEL 1
REMARK VINA RESULT:      -7.1      0.000      0.000
REMARK  4 active torsions:
REMARK  status: ('A' for Active; 'I' for Inactive)
REMARK    1  A    between atoms: C3_3  and  O1_4 
REMARK    2  A    between atoms: O1_4  and  C4_5 
REMARK    3  A    between atoms: C4_5  and  O2_6 
REMARK    4  A    between atoms: C5_8  and  C6_9 
ROOT
HETATM    1  C1  LIG X 999      45.376 127.214  22.381  1.00  0.00     0.014 C 
HETATM    2  C2  LIG X 999      44.636 127.998  22.919  1.00  0.00    -0.091 C 
HETATM    3  C3  LIG X 999      43.734 128.947  23.571  1.00  0.00     0.266 C 
ENDROOT
BRANCH   3   4
HETATM    4  O1  LIG X 999      42.969 129.600  22.584  1.00  0.00    -0.319 OA
BRANCH   4   5
HETATM    5  C4  LIG X 999      42.838 130.959  22.931  1.00  0.00     0.314 A 
HETATM    6  O3  LIG X 999      44.095 131.497  23.268  1.00  0.00    -0.312 OA
HETATM    7  C5  LIG X 999      43.479 132.024  22.113  1.00  0.00     0.254 A 
BRANCH   5   8
HETATM    8  O2  LIG X 999      41.892 131.300  23.904  1.00  0.00    -0.341 OA
HETATM    9  H4  LIG X 999      41.510 132.165  23.608  1.00  0.00     0.215 HD
ENDBRANCH   5   8
BRANCH   7  10
HETATM   10  C6  LIG X 999      44.151 131.574  20.846  1.00  0.00    -0.021 A 
HETATM   11  C7  LIG X 999      45.390 130.912  20.879  1.00  0.00     0.011 A 
HETATM   12  C8  LIG X 999      46.007 130.506  19.693  1.00  0.00     0.013 A 
HETATM   13  C9  LIG X 999      45.400 130.767  18.457  1.00  0.00    -0.026 A 
HETATM   14  C10 LIG X 999      46.008 130.359  17.259  1.00  0.00     0.012 A 
HETATM   15  C14 LIG X 999      44.163 131.455  18.415  1.00  0.00    -0.025 A 
HETATM   16  C11 LIG X 999      45.394 130.630  16.033  1.00  0.00     0.001 A 
HETATM   17  C12 LIG X 999      44.174 131.309  15.992  1.00  0.00     0.001 A 
HETATM   18  C13 LIG X 999      43.558 131.722  17.176  1.00  0.00     0.012 A 
HETATM   19  C15 LIG X 999      43.553 131.863  19.611  1.00  0.00     0.022 A 
ENDBRANCH   7  10
ENDBRANCH   4   5
ENDBRANCH   3   4
TORSDOF 4
ENDMDL
MODEL 2
REMARK VINA RESULT:      -6.8      1.614      2.439
REMARK  4 active torsions:
REMARK  status: ('A' for Active; 'I' for Inactive)
REMARK    1  A    between atoms: C3_3  and  O1_4 
REMARK    2  A    between atoms: O1_4  and  C4_5 
REMARK    3  A    between atoms: C4_5  and  O2_6 
REMARK    4  A    between atoms: C5_8  and  C6_9 
ROOT
HETATM    1  C1  LIG X 999      44.555 128.196  23.000  1.00  0.00     0.014 C 
HETATM    2  C2  LIG X 999      44.456 129.374  22.765  1.00  0.00    -0.091 C 
HETATM    3  C3  LIG X 999      44.332 130.803  22.480  1.00  0.00     0.266 C 
ENDROOT
BRANCH   3   4
HETATM    4  O1  LIG X 999      44.413 130.997  21.087  1.00  0.00    -0.319 OA
BRANCH   4   5
HETATM    5  C4  LIG X 999      43.243 131.647  20.645  1.00  0.00     0.314 A 
HETATM    6  O3  LIG X 999      43.563 132.906  20.104  1.00  0.00    -0.312 OA
HETATM    7  C5  LIG X 999      43.035 131.956  19.205  1.00  0.00     0.254 A 
BRANCH   5   8
HETATM    8  O2  LIG X 999      42.179 131.766  21.546  1.00  0.00    -0.341 OA
HETATM    9  H4  LIG X 999      41.602 130.978  21.377  1.00  0.00     0.215 HD
ENDBRANCH   5   8
BRANCH   7  10
HETATM   10  C6  LIG X 999      44.072 131.424  18.255  1.00  0.00    -0.021 A 
HETATM   11  C7  LIG X 999      45.187 130.712  18.726  1.00  0.00     0.011 A 
HETATM   12  C8  LIG X 999      46.147 130.229  17.833  1.00  0.00     0.013 A 
HETATM   13  C9  LIG X 999      46.011 130.463  16.457  1.00  0.00    -0.026 A 
HETATM   14  C10 LIG X 999      46.967 129.978  15.550  1.00  0.00     0.012 A 
HETATM   15  C14 LIG X 999      44.902 131.200  15.978  1.00  0.00    -0.025 A 
HETATM   16  C11 LIG X 999      46.822 130.222  14.181  1.00  0.00     0.001 A 
HETATM   17  C12 LIG X 999      45.727 130.950  13.709  1.00  0.00     0.001 A 
HETATM   18  C13 LIG X 999      44.768 131.440  14.601  1.00  0.00     0.012 A 
HETATM   19  C15 LIG X 999      43.945 131.685  16.883  1.00  0.00     0.022 A 
ENDBRANCH   7  10
ENDBRANCH   4   5
ENDBRANCH   3   4
TORSDOF 4
ENDMDL
MODEL 3
REMARK VINA RESULT:      -6.6      2.593      4.067
REMARK  4 active torsions:
REMARK  status: ('A' for Active; 'I' for Inactive)
REMARK    1  A    between atoms: C3_3  and  O1_4 
REMARK    2  A    between atoms: O1_4  and  C4_5 
REMARK    3  A    between atoms: C4_5  and  O2_6 
REMARK    4  A    between atoms: C5_8  and  C6_9 
ROOT
HETATM    1  C1  LIG X 999      44.690 128.932  22.279  1.00  0.00     0.014 C 
HETATM    2  C2  LIG X 999      45.055 129.913  21.681  1.00  0.00    -0.091 C 
HETATM    3  C3  LIG X 999      45.493 131.104  20.954  1.00  0.00     0.266 C 
ENDROOT
BRANCH   3   4
HETATM    4  O1  LIG X 999      45.331 130.879  19.572  1.00  0.00    -0.319 OA
BRANCH   4   5
HETATM    5  C4  LIG X 999      44.172 131.548  19.131  1.00  0.00     0.314 A 
HETATM    6  O3  LIG X 999      44.525 132.721  18.437  1.00  0.00    -0.312 OA
HETATM    7  C5  LIG X 999      43.888 131.715  17.681  1.00  0.00     0.254 A 
BRANCH   5   8
HETATM    8  O2  LIG X 999      43.177 131.828  20.075  1.00  0.00    -0.341 OA
HETATM    9  H4  LIG X 999      43.574 132.502  20.683  1.00  0.00     0.215 HD
ENDBRANCH   5   8
BRANCH   7  10
HETATM   10  C6  LIG X 999      44.830 131.021  16.736  1.00  0.00    -0.021 A 
HETATM   11  C7  LIG X 999      45.057 129.638  16.826  1.00  0.00     0.011 A 
HETATM   12  C8  LIG X 999      45.941 129.008  15.946  1.00  0.00     0.013 A 
HETATM   13  C9  LIG X 999      46.620 129.754  14.973  1.00  0.00    -0.026 A 
HETATM   14  C10 LIG X 999      47.506 129.131  14.080  1.00  0.00     0.012 A 
HETATM   15  C14 LIG X 999      46.415 131.153  14.893  1.00  0.00    -0.025 A 
HETATM   16  C11 LIG X 999      48.181 129.887  13.118  1.00  0.00     0.001 A 
HETATM   17  C12 LIG X 999      47.978 131.268  13.039  1.00  0.00     0.001 A 
HETATM   18  C13 LIG X 999      47.099 131.902  13.922  1.00  0.00     0.012 A 
HETATM   19  C15 LIG X 999      45.529 131.777  15.783  1.00  0.00     0.022 A 
ENDBRANCH   7  10
ENDBRANCH   4   5
ENDBRANCH   3   4
TORSDOF 4
ENDMDL
MODEL 4
REMARK VINA RESULT:      -6.6      0.752      1.814
REMARK  4 active torsions:
REMARK  status: ('A' for Active; 'I' for Inactive)
REMARK    1  A    between atoms: C3_3  and  O1_4 
REMARK    2  A    between atoms: O1_4  and  C4_5 
REMARK    3  A    between atoms: C4_5  and  O2_6 
REMARK    4  A    between atoms: C5_8  and  C6_9 
ROOT
HETATM    1  C1  LIG X 999      45.388 127.025  22.679  1.00  0.00     0.014 C 
HETATM    2  C2  LIG X 999      44.453 127.681  23.065  1.00  0.00    -0.091 C 
HETATM    3  C3  LIG X 999      43.316 128.475  23.530  1.00  0.00     0.266 C 
ENDROOT
BRANCH   3   4
HETATM    4  O1  LIG X 999      43.069 129.504  22.600  1.00  0.00    -0.319 OA
BRANCH   4   5
HETATM    5  C4  LIG X 999      43.063 130.741  23.275  1.00  0.00     0.314 A 
HETATM    6  O3  LIG X 999      44.328 131.352  23.178  1.00  0.00    -0.312 OA
HETATM    7  C5  LIG X 999      43.261 132.017  22.538  1.00  0.00     0.254 A 
BRANCH   5   8
HETATM    8  O2  LIG X 999      42.619 130.762  24.602  1.00  0.00    -0.341 OA
HETATM    9  H4  LIG X 999      43.176 130.094  25.076  1.00  0.00     0.215 HD
ENDBRANCH   5   8
BRANCH   7  10
HETATM   10  C6  LIG X 999      43.334 131.915  21.039  1.00  0.00    -0.021 A 
HETATM   11  C7  LIG X 999      42.241 132.276  20.235  1.00  0.00     0.011 A 
HETATM   12  C8  LIG X 999      42.321 132.168  18.844  1.00  0.00     0.013 A 
HETATM   13  C9  LIG X 999      43.490 131.686  18.239  1.00  0.00    -0.026 A 
HETATM   14  C10 LIG X 999      43.583 131.578  16.843  1.00  0.00     0.012 A 
HETATM   15  C14 LIG X 999      44.587 131.297  19.046  1.00  0.00    -0.025 A 
HETATM   16  C11 LIG X 999      44.753 131.091  16.252  1.00  0.00     0.001 A 
HETATM   17  C12 LIG X 999      45.835 130.708  17.049  1.00  0.00     0.001 A 
HETATM   18  C13 LIG X 999      45.756 130.808  18.441  1.00  0.00     0.012 A 
HETATM   19  C15 LIG X 999      44.496 131.405  20.442  1.00  0.00     0.022 A 
ENDBRANCH   7  10
ENDBRANCH   4   5
ENDBRANCH   3   4
TORSDOF 4
ENDMDL
MODEL 5
REMARK VINA RESULT:      -6.2      1.708      3.437
REMARK  4 active torsions:
REMARK  status: ('A' for Active; 'I' for Inactive)
REMARK    1  A    between atoms: C3_3  and  O1_4 
REMARK    2  A    between atoms: O1_4  and  C4_5 
REMARK    3  A    between atoms: C4_5  and  O2_6 
REMARK    4  A    between atoms: C5_8  and  C6_9 
ROOT
HETATM    1  C1  LIG X 999      41.462 133.364  20.446  1.00  0.00     0.014 C 
HETATM    2  C2  LIG X 999      41.958 132.520  21.148  1.00  0.00    -0.091 C 
HETATM    3  C3  LIG X 999      42.563 131.497  22.000  1.00  0.00     0.266 C 
ENDROOT
BRANCH   3   4
HETATM    4  O1  LIG X 999      43.327 130.629  21.196  1.00  0.00    -0.319 OA
BRANCH   4   5
HETATM    5  C4  LIG X 999      44.670 130.671  21.622  1.00  0.00     0.314 A 
HETATM    6  O3  LIG X 999      45.363 129.539  21.152  1.00  0.00    -0.312 OA
HETATM    7  C5  LIG X 999      45.782 130.785  20.640  1.00  0.00     0.254 A 
BRANCH   5   8
HETATM    8  O2  LIG X 999      44.920 130.858  22.986  1.00  0.00    -0.341 OA
HETATM    9  H4  LIG X 999      44.041 131.079  23.386  1.00  0.00     0.215 HD
ENDBRANCH   5   8
BRANCH   7  10
HETATM   10  C6  LIG X 999      45.383 130.980  19.204  1.00  0.00    -0.021 A 
HETATM   11  C7  LIG X 999      44.233 131.712  18.866  1.00  0.00     0.011 A 
HETATM   12  C8  LIG X 999      43.869 131.879  17.527  1.00  0.00     0.013 A 
HETATM   13  C9  LIG X 999      44.644 131.307  16.509  1.00  0.00    -0.026 A 
HETATM   14  C10 LIG X 999      44.291 131.473  15.160  1.00  0.00     0.012 A 
HETATM   15  C14 LIG X 999      45.791 130.548  16.844  1.00  0.00    -0.025 A 
HETATM   16  C11 LIG X 999      45.070 130.893  14.154  1.00  0.00     0.001 A 
HETATM   17  C12 LIG X 999      46.202 130.143  14.486  1.00  0.00     0.001 A 
HETATM   18  C13 LIG X 999      46.564 129.969  15.824  1.00  0.00     0.012 A 
HETATM   19  C15 LIG X 999      46.146 130.381  18.191  1.00  0.00     0.022 A 
ENDBRANCH   7  10
ENDBRANCH   4   5
ENDBRANCH   3   4
TORSDOF 4
ENDMDL
MODEL 6
REMARK VINA RESULT:      -6.2      1.640      2.790
REMARK  4 active torsions:
REMARK  status: ('A' for Active; 'I' for Inactive)
REMARK    1  A    between atoms: C3_3  and  O1_4 
REMARK    2  A    between atoms: O1_4  and  C4_5 
REMARK    3  A    between atoms: C4_5  and  O2_6 
REMARK    4  A    between atoms: C5_8  and  C6_9 
ROOT
HETATM    1  C1  LIG X 999      42.249 129.242  23.985  1.00  0.00     0.014 C 
HETATM    2  C2  LIG X 999      42.333 130.259  23.342  1.00  0.00    -0.091 C 
HETATM    3  C3  LIG X 999      42.431 131.491  22.560  1.00  0.00     0.266 C 
ENDROOT
BRANCH   3   4
HETATM    4  O1  LIG X 999      43.213 131.241  21.415  1.00  0.00    -0.319 OA
BRANCH   4   5
HETATM    5  C4  LIG X 999      44.575 131.280  21.773  1.00  0.00     0.314 A 
HETATM    6  O3  LIG X 999      45.206 130.075  21.408  1.00  0.00    -0.312 OA
HETATM    7  C5  LIG X 999      45.641 131.237  20.737  1.00  0.00     0.254 A 
BRANCH   5   8
HETATM    8  O2  LIG X 999      44.897 131.612  23.094  1.00  0.00    -0.341 OA
HETATM    9  H4  LIG X 999      44.649 132.566  23.193  1.00  0.00     0.215 HD
ENDBRANCH   5   8
BRANCH   7  10
HETATM   10  C6  LIG X 999      45.180 131.282  19.307  1.00  0.00    -0.021 A 
HETATM   11  C7  LIG X 999      43.935 131.836  18.966  1.00  0.00     0.011 A 
HETATM   12  C8  LIG X 999      43.515 131.865  17.633  1.00  0.00     0.013 A 
HETATM   13  C9  LIG X 999      44.328 131.328  16.625  1.00  0.00    -0.026 A 
HETATM   14  C10 LIG X 999      43.919 131.356  15.283  1.00  0.00     0.012 A 
HETATM   15  C14 LIG X 999      45.574 130.747  16.965  1.00  0.00    -0.025 A 
HETATM   16  C11 LIG X 999      44.738 130.814  14.288  1.00  0.00     0.001 A 
HETATM   17  C12 LIG X 999      45.966 130.239  14.624  1.00  0.00     0.001 A 
HETATM   18  C13 LIG X 999      46.386 130.204  15.957  1.00  0.00     0.012 A 
HETATM   19  C15 LIG X 999      45.985 130.719  18.306  1.00  0.00     0.022 A 
ENDBRANCH   7  10
ENDBRANCH   4   5
ENDBRANCH   3   4
TORSDOF 4
ENDMDL
MODEL 7
REMARK VINA RESULT:      -6.0      2.600      4.467
REMARK  4 active torsions:
REMARK  status: ('A' for Active; 'I' for Inactive)
REMARK    1  A    between atoms: C3_3  and  O1_4 
REMARK    2  A    between atoms: O1_4  and  C4_5 
REMARK    3  A    between atoms: C4_5  and  O2_6 
REMARK    4  A    between atoms: C5_8  and  C6_9 
ROOT
HETATM    1  C1  LIG X 999      48.375 133.994  22.065  1.00  0.00     0.014 C 
HETATM    2  C2  LIG X 999      47.363 133.525  21.608  1.00  0.00    -0.091 C 
HETATM    3  C3  LIG X 999      46.135 132.952  21.056  1.00  0.00     0.266 C 
ENDROOT
BRANCH   3   4
HETATM    4  O1  LIG X 999      46.475 131.870  20.220  1.00  0.00    -0.319 OA
BRANCH   4   5
HETATM    5  C4  LIG X 999      45.512 130.852  20.374  1.00  0.00     0.314 A 
HETATM    6  O3  LIG X 999      44.261 131.293  19.903  1.00  0.00    -0.312 OA
HETATM    7  C5  LIG X 999      44.858 130.230  19.192  1.00  0.00     0.254 A 
BRANCH   5   8
HETATM    8  O2  LIG X 999      45.373 130.267  21.638  1.00  0.00    -0.341 OA
HETATM    9  H4  LIG X 999      45.406 131.020  22.281  1.00  0.00     0.215 HD
ENDBRANCH   5   8
BRANCH   7  10
HETATM   10  C6  LIG X 999      45.374 130.657  17.846  1.00  0.00    -0.021 A 
HETATM   11  C7  LIG X 999      45.099 131.937  17.338  1.00  0.00     0.011 A 
HETATM   12  C8  LIG X 999      45.579 132.318  16.082  1.00  0.00     0.013 A 
HETATM   13  C9  LIG X 999      46.330 131.420  15.312  1.00  0.00    -0.026 A 
HETATM   14  C10 LIG X 999      46.822 131.793  14.051  1.00  0.00     0.012 A 
HETATM   15  C14 LIG X 999      46.592 130.119  15.808  1.00  0.00    -0.025 A 
HETATM   16  C11 LIG X 999      47.567 130.886  13.291  1.00  0.00     0.001 A 
HETATM   17  C12 LIG X 999      47.824 129.603  13.781  1.00  0.00     0.001 A 
HETATM   18  C13 LIG X 999      47.339 129.217  15.034  1.00  0.00     0.012 A 
HETATM   19  C15 LIG X 999      46.101 129.745  17.068  1.00  0.00     0.022 A 
ENDBRANCH   7  10
ENDBRANCH   4   5
ENDBRANCH   3   4
TORSDOF 4
ENDMDL
MODEL 8
REMARK VINA RESULT:      -5.4      1.322      2.486
REMARK  4 active torsions:
REMARK  status: ('A' for Active; 'I' for Inactive)
REMARK    1  A    between atoms: C3_3  and  O1_4 
REMARK    2  A    between atoms: O1_4  and  C4_5 
REMARK    3  A    between atoms: C4_5  and  O2_6 
REMARK    4  A    between atoms: C5_8  and  C6_9 
ROOT
HETATM    1  C1  LIG X 999      43.514 127.989  24.089  1.00  0.00     0.014 C 
HETATM    2  C2  LIG X 999      44.190 128.384  23.173  1.00  0.00    -0.091 C 
HETATM    3  C3  LIG X 999      45.011 128.868  22.064  1.00  0.00     0.266 C 
ENDROOT
BRANCH   3   4
HETATM    4  O1  LIG X 999      44.277 129.829  21.340  1.00  0.00    -0.319 OA
BRANCH   4   5
HETATM    5  C4  LIG X 999      44.700 131.116  21.728  1.00  0.00     0.314 A 
HETATM    6  O3  LIG X 999      46.022 131.341  21.299  1.00  0.00    -0.312 OA
HETATM    7  C5  LIG X 999      45.028 132.153  20.714  1.00  0.00     0.254 A 
BRANCH   5   8
HETATM    8  O2  LIG X 999      44.563 131.474  23.074  1.00  0.00    -0.341 OA
HETATM    9  H4  LIG X 999      45.392 131.968  23.300  1.00  0.00     0.215 HD
ENDBRANCH   5   8
BRANCH   7  10
HETATM   10  C6  LIG X 999      44.757 131.789  19.280  1.00  0.00    -0.021 A 
HETATM   11  C7  LIG X 999      43.507 132.043  18.693  1.00  0.00     0.011 A 
HETATM   12  C8  LIG X 999      43.267 131.693  17.362  1.00  0.00     0.013 A 
HETATM   13  C9  LIG X 999      44.270 131.072  16.604  1.00  0.00    -0.026 A 
HETATM   14  C10 LIG X 999      44.041 130.720  15.264  1.00  0.00     0.012 A 
HETATM   15  C14 LIG X 999      45.524 130.792  17.197  1.00  0.00    -0.025 A 
HETATM   16  C11 LIG X 999      45.048 130.098  14.520  1.00  0.00     0.001 A 
HETATM   17  C12 LIG X 999      46.286 129.821  15.106  1.00  0.00     0.001 A 
HETATM   18  C13 LIG X 999      46.527 130.165  16.439  1.00  0.00     0.012 A 
HETATM   19  C15 LIG X 999      45.755 131.143  18.535  1.00  0.00     0.022 A 
ENDBRANCH   7  10
ENDBRANCH   4   5
ENDBRANCH   3   4
TORSDOF 4
ENDMDL
MODEL 9
REMARK VINA RESULT:      -5.3      2.490      6.064
REMARK  4 active torsions:
REMARK  status: ('A' for Active; 'I' for Inactive)
REMARK    1  A    between atoms: C3_3  and  O1_4 
REMARK    2  A    between atoms: O1_4  and  C4_5 
REMARK    3  A    between atoms: C4_5  and  O2_6 
REMARK    4  A    between atoms: C5_8  and  C6_9 
ROOT
HETATM    1  C1  LIG X 999      42.388 132.166  19.483  1.00  0.00     0.014 C 
HETATM    2  C2  LIG X 999      43.204 131.808  20.295  1.00  0.00    -0.091 C 
HETATM    3  C3  LIG X 999      44.195 131.370  21.277  1.00  0.00     0.266 C 
ENDROOT
BRANCH   3   4
HETATM    4  O1  LIG X 999      43.605 130.408  22.120  1.00  0.00    -0.319 OA
BRANCH   4   5
HETATM    5  C4  LIG X 999      44.105 130.575  23.427  1.00  0.00     0.314 A 
HETATM    6  O3  LIG X 999      43.126 130.210  24.371  1.00  0.00    -0.312 OA
HETATM    7  C5  LIG X 999      44.287 129.409  24.333  1.00  0.00     0.254 A 
BRANCH   5   8
HETATM    8  O2  LIG X 999      44.660 131.815  23.764  1.00  0.00    -0.341 OA
HETATM    9  H4  LIG X 999      44.192 132.096  24.590  1.00  0.00     0.215 HD
ENDBRANCH   5   8
BRANCH   7  10
HETATM   10  C6  LIG X 999      44.032 128.055  23.732  1.00  0.00    -0.021 A 
HETATM   11  C7  LIG X 999      45.037 127.379  23.020  1.00  0.00     0.011 A 
HETATM   12  C8  LIG X 999      44.785 126.124  22.460  1.00  0.00     0.013 A 
HETATM   13  C9  LIG X 999      43.520 125.533  22.593  1.00  0.00    -0.026 A 
HETATM   14  C10 LIG X 999      43.257 124.270  22.039  1.00  0.00     0.012 A 
HETATM   15  C14 LIG X 999      42.496 126.220  23.288  1.00  0.00    -0.025 A 
HETATM   16  C11 LIG X 999      41.991 123.695  22.174  1.00  0.00     0.001 A 
HETATM   17  C12 LIG X 999      40.980 124.373  22.860  1.00  0.00     0.001 A 
HETATM   18  C13 LIG X 999      41.228 125.631  23.416  1.00  0.00     0.012 A 
HETATM   19  C15 LIG X 999      42.757 127.481  23.843  1.00  0.00     0.022 A 
ENDBRANCH   7  10
ENDBRANCH   4   5
ENDBRANCH   3   4
TORSDOF 4
ENDMDL
