REMARK VINA RESULT:      -6.3      3.241      6.003
REMARK  3 active torsions:
REMARK  status: ('A' for Active; 'I' for Inactive)
REMARK       I    between atoms: N1_2  and  C3_4 
REMARK    1  A    between atoms: C3_4  and  O2_6 
REMARK    2  A    between atoms: O2_6  and  C4_7 
REMARK    3  A    between atoms: C7_10  and  N2_11 
ROOT
HETATM    1  C4  LIG X 999      43.926 131.486  21.187  1.00  0.00     0.092 A 
HETATM    2  C5  LIG X 999      42.680 132.081  21.430  1.00  0.00     0.040 A 
HETATM    3  C6  LIG X 999      41.894 132.538  20.377  1.00  0.00     0.033 A 
HETATM    4  C7  LIG X 999      42.318 132.408  19.048  1.00  0.00     0.037 A 
HETATM    5  C8  LIG X 999      43.556 131.767  18.772  1.00  0.00     0.003 A 
HETATM    6  C9  LIG X 999      44.011 131.546  17.453  1.00  0.00     0.014 A 
HETATM    7  C10 LIG X 999      45.235 130.918  17.216  1.00  0.00     0.001 A 
HETATM    8  C11 LIG X 999      46.024 130.491  18.280  1.00  0.00     0.001 A 
HETATM    9  C12 LIG X 999      45.593 130.680  19.592  1.00  0.00     0.015 A 
HETATM   10  C13 LIG X 999      44.360 131.309  19.857  1.00  0.00     0.010 A 
ENDROOT
BRANCH   1  11
HETATM   11  O2  LIG X 999      44.727 131.019  22.243  1.00  0.00    -0.261 OA
BRANCH  11  12
HETATM   12  C3  LIG X 999      44.264 130.329  23.372  1.00  0.00     0.367 C 
HETATM   13  N1  LIG X 999      44.409 128.900  23.441  1.00  0.00    -0.336 N 
HETATM   14  C1  LIG X 999      43.944 128.174  24.625  1.00  0.00     0.154 C 
HETATM   15  C2  LIG X 999      45.019 128.188  22.314  1.00  0.00     0.154 C 
HETATM   16  O1  LIG X 999      43.768 130.958  24.347  1.00  0.00    -0.238 OA
ENDBRANCH  11  12
ENDBRANCH   1  11
BRANCH   4  17
HETATM   17  N2  LIG X 999      41.474 132.942  18.015  1.00  0.00    -0.398 N 
HETATM   18  H9  LIG X 999      41.425 133.973  17.858  1.00  0.00     0.156 HD
HETATM   19  H10 LIG X 999      40.973 132.347  17.322  1.00  0.00     0.156 HD
ENDBRANCH   4  17
TORSDOF 3
