REMARK VINA RESULT:      -6.7      2.569      7.933
REMARK  7 active torsions:
REMARK  status: ('A' for Active; 'I' for Inactive)
REMARK    1  A    between atoms: O1_2  and  C1_3 
REMARK    2  A    between atoms: C1_3  and  C14_20 
REMARK    3  A    between atoms: N1_4  and  C2_5 
REMARK    4  A    between atoms: C2_5  and  O2_6 
REMARK    5  A    between atoms: O2_6  and  C3_7 
REMARK    6  A    between atoms: C3_7  and  O4_9 
REMARK    7  A    between atoms: O4_9  and  C4_10 
ROOT
HETATM    1  C3  LIG X 999      43.790 131.221  23.300  1.00  0.00     0.413 C 
HETATM    2  O3  LIG X 999      42.758 131.851  23.662  1.00  0.00    -0.229 OA
ENDROOT
BRANCH   1   3
HETATM    3  O2  LIG X 999      44.525 131.647  22.192  1.00  0.00    -0.276 OA
BRANCH   3   4
HETATM    4  C2  LIG X 999      44.293 131.149  20.878  1.00  0.00     0.332 C 
BRANCH   4   5
HETATM    5  N1  LIG X 999      43.125 131.806  20.298  1.00  0.00    -0.238 NA
HETATM    6  C1  LIG X 999      42.888 132.041  19.035  1.00  0.00     0.190 C 
BRANCH   6   7
HETATM    7  O1  LIG X 999      41.709 132.698  18.694  1.00  0.00    -0.343 OA
HETATM    8  H1  LIG X 999      41.697 133.694  18.509  1.00  0.00     0.219 HD
ENDBRANCH   6   7
BRANCH   6   9
HETATM    9  C14 LIG X 999      43.804 131.651  17.934  1.00  0.00     0.130 A 
HETATM   10  N2  LIG X 999      43.493 131.624  16.622  1.00  0.00    -0.169 NA
HETATM   11  N3  LIG X 999      44.565 131.216  15.966  1.00  0.00    -0.285 N 
HETATM   12  C15 LIG X 999      44.638 131.110  14.515  1.00  0.00     0.179 C 
HETATM   13  C16 LIG X 999      45.577 131.002  16.826  1.00  0.00     0.114 A 
HETATM   14  C17 LIG X 999      45.123 131.265  18.101  1.00  0.00     0.056 A 
ENDBRANCH   6   9
ENDBRANCH   4   5
ENDBRANCH   3   4
ENDBRANCH   1   3
BRANCH   1  15
HETATM   15  O4  LIG X 999      44.240 130.110  24.020  1.00  0.00    -0.256 OA
BRANCH  15  16
HETATM   16  C4  LIG X 999      43.972 128.773  23.689  1.00  0.00     0.082 A 
HETATM   17  C5  LIG X 999      44.982 128.025  23.072  1.00  0.00     0.038 A 
HETATM   18  C6  LIG X 999      44.762 126.694  22.708  1.00  0.00     0.015 A 
HETATM   19  C7  LIG X 999      43.518 126.094  22.946  1.00  0.00    -0.026 A 
HETATM   20  C8  LIG X 999      43.286 124.758  22.583  1.00  0.00     0.012 A 
HETATM   21  C12 LIG X 999      42.483 126.846  23.552  1.00  0.00    -0.023 A 
HETATM   22  C9  LIG X 999      42.036 124.176  22.816  1.00  0.00     0.001 A 
HETATM   23  C10 LIG X 999      41.014 124.919  23.411  1.00  0.00     0.001 A 
HETATM   24  C11 LIG X 999      41.233 126.250  23.778  1.00  0.00     0.012 A 
HETATM   25  C13 LIG X 999      42.715 128.182  23.915  1.00  0.00     0.049 A 
ENDBRANCH  15  16
ENDBRANCH   1  15
TORSDOF 7
