REMARK VINA RESULT:      -8.1      1.047      2.533
REMARK  3 active torsions:
REMARK  status: ('A' for Active; 'I' for Inactive)
REMARK    1  A    between atoms: C3_3  and  O1_4 
REMARK    2  A    between atoms: O1_4  and  C4_5 
REMARK    3  A    between atoms: C5_7  and  C6_8 
ROOT
HETATM    1  C1  LIG X 999      47.106 130.949  13.213  1.00  0.00     0.014 C 
HETATM    2  C2  LIG X 999      46.054 131.002  13.800  1.00  0.00    -0.091 C 
HETATM    3  C3  LIG X 999      44.778 131.064  14.512  1.00  0.00     0.270 C 
ENDROOT
BRANCH   3   4
HETATM    4  O1  LIG X 999      44.839 130.219  15.654  1.00  0.00    -0.317 OA
BRANCH   4   5
HETATM    5  C4  LIG X 999      45.908 130.250  16.553  1.00  0.00     0.217 C 
HETATM    6  O2  LIG X 999      47.163 129.792  16.162  1.00  0.00    -0.164 OA
HETATM    7  C5  LIG X 999      45.737 130.697  17.801  1.00  0.00     0.079 C 
BRANCH   7   8
HETATM    8  C6  LIG X 999      44.445 131.217  18.310  1.00  0.00    -0.020 A 
HETATM    9  C7  LIG X 999      43.479 131.672  17.393  1.00  0.00     0.012 A 
HETATM   10  C8  LIG X 999      42.271 132.211  17.834  1.00  0.00     0.002 A 
HETATM   11  C9  LIG X 999      42.005 132.319  19.197  1.00  0.00     0.012 A 
HETATM   12  C10 LIG X 999      42.950 131.885  20.137  1.00  0.00    -0.025 A 
HETATM   13  C11 LIG X 999      42.675 131.999  21.509  1.00  0.00     0.012 A 
HETATM   14  C15 LIG X 999      44.183 131.328  19.702  1.00  0.00    -0.015 A 
HETATM   15  C12 LIG X 999      43.605 131.560  22.452  1.00  0.00     0.001 A 
HETATM   16  C13 LIG X 999      44.813 131.001  22.037  1.00  0.00     0.001 A 
HETATM   17  C14 LIG X 999      45.104 130.881  20.675  1.00  0.00     0.013 A 
ENDBRANCH   7   8
ENDBRANCH   4   5
ENDBRANCH   3   4
TORSDOF 3
