REMARK VINA RESULT:       1.4      2.966      5.609
REMARK  4 active torsions:
REMARK  status: ('A' for Active; 'I' for Inactive)
REMARK    1  A    between atoms: C5_5  and  O1_6 
REMARK    2  A    between atoms: O1_6  and  C6_7 
REMARK       I    between atoms: C6_7  and  N1_9 
REMARK    3  A    between atoms: C9_13  and  N2_14 
REMARK    4  A    between atoms: C11_19  and  N5_20 
ROOT
HETATM    1  N2  LIG X 999      44.572 129.704  23.921  1.00  0.00    -0.068 NA
HETATM    2  N3  LIG X 999      43.833 128.745  23.698  1.00  0.00    -0.162 NA
HETATM    3  N4  LIG X 999      43.094 127.787  23.480  1.00  0.00     0.068 N 
ENDROOT
BRANCH   1   4
HETATM    4  C9  LIG X 999      44.840 130.724  22.942  1.00  0.00     0.151 C 
HETATM    5  C5  LIG X 999      44.921 132.055  23.387  1.00  0.00     0.114 C 
HETATM    6  C4  LIG X 999      44.058 132.546  24.391  1.00  0.00     0.040 C 
HETATM    7  C3  LIG X 999      42.731 132.116  24.603  1.00  0.00     0.003 C 
HETATM    8  C2  LIG X 999      41.930 131.418  23.677  1.00  0.00     0.000 C 
HETATM    9  C1  LIG X 999      42.156 131.384  22.296  1.00  0.00     0.000 C 
HETATM   10  C13 LIG X 999      42.731 132.455  21.610  1.00  0.00     0.002 C 
HETATM   11  C12 LIG X 999      43.692 132.308  20.604  1.00  0.00     0.036 C 
HETATM   12  C11 LIG X 999      44.633 131.248  20.495  1.00  0.00     0.117 C 
HETATM   13  C10 LIG X 999      45.010 130.400  21.571  1.00  0.00     0.100 C 
HETATM   14 CL1  LIG X 999      45.821 128.884  21.169  1.00  0.00    -0.079 Cl
BRANCH   5  15
HETATM   15  O1  LIG X 999      45.902 132.874  22.806  1.00  0.00    -0.254 OA
BRANCH  15  16
HETATM   16  C6  LIG X 999      46.698 133.815  23.481  1.00  0.00     0.461 C 
HETATM   17  O2  LIG X 999      46.371 134.236  24.625  1.00  0.00    -0.230 OA
HETATM   18  N1  LIG X 999      47.851 134.373  22.822  1.00  0.00     0.009 N 
HETATM   19  H5  LIG X 999      48.366 134.996  23.488  1.00  0.00     0.292 HD
HETATM   20  C7  LIG X 999      48.761 133.299  22.398  1.00  0.00     0.282 C 
HETATM   21  C8  LIG X 999      47.420 135.179  21.670  1.00  0.00     0.282 C 
ENDBRANCH  15  16
ENDBRANCH   5  15
BRANCH  12  22
HETATM   22  N5  LIG X 999      45.296 131.036  19.237  1.00  0.00    -0.071 NA
HETATM   23  N6  LIG X 999      44.804 131.369  18.158  1.00  0.00    -0.162 NA
HETATM   24  N7  LIG X 999      44.313 131.701  17.080  1.00  0.00     0.068 N 
ENDBRANCH  12  22
ENDBRANCH   1   4
TORSDOF 4
