REMARK VINA RESULT:      -8.2      0.000      0.000
REMARK  2 active torsions:
REMARK  status: ('A' for Active; 'I' for Inactive)
REMARK    1  A    between atoms: C2_2  and  N1_3 
REMARK    2  A    between atoms: C3_6  and  O1_7 
ROOT
HETATM    1  N1  LIG X 999      46.714 129.904  14.945  1.00  0.00    -0.070 NA
HETATM    2  N2  LIG X 999      47.226 130.654  14.113  1.00  0.00    -0.162 NA
HETATM    3  N3  LIG X 999      47.739 131.402  13.282  1.00  0.00     0.068 N 
ENDROOT
BRANCH   1   4
HETATM    4  C2  LIG X 999      45.862 130.387  15.995  1.00  0.00     0.127 A 
HETATM    5  C1  LIG X 999      46.166 130.152  17.349  1.00  0.00     0.049 A 
HETATM    6  C11 LIG X 999      45.324 130.630  18.361  1.00  0.00    -0.023 A 
HETATM    7  C6  LIG X 999      44.153 131.358  18.014  1.00  0.00    -0.022 A 
HETATM    8  C10 LIG X 999      45.627 130.396  19.717  1.00  0.00     0.021 A 
HETATM    9  C5  LIG X 999      43.855 131.590  16.665  1.00  0.00     0.051 A 
HETATM   10  C7  LIG X 999      43.304 131.843  19.029  1.00  0.00     0.021 A 
HETATM   11  C3  LIG X 999      44.706 131.107  15.651  1.00  0.00     0.100 A 
HETATM   12  C8  LIG X 999      43.636 131.585  20.359  1.00  0.00    -0.024 A 
HETATM   13  C9  LIG X 999      44.758 130.887  20.691  1.00  0.00    -0.024 A 
HETATM   14  C15 LIG X 999      42.911 132.012  21.575  1.00  0.00     0.276 C 
HETATM   15  C12 LIG X 999      44.887 130.782  22.160  1.00  0.00     0.276 C 
HETATM   16  N4  LIG X 999      43.624 131.360  22.720  1.00  0.00    -0.067 N 
HETATM   17  C13 LIG X 999      42.783 130.281  23.292  1.00  0.00     0.272 C 
HETATM   18  C14 LIG X 999      43.925 132.348  23.779  1.00  0.00     0.272 C 
BRANCH  11  19
HETATM   19  O1  LIG X 999      44.435 131.322  14.290  1.00  0.00    -0.353 OA
HETATM   20  C4  LIG X 999      43.152 131.646  13.762  1.00  0.00     0.210 C 
ENDBRANCH  11  19
ENDBRANCH   1   4
TORSDOF 2
