REMARK VINA RESULT:      -7.7      1.846      2.621
REMARK  3 active torsions:
REMARK  status: ('A' for Active; 'I' for Inactive)
REMARK    1  A    between atoms: O1_2  and  C1_3 
REMARK    2  A    between atoms: C1_3  and  C3_8 
REMARK    3  A    between atoms: C2_4  and  N1_5 
ROOT
HETATM    1  C3  LIG X 999      44.765 131.241  18.856  1.00  0.00    -0.001 A 
HETATM    2  C4  LIG X 999      43.636 131.768  18.201  1.00  0.00     0.015 A 
HETATM    3  C5  LIG X 999      43.560 131.771  16.807  1.00  0.00     0.013 A 
HETATM    4  C6  LIG X 999      44.608 131.244  16.040  1.00  0.00    -0.026 A 
HETATM    5  C7  LIG X 999      44.541 131.243  14.638  1.00  0.00     0.012 A 
HETATM    6  C8  LIG X 999      45.593 130.716  13.886  1.00  0.00     0.001 A 
HETATM    7  C9  LIG X 999      46.719 130.187  14.524  1.00  0.00     0.001 A 
HETATM    8  C10 LIG X 999      46.798 130.182  15.920  1.00  0.00     0.012 A 
HETATM    9  C11 LIG X 999      45.747 130.708  16.688  1.00  0.00    -0.025 A 
HETATM   10  C12 LIG X 999      45.815 130.708  18.089  1.00  0.00     0.026 A 
ENDROOT
BRANCH   1  11
HETATM   11  C1  LIG X 999      44.851 131.225  20.339  1.00  0.00     0.090 C 
HETATM   12  C2  LIG X 999      43.756 131.396  21.095  1.00  0.00     0.118 C 
BRANCH  11  13
HETATM   13  O1  LIG X 999      46.088 131.043  20.959  1.00  0.00    -0.358 OA
HETATM   14  H1  LIG X 999      46.957 131.074  20.440  1.00  0.00     0.217 HD
ENDBRANCH  11  13
BRANCH  12  15
HETATM   15  N1  LIG X 999      43.819 131.378  22.523  1.00  0.00    -0.406 N 
HETATM   16  H3  LIG X 999      44.466 130.712  23.000  1.00  0.00     0.155 HD
HETATM   17  H4  LIG X 999      43.240 132.016  23.112  1.00  0.00     0.155 HD
ENDBRANCH  12  15
ENDBRANCH   1  11
TORSDOF 3
