REMARK VINA RESULT:      -8.0      3.282      5.317
REMARK  2 active torsions:
REMARK  status: ('A' for Active; 'I' for Inactive)
REMARK    1  A    between atoms: C1_1  and  N1_14 
REMARK    2  A    between atoms: C2_2  and  C3_4 
ROOT
HETATM    1  C3  LIG X 999      45.543 131.140  17.492  1.00  0.00     0.003 A 
HETATM    2  C4  LIG X 999      45.323 132.305  16.731  1.00  0.00     0.015 A 
HETATM    3  C5  LIG X 999      45.811 132.407  15.425  1.00  0.00     0.013 A 
HETATM    4  C6  LIG X 999      46.534 131.351  14.857  1.00  0.00    -0.026 A 
HETATM    5  C7  LIG X 999      47.028 131.445  13.546  1.00  0.00     0.012 A 
HETATM    6  C8  LIG X 999      47.751 130.384  12.992  1.00  0.00     0.001 A 
HETATM    7  C9  LIG X 999      47.989 129.229  13.740  1.00  0.00     0.001 A 
HETATM    8  C10 LIG X 999      47.504 129.123  15.046  1.00  0.00     0.012 A 
HETATM    9  C11 LIG X 999      46.775 130.181  15.615  1.00  0.00    -0.025 A 
HETATM   10  C12 LIG X 999      46.283 130.087  16.926  1.00  0.00     0.026 A 
ENDROOT
BRANCH   1  11
HETATM   11  C2  LIG X 999      45.046 131.012  18.887  1.00  0.00     0.132 C 
HETATM   12  C1  LIG X 999      45.806 130.506  19.869  1.00  0.00     0.121 C 
HETATM   13  O1  LIG X 999      43.760 131.457  19.177  1.00  0.00    -0.190 OA
BRANCH  12  14
HETATM   14  N1  LIG X 999      45.317 130.383  21.208  1.00  0.00    -0.406 N 
HETATM   15  H9  LIG X 999      45.332 131.182  21.879  1.00  0.00     0.155 HD
HETATM   16  H10 LIG X 999      44.927 129.469  21.529  1.00  0.00     0.155 HD
ENDBRANCH  12  14
ENDBRANCH   1  11
TORSDOF 2
