MODEL 1
REMARK VINA RESULT:      -8.0      0.000      0.000
REMARK  1 active torsions:
REMARK  status: ('A' for Active; 'I' for Inactive)
REMARK    1  A    between atoms: C11_13  and  N2_14 
ROOT
HETATM    1  N2  LIG X 999      47.539 129.516  14.375  1.00  0.00    -0.053 NA
HETATM    2  N3  LIG X 999      47.786 130.230  13.403  1.00  0.00    -0.160 NA
HETATM    3  N4  LIG X 999      48.035 130.944  12.432  1.00  0.00     0.068 N 
ENDROOT
BRANCH   1   4
HETATM    4  C11 LIG X 999      46.707 129.979  15.440  1.00  0.00     0.175 A 
HETATM    5  C10 LIG X 999      45.495 130.634  15.278  1.00  0.00     0.026 A 
HETATM    6  C5  LIG X 999      45.057 130.884  16.535  1.00  0.00     0.017 A 
HETATM    7  C9  LIG X 999      44.742 131.029  14.173  1.00  0.00     0.016 A 
HETATM    8  C4  LIG X 999      45.960 130.404  17.425  1.00  0.00     0.046 A 
HETATM    9  C6  LIG X 999      43.878 131.526  16.845  1.00  0.00     0.005 A 
HETATM   10  C3  LIG X 999      45.733 130.543  18.872  1.00  0.00     0.033 A 
HETATM   11  N5  LIG X 999      46.996 129.837  16.767  1.00  0.00    -0.337 N 
HETATM   12  C2  LIG X 999      44.603 131.160  19.288  1.00  0.00     0.034 A 
HETATM   13  C1  LIG X 999      43.600 131.693  18.305  1.00  0.00     0.059 A 
HETATM   14  N1  LIG X 999      42.529 132.277  18.744  1.00  0.00    -0.300 NA
HETATM   15  H1  LIG X 999      41.793 132.669  18.119  1.00  0.00     0.187 HD
HETATM   16  H7  LIG X 999      47.837 129.385  17.190  1.00  0.00     0.167 HD
HETATM   17  C7  LIG X 999      43.081 131.945  15.755  1.00  0.00     0.015 A 
HETATM   18  C8  LIG X 999      43.517 131.695  14.424  1.00  0.00     0.002 A 
ENDBRANCH   1   4
TORSDOF 1
ENDMDL
MODEL 2
REMARK VINA RESULT:      -7.5      1.899      3.744
REMARK  1 active torsions:
REMARK  status: ('A' for Active; 'I' for Inactive)
REMARK    1  A    between atoms: C11_13  and  N2_14 
ROOT
HETATM    1  N2  LIG X 999      46.211 130.487  16.165  1.00  0.00    -0.053 NA
HETATM    2  N3  LIG X 999      46.154 130.733  14.959  1.00  0.00    -0.160 NA
HETATM    3  N4  LIG X 999      46.099 130.980  13.755  1.00  0.00     0.068 N 
ENDROOT
BRANCH   1   4
HETATM    4  C11 LIG X 999      45.202 130.951  17.062  1.00  0.00     0.175 A 
HETATM    5  C10 LIG X 999      45.300 130.942  18.446  1.00  0.00     0.026 A 
HETATM    6  C5  LIG X 999      44.131 131.466  18.887  1.00  0.00     0.017 A 
HETATM    7  C9  LIG X 999      46.281 130.535  19.350  1.00  0.00     0.016 A 
HETATM    8  C4  LIG X 999      43.354 131.780  17.822  1.00  0.00     0.046 A 
HETATM    9  C6  LIG X 999      43.799 131.644  20.212  1.00  0.00     0.005 A 
HETATM   10  C3  LIG X 999      42.019 132.368  18.016  1.00  0.00     0.033 A 
HETATM   11  N5  LIG X 999      43.999 131.468  16.675  1.00  0.00    -0.337 N 
HETATM   12  C2  LIG X 999      41.592 132.586  19.281  1.00  0.00     0.034 A 
HETATM   13  C1  LIG X 999      42.451 132.240  20.464  1.00  0.00     0.059 A 
HETATM   14  N1  LIG X 999      42.005 132.466  21.660  1.00  0.00    -0.300 NA
HETATM   15  H1  LIG X 999      42.547 132.249  22.524  1.00  0.00     0.187 HD
HETATM   16  H7  LIG X 999      43.646 131.599  15.702  1.00  0.00     0.167 HD
HETATM   17  C7  LIG X 999      44.764 131.246  21.165  1.00  0.00     0.015 A 
HETATM   18  C8  LIG X 999      46.001 130.693  20.729  1.00  0.00     0.002 A 
ENDBRANCH   1   4
TORSDOF 1
ENDMDL
MODEL 3
REMARK VINA RESULT:      -7.3      2.351      4.277
REMARK  1 active torsions:
REMARK  status: ('A' for Active; 'I' for Inactive)
REMARK    1  A    between atoms: C11_13  and  N2_14 
ROOT
HETATM    1  N2  LIG X 999      45.104 131.249  16.068  1.00  0.00    -0.053 NA
HETATM    2  N3  LIG X 999      45.245 130.098  15.652  1.00  0.00    -0.160 NA
HETATM    3  N4  LIG X 999      45.385 128.950  15.236  1.00  0.00     0.068 N 
ENDROOT
BRANCH   1   4
HETATM    4  C11 LIG X 999      44.383 131.517  17.272  1.00  0.00     0.175 A 
HETATM    5  C10 LIG X 999      44.815 131.193  18.549  1.00  0.00     0.026 A 
HETATM    6  C5  LIG X 999      43.832 131.626  19.375  1.00  0.00     0.017 A 
HETATM    7  C9  LIG X 999      45.953 130.573  19.065  1.00  0.00     0.016 A 
HETATM    8  C4  LIG X 999      42.845 132.188  18.636  1.00  0.00     0.046 A 
HETATM    9  C6  LIG X 999      43.848 131.506  20.748  1.00  0.00     0.005 A 
HETATM   10  C3  LIG X 999      41.647 132.744  19.285  1.00  0.00     0.033 A 
HETATM   11  N5  LIG X 999      43.165 132.132  17.324  1.00  0.00    -0.337 N 
HETATM   12  C2  LIG X 999      41.559 132.678  20.633  1.00  0.00     0.034 A 
HETATM   13  C1  LIG X 999      42.651 132.056  21.456  1.00  0.00     0.059 A 
HETATM   14  N1  LIG X 999      42.529 132.014  22.746  1.00  0.00    -0.300 NA
HETATM   15  H1  LIG X 999      43.247 131.597  23.376  1.00  0.00     0.187 HD
HETATM   16  H7  LIG X 999      42.596 132.487  16.523  1.00  0.00     0.167 HD
HETATM   17  C7  LIG X 999      44.983 130.884  21.315  1.00  0.00     0.015 A 
HETATM   18  C8  LIG X 999      46.030 130.419  20.470  1.00  0.00     0.002 A 
ENDBRANCH   1   4
TORSDOF 1
ENDMDL
MODEL 4
REMARK VINA RESULT:      -7.1      2.499      3.413
REMARK  1 active torsions:
REMARK  status: ('A' for Active; 'I' for Inactive)
REMARK    1  A    between atoms: C11_13  and  N2_14 
ROOT
HETATM    1  N2  LIG X 999      46.117 130.675  16.757  1.00  0.00    -0.053 NA
HETATM    2  N3  LIG X 999      45.718 129.796  15.991  1.00  0.00    -0.160 NA
HETATM    3  N4  LIG X 999      45.319 128.920  15.226  1.00  0.00     0.068 N 
ENDROOT
BRANCH   1   4
HETATM    4  C11 LIG X 999      45.513 130.872  18.036  1.00  0.00     0.175 A 
HETATM    5  C10 LIG X 999      44.247 131.400  18.246  1.00  0.00     0.026 A 
HETATM    6  C5  LIG X 999      44.086 131.405  19.591  1.00  0.00     0.017 A 
HETATM    7  C9  LIG X 999      43.235 131.868  17.409  1.00  0.00     0.016 A 
HETATM    8  C4  LIG X 999      45.202 130.904  20.176  1.00  0.00     0.046 A 
HETATM    9  C6  LIG X 999      42.960 131.852  20.248  1.00  0.00     0.005 A 
HETATM   10  C3  LIG X 999      45.298 130.796  21.640  1.00  0.00     0.033 A 
HETATM   11  N5  LIG X 999      46.104 130.566  19.227  1.00  0.00    -0.337 N 
HETATM   12  C2  LIG X 999      44.245 131.209  22.384  1.00  0.00     0.034 A 
HETATM   13  C1  LIG X 999      43.006 131.764  21.740  1.00  0.00     0.059 A 
HETATM   14  N1  LIG X 999      42.020 132.147  22.488  1.00  0.00    -0.300 NA
HETATM   15  H1  LIG X 999      41.133 132.542  22.108  1.00  0.00     0.187 HD
HETATM   16  H7  LIG X 999      47.052 130.156  19.380  1.00  0.00     0.167 HD
HETATM   17  C7  LIG X 999      41.907 132.336  19.438  1.00  0.00     0.015 A 
HETATM   18  C8  LIG X 999      42.050 132.342  18.023  1.00  0.00     0.002 A 
ENDBRANCH   1   4
TORSDOF 1
ENDMDL
MODEL 5
REMARK VINA RESULT:      -7.1      1.689      6.226
REMARK  1 active torsions:
REMARK  status: ('A' for Active; 'I' for Inactive)
REMARK    1  A    between atoms: C11_13  and  N2_14 
ROOT
HETATM    1  N2  LIG X 999      41.895 132.878  20.489  1.00  0.00    -0.053 NA
HETATM    2  N3  LIG X 999      42.006 132.516  21.661  1.00  0.00    -0.160 NA
HETATM    3  N4  LIG X 999      42.118 132.156  22.832  1.00  0.00     0.068 N 
ENDROOT
BRANCH   1   4
HETATM    4  C11 LIG X 999      42.727 132.332  19.465  1.00  0.00     0.175 A 
HETATM    5  C10 LIG X 999      43.943 131.700  19.678  1.00  0.00     0.026 A 
HETATM    6  C5  LIG X 999      44.378 131.346  18.444  1.00  0.00     0.017 A 
HETATM    7  C9  LIG X 999      44.701 131.402  20.810  1.00  0.00     0.016 A 
HETATM    8  C4  LIG X 999      43.470 131.745  17.520  1.00  0.00     0.046 A 
HETATM    9  C6  LIG X 999      45.560 130.687  18.186  1.00  0.00     0.005 A 
HETATM   10  C3  LIG X 999      43.694 131.487  16.089  1.00  0.00     0.033 A 
HETATM   11  N5  LIG X 999      42.433 132.361  18.132  1.00  0.00    -0.337 N 
HETATM   12  C2  LIG X 999      44.827 130.844  15.723  1.00  0.00     0.034 A 
HETATM   13  C1  LIG X 999      45.836 130.400  16.744  1.00  0.00     0.059 A 
HETATM   14  N1  LIG X 999      46.908 129.786  16.352  1.00  0.00    -0.300 NA
HETATM   15  H1  LIG X 999      47.648 129.452  17.006  1.00  0.00     0.187 HD
HETATM   16  H7  LIG X 999      41.589 132.770  17.675  1.00  0.00     0.167 HD
HETATM   17  C7  LIG X 999      46.362 130.364  19.305  1.00  0.00     0.015 A 
HETATM   18  C8  LIG X 999      45.928 130.724  20.611  1.00  0.00     0.002 A 
ENDBRANCH   1   4
TORSDOF 1
ENDMDL
MODEL 6
REMARK VINA RESULT:      -7.1      2.658      5.501
REMARK  1 active torsions:
REMARK  status: ('A' for Active; 'I' for Inactive)
REMARK    1  A    between atoms: C11_13  and  N2_14 
ROOT
HETATM    1  N2  LIG X 999      45.000 131.013  22.029  1.00  0.00    -0.053 NA
HETATM    2  N3  LIG X 999      44.258 130.279  22.683  1.00  0.00    -0.160 NA
HETATM    3  N4  LIG X 999      43.519 129.545  23.336  1.00  0.00     0.068 N 
ENDROOT
BRANCH   1   4
HETATM    4  C11 LIG X 999      44.963 131.020  20.601  1.00  0.00     0.175 A 
HETATM    5  C10 LIG X 999      43.912 131.500  19.833  1.00  0.00     0.026 A 
HETATM    6  C5  LIG X 999      44.299 131.313  18.548  1.00  0.00     0.017 A 
HETATM    7  C9  LIG X 999      42.676 132.075  20.125  1.00  0.00     0.016 A 
HETATM    8  C4  LIG X 999      45.529 130.743  18.532  1.00  0.00     0.046 A 
HETATM    9  C6  LIG X 999      43.549 131.651  17.443  1.00  0.00     0.005 A 
HETATM   10  C3  LIG X 999      46.191 130.426  17.257  1.00  0.00     0.033 A 
HETATM   11  N5  LIG X 999      45.962 130.551  19.798  1.00  0.00    -0.337 N 
HETATM   12  C2  LIG X 999      45.542 130.718  16.107  1.00  0.00     0.034 A 
HETATM   13  C1  LIG X 999      44.179 131.349  16.120  1.00  0.00     0.059 A 
HETATM   14  N1  LIG X 999      43.590 131.614  14.996  1.00  0.00    -0.300 NA
HETATM   15  H1  LIG X 999      42.646 132.051  14.933  1.00  0.00     0.187 HD
HETATM   16  H7  LIG X 999      46.872 130.132  20.093  1.00  0.00     0.167 HD
HETATM   17  C7  LIG X 999      42.287 132.238  17.691  1.00  0.00     0.015 A 
HETATM   18  C8  LIG X 999      41.856 132.446  19.031  1.00  0.00     0.002 A 
ENDBRANCH   1   4
TORSDOF 1
ENDMDL
MODEL 7
REMARK VINA RESULT:      -6.4      3.385      6.811
REMARK  1 active torsions:
REMARK  status: ('A' for Active; 'I' for Inactive)
REMARK    1  A    between atoms: C11_13  and  N2_14 
ROOT
HETATM    1  N2  LIG X 999      43.775 131.375  23.761  1.00  0.00    -0.053 NA
HETATM    2  N3  LIG X 999      44.135 130.279  24.193  1.00  0.00    -0.160 NA
HETATM    3  N4  LIG X 999      44.495 129.186  24.625  1.00  0.00     0.068 N 
ENDROOT
BRANCH   1   4
HETATM    4  C11 LIG X 999      43.495 131.567  22.374  1.00  0.00     0.175 A 
HETATM    5  C10 LIG X 999      44.343 131.218  21.334  1.00  0.00     0.026 A 
HETATM    6  C5  LIG X 999      43.684 131.575  20.205  1.00  0.00     0.017 A 
HETATM    7  C9  LIG X 999      45.607 130.632  21.262  1.00  0.00     0.016 A 
HETATM    8  C4  LIG X 999      42.488 132.118  20.540  1.00  0.00     0.046 A 
HETATM    9  C6  LIG X 999      44.167 131.407  18.925  1.00  0.00     0.005 A 
HETATM   10  C3  LIG X 999      41.564 132.596  19.500  1.00  0.00     0.033 A 
HETATM   11  N5  LIG X 999      42.348 132.124  21.885  1.00  0.00    -0.337 N 
HETATM   12  C2  LIG X 999      41.939 132.479  18.205  1.00  0.00     0.034 A 
HETATM   13  C1  LIG X 999      43.264 131.877  17.830  1.00  0.00     0.059 A 
HETATM   14  N1  LIG X 999      43.585 131.783  16.578  1.00  0.00    -0.300 NA
HETATM   15  H1  LIG X 999      44.487 131.377  16.247  1.00  0.00     0.187 HD
HETATM   16  H7  LIG X 999      41.532 132.480  22.429  1.00  0.00     0.167 HD
HETATM   17  C7  LIG X 999      45.445 130.816  18.804  1.00  0.00     0.015 A 
HETATM   18  C8  LIG X 999      46.159 130.432  19.973  1.00  0.00     0.002 A 
ENDBRANCH   1   4
TORSDOF 1
ENDMDL
MODEL 8
REMARK VINA RESULT:      -5.8      3.134      4.510
REMARK  1 active torsions:
REMARK  status: ('A' for Active; 'I' for Inactive)
REMARK    1  A    between atoms: C11_13  and  N2_14 
ROOT
HETATM    1  N2  LIG X 999      45.831 131.024  17.697  1.00  0.00    -0.053 NA
HETATM    2  N3  LIG X 999      45.659 130.150  16.847  1.00  0.00    -0.160 NA
HETATM    3  N4  LIG X 999      45.485 129.279  15.997  1.00  0.00     0.068 N 
ENDROOT
BRANCH   1   4
HETATM    4  C11 LIG X 999      45.276 130.902  19.008  1.00  0.00     0.175 A 
HETATM    5  C10 LIG X 999      44.125 131.537  19.448  1.00  0.00     0.026 A 
HETATM    6  C5  LIG X 999      43.972 131.140  20.734  1.00  0.00     0.017 A 
HETATM    7  C9  LIG X 999      43.207 132.408  18.861  1.00  0.00     0.016 A 
HETATM    8  C4  LIG X 999      44.985 130.302  21.065  1.00  0.00     0.046 A 
HETATM    9  C6  LIG X 999      42.945 131.536  21.564  1.00  0.00     0.005 A 
HETATM   10  C3  LIG X 999      45.066 129.720  22.414  1.00  0.00     0.033 A 
HETATM   11  N5  LIG X 999      45.810 130.139  20.006  1.00  0.00    -0.337 N 
HETATM   12  C2  LIG X 999      44.105 130.043  23.311  1.00  0.00     0.034 A 
HETATM   13  C1  LIG X 999      42.981 130.971  22.948  1.00  0.00     0.059 A 
HETATM   14  N1  LIG X 999      42.080 131.255  23.836  1.00  0.00    -0.300 NA
HETATM   15  H1  LIG X 999      41.275 131.891  23.652  1.00  0.00     0.187 HD
HETATM   16  H7  LIG X 999      46.671 129.551  19.967  1.00  0.00     0.167 HD
HETATM   17  C7  LIG X 999      41.990 132.420  21.011  1.00  0.00     0.015 A 
HETATM   18  C8  LIG X 999      42.127 132.852  19.662  1.00  0.00     0.002 A 
ENDBRANCH   1   4
TORSDOF 1
ENDMDL
MODEL 9
REMARK VINA RESULT:      -5.7      8.894     10.177
REMARK  1 active torsions:
REMARK  status: ('A' for Active; 'I' for Inactive)
REMARK    1  A    between atoms: C11_13  and  N2_14 
ROOT
HETATM    1  N2  LIG X 999      48.993 138.734  19.823  1.00  0.00    -0.053 NA
HETATM    2  N3  LIG X 999      49.062 138.461  18.624  1.00  0.00    -0.160 NA
HETATM    3  N4  LIG X 999      49.130 138.187  17.427  1.00  0.00     0.068 N 
ENDROOT
BRANCH   1   4
HETATM    4  C11 LIG X 999      49.813 138.066  20.783  1.00  0.00     0.175 A 
HETATM    5  C10 LIG X 999      49.524 136.840  21.363  1.00  0.00     0.026 A 
HETATM    6  C5  LIG X 999      50.560 136.592  22.199  1.00  0.00     0.017 A 
HETATM    7  C9  LIG X 999      48.475 135.929  21.244  1.00  0.00     0.016 A 
HETATM    8  C4  LIG X 999      51.442 137.619  22.134  1.00  0.00     0.046 A 
HETATM    9  C6  LIG X 999      50.684 135.468  22.987  1.00  0.00     0.005 A 
HETATM   10  C3  LIG X 999      52.668 137.608  22.948  1.00  0.00     0.033 A 
HETATM   11  N5  LIG X 999      50.998 138.549  21.259  1.00  0.00    -0.337 N 
HETATM   12  C2  LIG X 999      52.889 136.549  23.760  1.00  0.00     0.034 A 
HETATM   13  C1  LIG X 999      51.915 135.408  23.835  1.00  0.00     0.059 A 
HETATM   14  N1  LIG X 999      52.165 134.411  24.625  1.00  0.00    -0.300 NA
HETATM   15  H1  LIG X 999      51.532 133.588  24.726  1.00  0.00     0.187 HD
HETATM   16  H7  LIG X 999      51.468 139.446  21.004  1.00  0.00     0.167 HD
HETATM   17  C7  LIG X 999      49.643 134.516  22.899  1.00  0.00     0.015 A 
HETATM   18  C8  LIG X 999      48.542 134.752  22.029  1.00  0.00     0.002 A 
ENDBRANCH   1   4
TORSDOF 1
ENDMDL
