REMARK VINA RESULT:      -8.0      0.000      0.000
REMARK  5 active torsions:
REMARK  status: ('A' for Active; 'I' for Inactive)
REMARK    1  A    between atoms: C6_6  and  C7_7 
REMARK    2  A    between atoms: C7_7  and  N1_8 
REMARK    3  A    between atoms: N4_11  and  C8_12 
REMARK    4  A    between atoms: C8_12  and  C9_13 
REMARK    5  A    between atoms: C9_13  and  N5_14 
ROOT
HETATM    1  N1  LIG X 999      45.849 130.557  19.742  1.00  0.00    -0.052 NA
HETATM    2  N2  LIG X 999      45.390 130.289  20.852  1.00  0.00    -0.160 NA
HETATM    3  N3  LIG X 999      44.931 130.021  21.962  1.00  0.00     0.068 N 
ENDROOT
BRANCH   1   4
HETATM    4  C7  LIG X 999      45.020 131.053  18.686  1.00  0.00     0.191 C 
HETATM    5  N4  LIG X 999      43.777 131.366  18.934  1.00  0.00    -0.267 NA
BRANCH   4   6
HETATM    6  C6  LIG X 999      45.607 131.153  17.335  1.00  0.00     0.015 A 
HETATM    7  C5  LIG X 999      46.298 130.067  16.774  1.00  0.00     0.027 A 
HETATM    8  C4  LIG X 999      46.839 130.164  15.483  1.00  0.00    -0.025 A 
HETATM    9  C3  LIG X 999      47.545 129.089  14.920  1.00  0.00     0.012 A 
HETATM   10  C12 LIG X 999      46.669 131.357  14.739  1.00  0.00    -0.026 A 
HETATM   11  C2  LIG X 999      48.080 129.198  13.633  1.00  0.00     0.001 A 
HETATM   12  C1  LIG X 999      47.916 130.377  12.900  1.00  0.00     0.001 A 
HETATM   13  C13 LIG X 999      47.213 131.454  13.447  1.00  0.00     0.012 A 
HETATM   14  C11 LIG X 999      45.956 132.428  15.296  1.00  0.00     0.013 A 
HETATM   15  C10 LIG X 999      45.421 132.321  16.583  1.00  0.00     0.016 A 
ENDBRANCH   4   6
BRANCH   5  16
HETATM   16  C8  LIG X 999      42.766 131.809  17.969  1.00  0.00     0.178 C 
BRANCH  16  17
HETATM   17  C9  LIG X 999      41.584 132.503  18.663  1.00  0.00     0.251 C 
BRANCH  17  18
HETATM   18  N5  LIG X 999      42.011 133.229  19.859  1.00  0.00    -0.078 N 
HETATM   19  H9  LIG X 999      42.098 132.555  20.653  1.00  0.00     0.274 HD
HETATM   20  H10 LIG X 999      42.941 133.678  19.698  1.00  0.00     0.274 HD
HETATM   21  H11 LIG X 999      41.305 133.958  20.111  1.00  0.00     0.274 HD
ENDBRANCH  17  18
ENDBRANCH  16  17
ENDBRANCH   5  16
ENDBRANCH   1   4
TORSDOF 5
