REMARK VINA RESULT:      -7.0      7.820      8.998
REMARK  1 active torsions:
REMARK  status: ('A' for Active; 'I' for Inactive)
REMARK    1  A    between atoms: C2_5  and  C3_6 
ROOT
HETATM    1  C3  LIG X 999      49.257 136.309  21.329  1.00  0.00     0.028 A 
HETATM    2  C4  LIG X 999      48.411 135.227  21.619  1.00  0.00     0.017 A 
HETATM    3  C5  LIG X 999      48.725 134.326  22.635  1.00  0.00     0.002 A 
HETATM    4  C6  LIG X 999      49.886 134.493  23.388  1.00  0.00     0.012 A 
HETATM    5  C7  LIG X 999      50.733 135.583  23.147  1.00  0.00    -0.025 A 
HETATM    6  C8  LIG X 999      51.884 135.761  23.932  1.00  0.00     0.012 A 
HETATM    7  C9  LIG X 999      52.711 136.866  23.729  1.00  0.00     0.001 A 
HETATM    8  C10 LIG X 999      52.390 137.809  22.752  1.00  0.00     0.001 A 
HETATM    9  C11 LIG X 999      51.252 137.645  21.959  1.00  0.00     0.013 A 
HETATM   10  C12 LIG X 999      50.418 136.517  22.122  1.00  0.00    -0.011 A 
ENDROOT
BRANCH   1  11
HETATM   11  C2  LIG X 999      48.896 137.170  20.183  1.00  0.00     0.177 A 
HETATM   12  O1  LIG X 999      49.602 137.259  19.075  1.00  0.00    -0.258 OA
HETATM   13  C1  LIG X 999      48.969 138.153  18.347  1.00  0.00     0.260 A 
HETATM   14  N1  LIG X 999      49.344 138.530  17.169  1.00  0.00    -0.261 NA
HETATM   15  N3  LIG X 999      47.888 138.632  18.981  1.00  0.00    -0.262 N 
HETATM   16  H1  LIG X 999      50.197 138.126  16.723  1.00  0.00     0.190 HD
HETATM   17  N2  LIG X 999      47.842 138.014  20.147  1.00  0.00    -0.276 N 
HETATM   18  H10 LIG X 999      47.213 139.358  18.650  1.00  0.00     0.190 HD
HETATM   19  H9  LIG X 999      47.137 138.195  20.895  1.00  0.00     0.189 HD
ENDBRANCH   1  11
TORSDOF 1
