REMARK VINA RESULT:      -5.9      2.005      4.549
REMARK  1 active torsions:
REMARK  status: ('A' for Active; 'I' for Inactive)
REMARK    1  A    between atoms: N1_2  and  C1_3 
ROOT
HETATM    1  C1  LIG X 999      44.929 131.627  20.899  1.00  0.00     0.120 C 
HETATM    2  C2  LIG X 999      43.732 132.071  20.348  1.00  0.00     0.057 C 
HETATM    3  C3  LIG X 999      43.448 131.852  18.993  1.00  0.00    -0.045 C 
HETATM    4  C4  LIG X 999      42.019 132.085  18.568  1.00  0.00     0.049 C 
HETATM    5  C5  LIG X 999      44.462 131.296  18.148  1.00  0.00     0.008 C 
HETATM    6  C6  LIG X 999      44.392 131.216  16.716  1.00  0.00    -0.013 C 
HETATM    7  C7  LIG X 999      43.525 132.014  15.931  1.00  0.00     0.013 C 
HETATM    8  C8  LIG X 999      43.454 131.856  14.545  1.00  0.00     0.001 C 
HETATM    9  C9  LIG X 999      44.279 130.940  13.899  1.00  0.00     0.001 C 
HETATM   10  C10 LIG X 999      45.220 130.218  14.630  1.00  0.00     0.012 C 
HETATM   11  C11 LIG X 999      45.311 130.376  16.022  1.00  0.00    -0.025 C 
HETATM   12  C12 LIG X 999      46.347 129.747  16.713  1.00  0.00     0.014 C 
HETATM   13  C13 LIG X 999      46.527 129.976  18.070  1.00  0.00     0.031 C 
HETATM   14  C14 LIG X 999      45.609 130.747  18.793  1.00  0.00     0.045 C 
HETATM   15  N2  LIG X 999      45.818 130.947  20.126  1.00  0.00    -0.341 N 
HETATM   16  H12 LIG X 999      46.687 130.568  20.572  1.00  0.00     0.167 HD
ENDROOT
BRANCH   1  17
HETATM   17  N1  LIG X 999      45.167 131.829  22.157  1.00  0.00    -0.284 NA
HETATM   18  H1  LIG X 999      46.133 131.987  22.523  1.00  0.00     0.188 HD
ENDBRANCH   1  17
TORSDOF 1
