REMARK VINA RESULT:      -9.3      0.000      0.000
REMARK  5 active torsions:
REMARK  status: ('A' for Active; 'I' for Inactive)
REMARK    1  A    between atoms: C2_2  and  C3_3 
REMARK    2  A    between atoms: C2_2  and  N1_13 
REMARK    3  A    between atoms: C14_15  and  C15_16 
REMARK    4  A    between atoms: C15_16  and  C16_17 
REMARK       I    between atoms: C16_17  and  N2_19 
REMARK    5  A    between atoms: N2_19  and  C17_20 
ROOT
HETATM    1  N1  LIG X 999      44.489 131.798  19.422  1.00  0.00    -0.274 N 
HETATM    2  C13 LIG X 999      43.688 131.748  20.502  1.00  0.00     0.137 A 
HETATM    3  C14 LIG X 999      44.493 131.388  21.558  1.00  0.00     0.078 A 
HETATM    4  N4  LIG X 999      45.747 131.205  21.098  1.00  0.00    -0.163 NA
HETATM    5  N5  LIG X 999      45.715 131.464  19.799  1.00  0.00     0.005 NA
ENDROOT
BRANCH   1   6
HETATM    6  C2  LIG X 999      44.111 132.078  18.034  1.00  0.00     0.134 C 
HETATM    7  C1  LIG X 999      42.612 131.831  17.809  1.00  0.00     0.039 C 
BRANCH   6   8
HETATM    8  C3  LIG X 999      44.993 131.295  17.078  1.00  0.00    -0.033 A 
HETATM    9  C4  LIG X 999      45.343 129.954  17.331  1.00  0.00     0.010 A 
HETATM   10  C5  LIG X 999      46.189 129.261  16.460  1.00  0.00     0.013 A 
HETATM   11  C6  LIG X 999      46.714 129.898  15.328  1.00  0.00    -0.026 A 
HETATM   12  C7  LIG X 999      47.565 129.209  14.449  1.00  0.00     0.012 A 
HETATM   13  C11 LIG X 999      46.387 131.252  15.073  1.00  0.00    -0.025 A 
HETATM   14  C8  LIG X 999      48.089 129.860  13.328  1.00  0.00     0.001 A 
HETATM   15  C9  LIG X 999      47.770 131.197  13.076  1.00  0.00     0.001 A 
HETATM   16  C10 LIG X 999      46.921 131.893  13.944  1.00  0.00     0.012 A 
HETATM   17  C12 LIG X 999      45.536 131.940  15.951  1.00  0.00     0.021 A 
ENDBRANCH   6   8
ENDBRANCH   1   6
BRANCH   3  18
HETATM   18  C15 LIG X 999      44.055 131.108  22.960  1.00  0.00     0.167 C 
BRANCH  18  19
HETATM   19  C16 LIG X 999      43.641 129.677  23.084  1.00  0.00     0.251 C 
HETATM   20  O1  LIG X 999      42.418 129.376  23.043  1.00  0.00    -0.271 OA
HETATM   21  N2  LIG X 999      44.645 128.667  23.247  1.00  0.00    -0.189 NA
BRANCH  21  22
HETATM   22  C17 LIG X 999      44.456 127.254  23.111  1.00  0.00     0.173 A 
HETATM   23  N3  LIG X 999      43.326 126.583  23.433  1.00  0.00    -0.344 N 
HETATM   24  C18 LIG X 999      43.415 125.259  23.139  1.00  0.00     0.097 A 
HETATM   25  H15 LIG X 999      42.462 127.012  23.830  1.00  0.00     0.167 HD
HETATM   26  C19 LIG X 999      44.618 124.869  22.558  1.00  0.00     0.070 A 
HETATM   27  S1  LIG X 999      45.593 126.234  22.410  1.00  0.00    -0.062 SA
ENDBRANCH  21  22
ENDBRANCH  18  19
ENDBRANCH   3  18
TORSDOF 5
