REMARK VINA RESULT:      -4.7      2.772      6.676
REMARK  5 active torsions:
REMARK  status: ('A' for Active; 'I' for Inactive)
REMARK    1  A    between atoms: C3_3  and  C4_4 
REMARK    2  A    between atoms: C4_4  and  S1_5 
REMARK    3  A    between atoms: S1_5  and  C5_6 
REMARK    4  A    between atoms: C6_7  and  N1_8 
REMARK    5  A    between atoms: C10_12  and  N2_13 
ROOT
HETATM    1  C1  LIG X 999      45.653 131.208  16.592  1.00  0.00     0.112 C 
HETATM    2  C2  LIG X 999      45.037 131.277  17.917  1.00  0.00    -0.110 C 
HETATM    3  C3  LIG X 999      44.528 131.326  19.008  1.00  0.00    -0.097 C 
ENDROOT
BRANCH   3   4
HETATM    4  C4  LIG X 999      43.904 131.377  20.332  1.00  0.00     0.173 C 
BRANCH   4   5
HETATM    5  S1  LIG X 999      45.107 130.915  21.624  1.00  0.00    -0.115 SA
BRANCH   5   6
HETATM    6  C5  LIG X 999      43.958 129.859  22.545  1.00  0.00     0.038 A 
HETATM    7  C6  LIG X 999      42.748 130.404  23.031  1.00  0.00     0.043 A 
HETATM    8  C7  LIG X 999      41.868 129.599  23.757  1.00  0.00     0.031 A 
HETATM    9  C8  LIG X 999      42.159 128.262  24.009  1.00  0.00     0.017 A 
HETATM   10  C9  LIG X 999      43.351 127.681  23.540  1.00  0.00     0.002 A 
HETATM   11  C10 LIG X 999      43.664 126.310  23.792  1.00  0.00     0.045 A 
HETATM   12  C14 LIG X 999      44.253 128.488  22.773  1.00  0.00    -0.004 A 
HETATM   13  C11 LIG X 999      44.831 125.784  23.218  1.00  0.00     0.003 A 
HETATM   14  C12 LIG X 999      45.678 126.552  22.485  1.00  0.00    -0.021 A 
HETATM   15  C18 LIG X 999      45.378 124.409  23.343  1.00  0.00     0.278 C 
HETATM   16  C13 LIG X 999      45.429 127.900  22.254  1.00  0.00     0.023 A 
HETATM   17  C15 LIG X 999      46.861 125.777  22.056  1.00  0.00     0.276 C 
HETATM   18  N3  LIG X 999      46.583 124.364  22.455  1.00  0.00    -0.067 N 
HETATM   19  C16 LIG X 999      46.298 123.544  21.253  1.00  0.00     0.272 C 
HETATM   20  C17 LIG X 999      47.742 123.783  23.171  1.00  0.00     0.272 C 
BRANCH   7  21
HETATM   21  N1  LIG X 999      42.382 131.770  22.784  1.00  0.00    -0.398 N 
HETATM   22  H6  LIG X 999      41.898 132.072  21.912  1.00  0.00     0.156 HD
HETATM   23  H7  LIG X 999      42.581 132.508  23.495  1.00  0.00     0.156 HD
ENDBRANCH   7  21
BRANCH  11  24
HETATM   24  N2  LIG X 999      42.848 125.470  24.625  1.00  0.00    -0.398 N 
HETATM   25  H10 LIG X 999      42.640 125.736  25.612  1.00  0.00     0.156 HD
HETATM   26  H11 LIG X 999      42.333 124.643  24.258  1.00  0.00     0.156 HD
ENDBRANCH  11  24
ENDBRANCH   5   6
ENDBRANCH   4   5
ENDBRANCH   3   4
TORSDOF 5
