REMARK VINA RESULT:      -3.5      1.578      2.162
REMARK  4 active torsions:
REMARK  status: ('A' for Active; 'I' for Inactive)
REMARK    1  A    between atoms: C3_3  and  C4_4 
REMARK    2  A    between atoms: C5_7  and  N3_8 
REMARK    3  A    between atoms: C8_14  and  C9_15 
REMARK    4  A    between atoms: C10_16  and  C11_17 
ROOT
HETATM    1  N3  LIG X 999      41.133 128.103  24.513  1.00  0.00    -0.023 NA
HETATM    2  N4  LIG X 999      41.602 129.233  24.382  1.00  0.00    -0.158 NA
HETATM    3  N5  LIG X 999      42.070 130.363  24.250  1.00  0.00     0.068 N 
ENDROOT
BRANCH   1   4
HETATM    4  C5  LIG X 999      41.767 126.976  23.912  1.00  0.00     0.326 A 
HETATM    5  N2  LIG X 999      41.096 125.953  23.356  1.00  0.00    -0.099 NA
HETATM    6  N1  LIG X 999      42.019 125.114  22.912  1.00  0.00    -0.124 NA
HETATM    7  C4  LIG X 999      43.215 125.659  23.219  1.00  0.00     0.184 A 
HETATM    8  O1  LIG X 999      43.065 126.811  23.832  1.00  0.00    -0.255 OA
BRANCH   7   9
HETATM    9  C3  LIG X 999      44.550 125.031  22.867  1.00  0.00     0.054 C 
HETATM   10  C2  LIG X 999      44.286 123.912  21.871  1.00  0.00    -0.008 C 
HETATM   11  C1  LIG X 999      43.934 122.692  22.298  1.00  0.00    -0.003 C 
HETATM   12  C15 LIG X 999      43.918 122.376  23.740  1.00  0.00    -0.004 C 
HETATM   13  C14 LIG X 999      44.474 123.214  24.624  1.00  0.00    -0.021 C 
HETATM   14  C13 LIG X 999      45.231 124.436  24.149  1.00  0.00     0.030 C 
HETATM   15  C12 LIG X 999      46.703 124.035  23.897  1.00  0.00     0.027 C 
HETATM   16  C8  LIG X 999      47.512 125.199  23.312  1.00  0.00     0.066 C 
HETATM   17  C7  LIG X 999      46.877 125.679  22.000  1.00  0.00     0.019 C 
HETATM   18  C6  LIG X 999      45.435 126.137  22.237  1.00  0.00     0.024 C 
BRANCH  16  19
HETATM   19  C9  LIG X 999      48.900 124.776  23.072  1.00  0.00    -0.090 C 
HETATM   20  C10 LIG X 999      50.038 124.431  22.876  1.00  0.00     0.005 C 
BRANCH  20  21
HETATM   21  C11 LIG X 999      51.393 124.019  22.643  1.00  0.00     0.258 C 
HETATM   22  O2  LIG X 999      52.343 124.658  23.166  1.00  0.00    -0.637 OA
HETATM   23  O3  LIG X 999      51.656 122.917  21.842  1.00  0.00    -0.637 OA
ENDBRANCH  20  21
ENDBRANCH  16  19
ENDBRANCH   7   9
ENDBRANCH   1   4
TORSDOF 4
