REMARK VINA RESULT:      -6.9      2.189      4.822
REMARK  1 active torsions:
REMARK  status: ('A' for Active; 'I' for Inactive)
REMARK    1  A    between atoms: C4_4  and  N1_5 
ROOT
HETATM    1  C1  LIG X 999      46.474 130.794  20.125  1.00  0.00     0.049 C 
HETATM    2  C2  LIG X 999      45.208 131.021  19.336  1.00  0.00    -0.045 C 
HETATM    3  C3  LIG X 999      45.326 130.922  17.940  1.00  0.00     0.057 C 
HETATM    4  C4  LIG X 999      44.298 131.373  17.115  1.00  0.00     0.122 C 
HETATM    5  N2  LIG X 999      43.198 131.938  17.664  1.00  0.00    -0.231 NA
HETATM    6  C5  LIG X 999      43.014 132.015  19.006  1.00  0.00     0.070 C 
HETATM    7  C6  LIG X 999      41.881 132.675  19.483  1.00  0.00     0.033 C 
HETATM    8  C7  LIG X 999      41.651 132.788  20.847  1.00  0.00     0.014 C 
HETATM    9  C8  LIG X 999      42.495 132.149  21.759  1.00  0.00    -0.025 C 
HETATM   10  C9  LIG X 999      42.181 132.191  23.128  1.00  0.00     0.012 C 
HETATM   11  C10 LIG X 999      42.927 131.455  24.044  1.00  0.00     0.001 C 
HETATM   12  C11 LIG X 999      43.964 130.640  23.599  1.00  0.00     0.001 C 
HETATM   13  C12 LIG X 999      44.297 130.600  22.242  1.00  0.00     0.013 C 
HETATM   14  C13 LIG X 999      43.630 131.417  21.300  1.00  0.00    -0.013 C 
HETATM   15  C14 LIG X 999      43.968 131.459  19.905  1.00  0.00     0.010 C 
ENDROOT
BRANCH   4  16
HETATM   16  N1  LIG X 999      44.424 131.300  15.694  1.00  0.00    -0.384 N 
HETATM   17  H5  LIG X 999      43.593 131.117  15.089  1.00  0.00     0.157 HD
HETATM   18  H6  LIG X 999      45.356 131.432  15.241  1.00  0.00     0.157 HD
ENDBRANCH   4  16
TORSDOF 1
