REMARK VINA RESULT:      -5.9      2.159      5.151
REMARK  1 active torsions:
REMARK  status: ('A' for Active; 'I' for Inactive)
REMARK    1  A    between atoms: C4_4  and  N1_5 
ROOT
HETATM    1  C1  LIG X 999      45.924 130.419  20.003  1.00  0.00     0.049 C 
HETATM    2  C2  LIG X 999      44.576 130.769  20.584  1.00  0.00    -0.045 C 
HETATM    3  C3  LIG X 999      43.848 131.754  19.901  1.00  0.00     0.055 C 
HETATM    4  C4  LIG X 999      42.734 132.345  20.491  1.00  0.00     0.099 C 
HETATM    5  N2  LIG X 999      42.372 131.991  21.751  1.00  0.00    -0.342 N 
HETATM    6  C5  LIG X 999      43.019 131.007  22.439  1.00  0.00     0.045 C 
HETATM    7  C6  LIG X 999      42.639 130.741  23.760  1.00  0.00     0.031 C 
HETATM    8  C7  LIG X 999      43.275 129.750  24.495  1.00  0.00     0.014 C 
HETATM    9  C8  LIG X 999      44.227 128.926  23.892  1.00  0.00    -0.025 C 
HETATM   10  C9  LIG X 999      44.772 127.860  24.625  1.00  0.00     0.012 C 
HETATM   11  C10 LIG X 999      45.620 126.943  24.008  1.00  0.00     0.001 C 
HETATM   12  C11 LIG X 999      45.895 127.058  22.650  1.00  0.00     0.001 C 
HETATM   13  C12 LIG X 999      45.371 128.122  21.912  1.00  0.00     0.013 C 
HETATM   14  C13 LIG X 999      44.595 129.131  22.531  1.00  0.00    -0.013 C 
HETATM   15  C14 LIG X 999      44.081 130.274  21.832  1.00  0.00     0.008 C 
HETATM   16  H7  LIG X 999      41.570 132.494  22.198  1.00  0.00     0.167 HD
ENDROOT
BRANCH   4  17
HETATM   17  N1  LIG X 999      42.011 133.365  19.796  1.00  0.00    -0.385 N 
HETATM   18  H5  LIG X 999      41.664 133.209  18.823  1.00  0.00     0.157 HD
HETATM   19  H6  LIG X 999      41.813 134.282  20.253  1.00  0.00     0.157 HD
ENDBRANCH   4  17
TORSDOF 1
