REMARK VINA RESULT:      -7.0      1.580      5.497
REMARK  1 active torsions:
REMARK  status: ('A' for Active; 'I' for Inactive)
REMARK    1  A    between atoms: C10_11  and  N2_12 
ROOT
HETATM    1  C1  LIG X 999      45.250 132.549  21.542  1.00  0.00     0.272 C 
HETATM    2  N1  LIG X 999      44.655 131.350  20.906  1.00  0.00    -0.067 N 
HETATM    3  C2  LIG X 999      43.909 130.582  21.929  1.00  0.00     0.272 C 
HETATM    4  C3  LIG X 999      45.732 130.508  20.294  1.00  0.00     0.276 C 
HETATM    5  C4  LIG X 999      45.574 130.663  18.831  1.00  0.00    -0.024 A 
HETATM    6  C5  LIG X 999      46.390 130.151  17.827  1.00  0.00     0.021 A 
HETATM    7  C6  LIG X 999      46.042 130.392  16.483  1.00  0.00    -0.023 A 
HETATM    8  C7  LIG X 999      46.845 129.877  15.457  1.00  0.00     0.012 A 
HETATM    9  C8  LIG X 999      46.508 130.097  14.124  1.00  0.00     0.003 A 
HETATM   10  C9  LIG X 999      45.372 130.837  13.798  1.00  0.00     0.030 A 
HETATM   11  C10 LIG X 999      44.547 131.376  14.798  1.00  0.00     0.036 A 
HETATM   12  C11 LIG X 999      44.869 131.149  16.164  1.00  0.00     0.001 A 
HETATM   13  C12 LIG X 999      44.064 131.629  17.228  1.00  0.00     0.024 A 
HETATM   14  C13 LIG X 999      44.452 131.373  18.543  1.00  0.00    -0.023 A 
HETATM   15  C14 LIG X 999      43.750 131.759  19.786  1.00  0.00     0.276 C 
ENDROOT
BRANCH  11  16
HETATM   16  N2  LIG X 999      43.409 132.151  14.389  1.00  0.00    -0.398 N 
HETATM   17  H13 LIG X 999      42.425 131.830  14.499  1.00  0.00     0.156 HD
HETATM   18  H14 LIG X 999      43.539 133.122  14.026  1.00  0.00     0.156 HD
ENDBRANCH  11  16
TORSDOF 1
