REMARK VINA RESULT:      -6.6      4.472      6.873
REMARK  2 active torsions:
REMARK  status: ('A' for Active; 'I' for Inactive)
REMARK    1  A    between atoms: C1_2  and  C2_4 
REMARK    2  A    between atoms: C3_5  and  C4_6 
ROOT
HETATM    1  C4  LIG X 999      44.604 131.182  19.410  1.00  0.00     0.019 A 
HETATM    2  C5  LIG X 999      45.820 130.514  19.220  1.00  0.00     0.021 A 
HETATM    3  C6  LIG X 999      46.298 130.276  17.928  1.00  0.00     0.013 A 
HETATM    4  C7  LIG X 999      45.562 130.707  16.813  1.00  0.00    -0.026 A 
HETATM    5  C8  LIG X 999      46.031 130.474  15.511  1.00  0.00     0.012 A 
HETATM    6  C9  LIG X 999      45.289 130.907  14.409  1.00  0.00     0.001 A 
HETATM    7  C10 LIG X 999      44.075 131.574  14.597  1.00  0.00     0.001 A 
HETATM    8  C11 LIG X 999      43.595 131.813  15.889  1.00  0.00     0.012 A 
HETATM    9  C12 LIG X 999      44.331 131.383  17.005  1.00  0.00    -0.025 A 
HETATM   10  C13 LIG X 999      43.861 131.616  18.306  1.00  0.00     0.032 A 
ENDROOT
BRANCH   1  11
HETATM   11  C3  LIG X 999      44.118 131.423  20.745  1.00  0.00    -0.056 C 
HETATM   12  C2  LIG X 999      43.711 131.623  21.862  1.00  0.00     0.010 C 
BRANCH  12  13
HETATM   13  C1  LIG X 999      43.228 131.862  23.192  1.00  0.00     0.258 C 
HETATM   14  O1  LIG X 999      41.994 131.807  23.432  1.00  0.00    -0.637 OA
HETATM   15  O2  LIG X 999      44.121 132.154  24.213  1.00  0.00    -0.637 OA
ENDBRANCH  12  13
ENDBRANCH   1  11
TORSDOF 2
