REMARK VINA RESULT:      -4.8      6.919      8.706
REMARK  1 active torsions:
REMARK  status: ('A' for Active; 'I' for Inactive)
REMARK    1  A    between atoms: N1_2  and  C1_3 
ROOT
HETATM    1  C1  LIG X 999      42.681 128.620  23.741  1.00  0.00     0.143 C 
HETATM    2  N2  LIG X 999      41.338 128.473  23.854  1.00  0.00    -0.229 NA
HETATM    3  C2  LIG X 999      40.738 127.255  23.844  1.00  0.00     0.070 C 
HETATM    4  C3  LIG X 999      39.346 127.202  23.898  1.00  0.00     0.033 C 
HETATM    5  C4  LIG X 999      38.686 125.981  23.882  1.00  0.00     0.014 C 
HETATM    6  C5  LIG X 999      39.409 124.786  23.924  1.00  0.00    -0.025 C 
HETATM    7  C6  LIG X 999      38.715 123.569  24.015  1.00  0.00     0.012 C 
HETATM    8  C7  LIG X 999      39.410 122.376  24.193  1.00  0.00     0.001 C 
HETATM    9  C8  LIG X 999      40.795 122.392  24.322  1.00  0.00     0.001 C 
HETATM   10  C9  LIG X 999      41.500 123.594  24.219  1.00  0.00     0.013 C 
HETATM   11  C10 LIG X 999      40.835 124.809  23.932  1.00  0.00    -0.013 C 
HETATM   12  C11 LIG X 999      41.513 126.063  23.758  1.00  0.00     0.010 C 
HETATM   13  C12 LIG X 999      42.908 126.222  23.467  1.00  0.00    -0.045 C 
HETATM   14  C13 LIG X 999      43.798 125.123  22.940  1.00  0.00     0.049 C 
HETATM   15  C14 LIG X 999      43.482 127.502  23.532  1.00  0.00     0.059 C 
ENDROOT
BRANCH   1  16
HETATM   16  N1  LIG X 999      43.211 129.799  23.783  1.00  0.00    -0.282 NA
HETATM   17  H1  LIG X 999      44.149 129.963  24.210  1.00  0.00     0.188 HD
ENDBRANCH   1  16
TORSDOF 1
