REMARK VINA RESULT:      -3.8      3.476      4.755
REMARK  5 active torsions:
REMARK  status: ('A' for Active; 'I' for Inactive)
REMARK    1  A    between atoms: C3_3  and  O1_4 
REMARK    2  A    between atoms: O1_4  and  C4_5 
REMARK    3  A    between atoms: C5_6  and  C6_7 
REMARK    4  A    between atoms: C12_14  and  N1_15 
REMARK    5  A    between atoms: C15_21  and  N3_22 
ROOT
HETATM    1  C1  LIG X 999      46.023 130.077  16.598  1.00  0.00     0.014 C 
HETATM    2  C2  LIG X 999      45.725 130.520  17.678  1.00  0.00    -0.091 C 
HETATM    3  C3  LIG X 999      45.364 131.059  18.990  1.00  0.00     0.268 C 
ENDROOT
BRANCH   3   4
HETATM    4  O1  LIG X 999      46.100 130.370  19.996  1.00  0.00    -0.339 OA
BRANCH   4   5
HETATM    5  C4  LIG X 999      45.531 129.594  21.020  1.00  0.00     0.085 A 
HETATM    6  C5  LIG X 999      44.500 130.169  21.833  1.00  0.00     0.050 A 
HETATM    7  C7  LIG X 999      43.957 129.362  22.848  1.00  0.00     0.044 A 
HETATM    8  C8  LIG X 999      44.403 128.096  23.030  1.00  0.00     0.021 A 
HETATM    9  C15 LIG X 999      42.920 129.516  23.890  1.00  0.00     0.198 A 
HETATM   10  C9  LIG X 999      43.735 127.518  24.057  1.00  0.00     0.071 A 
HETATM   11  C13 LIG X 999      45.390 127.481  22.286  1.00  0.00     0.006 A 
HETATM   12  C10 LIG X 999      44.021 126.210  24.438  1.00  0.00     0.035 A 
HETATM   13  N2  LIG X 999      42.785 128.429  24.607  1.00  0.00    -0.225 NA
HETATM   14  C11 LIG X 999      45.021 125.519  23.718  1.00  0.00     0.032 A 
HETATM   15  C12 LIG X 999      45.717 126.140  22.638  1.00  0.00     0.037 A 
HETATM   16  C14 LIG X 999      45.967 128.252  21.255  1.00  0.00     0.052 A 
BRANCH   6  17
HETATM   17  C6  LIG X 999      44.014 131.552  21.631  1.00  0.00     0.273 C 
HETATM   18  O2  LIG X 999      42.922 131.790  21.049  1.00  0.00    -0.301 OA
ENDBRANCH   6  17
BRANCH  15  19
HETATM   19  N1  LIG X 999      46.723 125.393  21.942  1.00  0.00    -0.398 N 
HETATM   20  H7  LIG X 999      47.734 125.578  22.123  1.00  0.00     0.156 HD
HETATM   21  H8  LIG X 999      46.493 124.654  21.245  1.00  0.00     0.156 HD
ENDBRANCH  15  19
BRANCH   9  22
HETATM   22  N3  LIG X 999      42.142 130.694  24.111  1.00  0.00    -0.051 NA
HETATM   23  N4  LIG X 999      42.677 131.772  24.368  1.00  0.00    -0.160 NA
HETATM   24  N5  LIG X 999      43.211 132.851  24.625  1.00  0.00     0.068 N 
ENDBRANCH   9  22
ENDBRANCH   4   5
ENDBRANCH   3   4
TORSDOF 5
