REMARK VINA RESULT:      -5.1      6.985      8.583
REMARK  1 active torsions:
REMARK  status: ('A' for Active; 'I' for Inactive)
REMARK    1  A    between atoms: C4_4  and  N1_5 
ROOT
HETATM    1  C1  LIG X 999      43.400 124.934  24.080  1.00  0.00     0.049 C 
HETATM    2  C2  LIG X 999      42.458 126.080  23.800  1.00  0.00    -0.045 C 
HETATM    3  C3  LIG X 999      43.058 127.323  23.552  1.00  0.00     0.055 C 
HETATM    4  C4  LIG X 999      42.295 128.488  23.555  1.00  0.00     0.099 C 
HETATM    5  N2  LIG X 999      40.969 128.423  23.836  1.00  0.00    -0.342 N 
HETATM    6  C5  LIG X 999      40.330 127.234  24.040  1.00  0.00     0.045 C 
HETATM    7  C6  LIG X 999      38.976 127.243  24.395  1.00  0.00     0.031 C 
HETATM    8  C7  LIG X 999      38.292 126.057  24.614  1.00  0.00     0.014 C 
HETATM    9  C8  LIG X 999      38.913 124.829  24.372  1.00  0.00    -0.025 C 
HETATM   10  C9  LIG X 999      38.163 123.648  24.492  1.00  0.00     0.012 C 
HETATM   11  C10 LIG X 999      38.718 122.423  24.127  1.00  0.00     0.001 C 
HETATM   12  C11 LIG X 999      40.005 122.375  23.600  1.00  0.00     0.001 C 
HETATM   13  C12 LIG X 999      40.767 123.541  23.489  1.00  0.00     0.013 C 
HETATM   14  C13 LIG X 999      40.273 124.784  23.951  1.00  0.00    -0.013 C 
HETATM   15  C14 LIG X 999      41.034 126.001  23.914  1.00  0.00     0.008 C 
HETATM   16  H7  LIG X 999      40.428 129.317  23.896  1.00  0.00     0.167 HD
ENDROOT
BRANCH   4  17
HETATM   17  N1  LIG X 999      42.919 129.754  23.323  1.00  0.00    -0.385 N 
HETATM   18  H5  LIG X 999      42.374 130.641  23.391  1.00  0.00     0.157 HD
HETATM   19  H6  LIG X 999      43.934 129.810  23.084  1.00  0.00     0.157 HD
ENDBRANCH   4  17
TORSDOF 1
