REMARK VINA RESULT:      -5.4      7.400      9.739
REMARK  7 active torsions:
REMARK  status: ('A' for Active; 'I' for Inactive)
REMARK    1  A    between atoms: O1_2  and  C1_3 
REMARK    2  A    between atoms: C1_3  and  O2_18 
REMARK    3  A    between atoms: N1_4  and  C2_5 
REMARK    4  A    between atoms: C3_6  and  N2_7 
REMARK    5  A    between atoms: O2_18  and  C12_19 
REMARK    6  A    between atoms: C12_19  and  C14_21 
REMARK    7  A    between atoms: C14_21  and  O3_22 
ROOT
HETATM    1  N2  LIG X 999      43.477 126.505  23.415  1.00  0.00    -0.070 NA
HETATM    2  N3  LIG X 999      43.250 127.672  23.739  1.00  0.00    -0.162 NA
HETATM    3  N4  LIG X 999      43.028 128.839  24.056  1.00  0.00     0.068 N 
ENDROOT
BRANCH   1   4
HETATM    4  C3  LIG X 999      42.518 125.450  23.579  1.00  0.00     0.122 A 
HETATM    5  C2  LIG X 999      42.868 124.074  23.549  1.00  0.00     0.094 A 
HETATM    6  C11 LIG X 999      41.898 123.107  23.844  1.00  0.00     0.046 A 
HETATM    7  C10 LIG X 999      40.573 123.478  24.103  1.00  0.00    -0.024 A 
HETATM    8  C5  LIG X 999      40.210 124.843  24.074  1.00  0.00    -0.024 A 
HETATM    9  C9  LIG X 999      39.598 122.506  24.379  1.00  0.00     0.012 A 
HETATM   10  C4  LIG X 999      41.186 125.815  23.809  1.00  0.00     0.049 A 
HETATM   11  C6  LIG X 999      38.879 125.214  24.322  1.00  0.00     0.012 A 
HETATM   12  C7  LIG X 999      37.917 124.238  24.596  1.00  0.00     0.001 A 
HETATM   13  C8  LIG X 999      38.276 122.887  24.625  1.00  0.00     0.001 A 
BRANCH   5  14
HETATM   14  N1  LIG X 999      44.180 123.617  23.195  1.00  0.00    -0.200 NA
HETATM   15  C1  LIG X 999      44.504 123.155  22.024  1.00  0.00     0.285 C 
BRANCH  15  16
HETATM   16  O1  LIG X 999      43.550 123.080  21.012  1.00  0.00    -0.325 OA
HETATM   17  H1  LIG X 999      43.702 122.489  20.204  1.00  0.00     0.221 HD
ENDBRANCH  15  16
BRANCH  15  18
HETATM   18  O2  LIG X 999      45.809 122.714  21.753  1.00  0.00    -0.308 OA
BRANCH  18  19
HETATM   19  C12 LIG X 999      46.954 123.530  21.461  1.00  0.00     0.152 C 
HETATM   20  C13 LIG X 999      46.851 124.927  22.086  1.00  0.00     0.042 C 
BRANCH  19  21
HETATM   21  C14 LIG X 999      48.275 122.814  21.792  1.00  0.00     0.199 C 
BRANCH  21  22
HETATM   22  O3  LIG X 999      49.368 123.457  21.170  1.00  0.00    -0.393 OA
HETATM   23  C15 LIG X 999      49.372 123.152  19.794  1.00  0.00     0.201 C 
ENDBRANCH  21  22
ENDBRANCH  19  21
ENDBRANCH  18  19
ENDBRANCH  15  18
ENDBRANCH   5  14
ENDBRANCH   1   4
TORSDOF 7
