REMARK VINA RESULT:      -4.9      5.271      6.252
REMARK  4 active torsions:
REMARK  status: ('A' for Active; 'I' for Inactive)
REMARK    1  A    between atoms: C1_1  and  C2_6 
REMARK    2  A    between atoms: N1_2  and  N2_3 
REMARK    3  A    between atoms: C2_6  and  C3_8 
REMARK    4  A    between atoms: C11_16  and  N4_17 
ROOT
HETATM    1  N4  LIG X 999      41.412 127.185  23.532  1.00  0.00    -0.105 NA
HETATM    2  N5  LIG X 999      40.859 126.114  23.789  1.00  0.00    -0.167 NA
HETATM    3  N6  LIG X 999      40.309 125.044  24.044  1.00  0.00     0.068 N 
ENDROOT
BRANCH   1   4
HETATM    4  C11 LIG X 999      42.566 127.649  24.298  1.00  0.00     0.179 C 
HETATM    5  C10 LIG X 999      43.036 128.994  23.774  1.00  0.00    -0.024 A 
HETATM    6  C5  LIG X 999      44.126 129.102  22.874  1.00  0.00    -0.049 A 
HETATM    7  C9  LIG X 999      42.325 130.153  24.133  1.00  0.00     0.010 A 
HETATM    8  C4  LIG X 999      45.003 127.916  22.540  1.00  0.00     0.051 C 
HETATM    9  C6  LIG X 999      44.487 130.364  22.374  1.00  0.00     0.007 A 
HETATM   10  C3  LIG X 999      44.321 126.569  22.828  1.00  0.00     0.068 C 
HETATM   11  C12 LIG X 999      43.679 126.592  24.227  1.00  0.00     0.048 C 
HETATM   12  C7  LIG X 999      43.766 131.502  22.737  1.00  0.00     0.001 A 
HETATM   13  C8  LIG X 999      42.689 131.398  23.618  1.00  0.00     0.001 A 
BRANCH  10  14
HETATM   14  C2  LIG X 999      45.325 125.443  22.699  1.00  0.00     0.172 C 
HETATM   15  O1  LIG X 999      44.936 124.245  22.771  1.00  0.00    -0.291 OA
BRANCH  14  16
HETATM   16  C1  LIG X 999      46.767 125.705  22.559  1.00  0.00     0.190 C 
HETATM   17  N1  LIG X 999      47.527 124.911  21.874  1.00  0.00    -0.165 NA
BRANCH  17  18
HETATM   18  N2  LIG X 999      48.901 125.150  21.724  1.00  0.00    -0.177 N 
HETATM   19  H2  LIG X 999      49.302 126.101  21.888  1.00  0.00     0.214 HD
HETATM   20  N3  LIG X 999      49.671 124.200  21.385  1.00  0.00    -0.031 N 
ENDBRANCH  17  18
ENDBRANCH  14  16
ENDBRANCH  10  14
ENDBRANCH   1   4
TORSDOF 4
