REMARK VINA RESULT:      -8.3      3.922      5.973
REMARK  2 active torsions:
REMARK  status: ('A' for Active; 'I' for Inactive)
REMARK    1  A    between atoms: C1_1  and  N1_14 
REMARK    2  A    between atoms: C2_2  and  C3_4 
ROOT
HETATM    1  C3  LIG X 999      43.939 131.572  18.883  1.00  0.00     0.003 A 
HETATM    2  C4  LIG X 999      45.160 130.931  19.176  1.00  0.00     0.015 A 
HETATM    3  C5  LIG X 999      46.007 130.508  18.149  1.00  0.00     0.013 A 
HETATM    4  C6  LIG X 999      45.649 130.707  16.810  1.00  0.00    -0.026 A 
HETATM    5  C7  LIG X 999      46.494 130.284  15.772  1.00  0.00     0.012 A 
HETATM    6  C8  LIG X 999      46.123 130.487  14.440  1.00  0.00     0.001 A 
HETATM    7  C9  LIG X 999      44.909 131.108  14.134  1.00  0.00     0.001 A 
HETATM    8  C10 LIG X 999      44.059 131.532  15.158  1.00  0.00     0.012 A 
HETATM    9  C11 LIG X 999      44.420 131.336  16.501  1.00  0.00    -0.025 A 
HETATM   10  C12 LIG X 999      43.574 131.758  17.538  1.00  0.00     0.026 A 
ENDROOT
BRANCH   1  11
HETATM   11  C2  LIG X 999      43.014 132.020  19.957  1.00  0.00     0.132 C 
HETATM   12  C1  LIG X 999      43.153 131.618  21.229  1.00  0.00     0.121 C 
HETATM   13  O1  LIG X 999      41.991 132.904  19.627  1.00  0.00    -0.190 OA
BRANCH  12  14
HETATM   14  N1  LIG X 999      42.254 132.050  22.254  1.00  0.00    -0.406 N 
HETATM   15  H9  LIG X 999      42.366 132.969  22.738  1.00  0.00     0.155 HD
HETATM   16  H10 LIG X 999      41.456 131.437  22.529  1.00  0.00     0.155 HD
ENDBRANCH  12  14
ENDBRANCH   1  11
TORSDOF 2
