REMARK VINA RESULT:      -7.1      3.184      8.153
REMARK  7 active torsions:
REMARK  status: ('A' for Active; 'I' for Inactive)
REMARK    1  A    between atoms: O1_2  and  C1_3 
REMARK    2  A    between atoms: C1_3  and  C14_20 
REMARK    3  A    between atoms: N1_4  and  C2_5 
REMARK    4  A    between atoms: C2_5  and  O2_6 
REMARK    5  A    between atoms: O2_6  and  C3_7 
REMARK    6  A    between atoms: C3_7  and  O4_9 
REMARK    7  A    between atoms: O4_9  and  C4_10 
ROOT
HETATM    1  C3  LIG X 999      44.004 131.937  20.202  1.00  0.00     0.413 C 
HETATM    2  O3  LIG X 999      42.776 132.143  19.996  1.00  0.00    -0.229 OA
ENDROOT
BRANCH   1   3
HETATM    3  O2  LIG X 999      44.929 132.092  19.167  1.00  0.00    -0.276 OA
BRANCH   3   4
HETATM    4  C2  LIG X 999      45.009 131.191  18.066  1.00  0.00     0.332 C 
BRANCH   4   5
HETATM    5  N1  LIG X 999      44.040 131.574  17.043  1.00  0.00    -0.238 NA
HETATM    6  C1  LIG X 999      44.148 131.429  15.750  1.00  0.00     0.190 C 
BRANCH   6   7
HETATM    7  O1  LIG X 999      43.104 131.876  14.944  1.00  0.00    -0.343 OA
HETATM    8  H1  LIG X 999      42.856 132.858  14.904  1.00  0.00     0.219 HD
ENDBRANCH   6   7
BRANCH   6   9
HETATM    9  C14 LIG X 999      45.322 130.815  15.080  1.00  0.00     0.130 A 
HETATM   10  N2  LIG X 999      46.099 131.408  14.151  1.00  0.00    -0.169 NA
HETATM   11  N3  LIG X 999      47.028 130.539  13.794  1.00  0.00    -0.285 N 
HETATM   12  C15 LIG X 999      48.092 130.833  12.845  1.00  0.00     0.179 C 
HETATM   13  C16 LIG X 999      46.886 129.399  14.493  1.00  0.00     0.114 A 
HETATM   14  C17 LIG X 999      45.795 129.537  15.326  1.00  0.00     0.056 A 
ENDBRANCH   6   9
ENDBRANCH   4   5
ENDBRANCH   3   4
ENDBRANCH   1   3
BRANCH   1  15
HETATM   15  O4  LIG X 999      44.469 131.588  21.474  1.00  0.00    -0.256 OA
BRANCH  15  16
HETATM   16  C4  LIG X 999      44.182 130.384  22.134  1.00  0.00     0.082 A 
HETATM   17  C5  LIG X 999      43.075 130.340  22.989  1.00  0.00     0.038 A 
HETATM   18  C6  LIG X 999      42.753 129.170  23.681  1.00  0.00     0.015 A 
HETATM   19  C7  LIG X 999      43.549 128.024  23.537  1.00  0.00    -0.026 A 
HETATM   20  C8  LIG X 999      43.236 126.844  24.229  1.00  0.00     0.012 A 
HETATM   21  C12 LIG X 999      44.682 128.062  22.690  1.00  0.00    -0.023 A 
HETATM   22  C9  LIG X 999      44.044 125.712  24.084  1.00  0.00     0.001 A 
HETATM   23  C10 LIG X 999      45.165 125.750  23.251  1.00  0.00     0.001 A 
HETATM   24  C11 LIG X 999      45.486 126.920  22.555  1.00  0.00     0.012 A 
HETATM   25  C13 LIG X 999      44.994 129.243  21.998  1.00  0.00     0.049 A 
ENDBRANCH  15  16
ENDBRANCH   1  15
TORSDOF 7
