REMARK VINA RESULT:      -5.2      7.057      8.834
REMARK  1 active torsions:
REMARK  status: ('A' for Active; 'I' for Inactive)
REMARK    1  A    between atoms: N1_2  and  C1_3 
ROOT
HETATM    1  C1  LIG X 999      43.909 127.221  23.324  1.00  0.00     0.120 C 
HETATM    2  C2  LIG X 999      42.728 127.689  23.892  1.00  0.00     0.057 C 
HETATM    3  C3  LIG X 999      41.579 126.887  23.904  1.00  0.00    -0.045 C 
HETATM    4  C4  LIG X 999      40.287 127.586  24.251  1.00  0.00     0.049 C 
HETATM    5  C5  LIG X 999      41.667 125.530  23.456  1.00  0.00     0.008 C 
HETATM    6  C6  LIG X 999      40.640 124.539  23.611  1.00  0.00    -0.013 C 
HETATM    7  C7  LIG X 999      39.590 124.645  24.554  1.00  0.00     0.013 C 
HETATM    8  C8  LIG X 999      38.582 123.680  24.624  1.00  0.00     0.001 C 
HETATM    9  C9  LIG X 999      38.621 122.562  23.797  1.00  0.00     0.001 C 
HETATM   10  C10 LIG X 999      39.697 122.375  22.933  1.00  0.00     0.012 C 
HETATM   11  C11 LIG X 999      40.725 123.330  22.863  1.00  0.00    -0.025 C 
HETATM   12  C12 LIG X 999      41.857 123.056  22.094  1.00  0.00     0.014 C 
HETATM   13  C13 LIG X 999      42.934 123.932  22.095  1.00  0.00     0.031 C 
HETATM   14  C14 LIG X 999      42.861 125.155  22.772  1.00  0.00     0.045 C 
HETATM   15  N2  LIG X 999      43.941 125.990  22.746  1.00  0.00    -0.341 N 
HETATM   16  H12 LIG X 999      44.819 125.678  22.271  1.00  0.00     0.167 HD
ENDROOT
BRANCH   1  17
HETATM   17  N1  LIG X 999      44.958 127.982  23.313  1.00  0.00    -0.284 NA
HETATM   18  H1  LIG X 999      45.441 128.277  24.192  1.00  0.00     0.188 HD
ENDBRANCH   1  17
TORSDOF 1
