REMARK VINA RESULT:      -5.7      7.714      8.732
REMARK  4 active torsions:
REMARK  status: ('A' for Active; 'I' for Inactive)
REMARK    1  A    between atoms: C7_9  and  C8_10 
REMARK    2  A    between atoms: C9_13  and  N4_14 
REMARK    3  A    between atoms: C13_21  and  O2_22 
REMARK    4  A    between atoms: N7_24  and  C14_25 
ROOT
HETATM    1  N4  LIG X 999      50.222 124.079  20.767  1.00  0.00    -0.023 NA
HETATM    2  N5  LIG X 999      50.427 123.906  19.565  1.00  0.00    -0.158 NA
HETATM    3  N6  LIG X 999      50.633 123.732  18.365  1.00  0.00     0.068 N 
ENDROOT
BRANCH   1   4
HETATM    4  C9  LIG X 999      49.031 123.588  21.380  1.00  0.00     0.326 A 
HETATM    5  N3  LIG X 999      48.998 122.512  22.183  1.00  0.00    -0.099 NA
HETATM    6  N2  LIG X 999      47.734 122.375  22.552  1.00  0.00    -0.119 NA
HETATM    7  C8  LIG X 999      47.050 123.381  21.964  1.00  0.00     0.205 A 
HETATM    8  O1  LIG X 999      47.845 124.126  21.233  1.00  0.00    -0.252 OA
BRANCH   7   9
HETATM    9  C7  LIG X 999      45.591 123.570  22.087  1.00  0.00     0.032 A 
HETATM   10  C6  LIG X 999      45.004 124.707  22.722  1.00  0.00     0.020 A 
HETATM   11  C1  LIG X 999      45.670 125.781  23.531  1.00  0.00     0.060 A 
HETATM   12  C5  LIG X 999      43.626 124.809  22.649  1.00  0.00     0.019 A 
HETATM   13  N1  LIG X 999      46.927 125.716  23.832  1.00  0.00    -0.299 NA
HETATM   14  C2  LIG X 999      44.827 126.895  24.087  1.00  0.00     0.034 A 
HETATM   15  H1  LIG X 999      47.393 126.439  24.425  1.00  0.00     0.187 HD
HETATM   16  C3  LIG X 999      43.487 126.905  23.930  1.00  0.00     0.033 A 
HETATM   17  C4  LIG X 999      42.863 125.799  23.184  1.00  0.00     0.048 A 
HETATM   18  N7  LIG X 999      41.554 125.545  22.947  1.00  0.00    -0.327 N 
HETATM   19  C13 LIG X 999      41.519 124.362  22.272  1.00  0.00     0.154 A 
HETATM   20  C12 LIG X 999      42.810 123.892  22.070  1.00  0.00     0.028 A 
HETATM   21  C11 LIG X 999      43.334 122.746  21.482  1.00  0.00     0.018 A 
HETATM   22  C10 LIG X 999      44.738 122.592  21.490  1.00  0.00     0.018 A 
BRANCH  18  23
HETATM   23  C14 LIG X 999      40.403 126.314  23.418  1.00  0.00     0.127 C 
HETATM   24  C15 LIG X 999      39.667 125.549  24.511  1.00  0.00     0.027 C 
ENDBRANCH  18  23
BRANCH  19  25
HETATM   25  O2  LIG X 999      40.345 123.728  21.870  1.00  0.00    -0.345 OA
HETATM   26  H6  LIG X 999      39.867 124.002  21.020  1.00  0.00     0.219 HD
ENDBRANCH  19  25
ENDBRANCH   7   9
ENDBRANCH   1   4
TORSDOF 4
