REMARK VINA RESULT:      -4.7      6.955      8.206
REMARK  1 active torsions:
REMARK  status: ('A' for Active; 'I' for Inactive)
REMARK    1  A    between atoms: N1_2  and  C1_3 
ROOT
HETATM    1  C1  LIG X 999      40.673 124.874  23.041  1.00  0.00     0.143 C 
HETATM    2  N2  LIG X 999      41.289 123.780  22.534  1.00  0.00    -0.229 NA
HETATM    3  C2  LIG X 999      42.639 123.701  22.410  1.00  0.00     0.070 C 
HETATM    4  C3  LIG X 999      43.193 122.510  21.941  1.00  0.00     0.033 C 
HETATM    5  C4  LIG X 999      44.568 122.375  21.806  1.00  0.00     0.014 C 
HETATM    6  C5  LIG X 999      45.409 123.469  22.030  1.00  0.00    -0.025 C 
HETATM    7  C6  LIG X 999      46.785 123.337  21.782  1.00  0.00     0.012 C 
HETATM    8  C7  LIG X 999      47.624 124.443  21.870  1.00  0.00     0.001 C 
HETATM    9  C8  LIG X 999      47.094 125.696  22.163  1.00  0.00     0.001 C 
HETATM   10  C9  LIG X 999      45.729 125.840  22.426  1.00  0.00     0.013 C 
HETATM   11  C10 LIG X 999      44.867 124.719  22.452  1.00  0.00    -0.013 C 
HETATM   12  C11 LIG X 999      43.469 124.800  22.773  1.00  0.00     0.010 C 
HETATM   13  C12 LIG X 999      42.836 125.883  23.464  1.00  0.00    -0.045 C 
HETATM   14  C13 LIG X 999      43.571 126.921  24.279  1.00  0.00     0.049 C 
HETATM   15  C14 LIG X 999      41.434 125.934  23.525  1.00  0.00     0.059 C 
ENDROOT
BRANCH   1  16
HETATM   16  N1  LIG X 999      39.381 124.916  23.115  1.00  0.00    -0.282 NA
HETATM   17  H1  LIG X 999      38.805 124.044  23.116  1.00  0.00     0.188 HD
ENDBRANCH   1  16
TORSDOF 1
