REMARK VINA RESULT:      -5.9      5.194      8.915
REMARK  7 active torsions:
REMARK  status: ('A' for Active; 'I' for Inactive)
REMARK    1  A    between atoms: O1_2  and  C1_3 
REMARK    2  A    between atoms: C1_3  and  O2_18 
REMARK    3  A    between atoms: N1_4  and  C2_5 
REMARK    4  A    between atoms: C3_6  and  N2_7 
REMARK    5  A    between atoms: O2_18  and  C12_19 
REMARK    6  A    between atoms: C12_19  and  C14_21 
REMARK    7  A    between atoms: C14_21  and  O3_22 
ROOT
HETATM    1  N2  LIG X 999      44.051 125.246  22.282  1.00  0.00    -0.070 NA
HETATM    2  N3  LIG X 999      45.009 124.503  22.497  1.00  0.00    -0.162 NA
HETATM    3  N4  LIG X 999      45.972 123.767  22.711  1.00  0.00     0.068 N 
ENDROOT
BRANCH   1   4
HETATM    4  C3  LIG X 999      42.793 125.112  22.959  1.00  0.00     0.122 A 
HETATM    5  C2  LIG X 999      42.219 126.150  23.740  1.00  0.00     0.094 A 
HETATM    6  C11 LIG X 999      40.929 125.990  24.264  1.00  0.00     0.046 A 
HETATM    7  C10 LIG X 999      40.227 124.791  24.082  1.00  0.00    -0.024 A 
HETATM    8  C5  LIG X 999      40.822 123.735  23.356  1.00  0.00    -0.024 A 
HETATM    9  C9  LIG X 999      38.943 124.625  24.625  1.00  0.00     0.012 A 
HETATM   10  C4  LIG X 999      42.099 123.905  22.805  1.00  0.00     0.049 A 
HETATM   11  C6  LIG X 999      40.122 122.530  23.185  1.00  0.00     0.012 A 
HETATM   12  C7  LIG X 999      38.844 122.376  23.729  1.00  0.00     0.001 A 
HETATM   13  C8  LIG X 999      38.256 123.421  24.447  1.00  0.00     0.001 A 
BRANCH   5  14
HETATM   14  N1  LIG X 999      42.919 127.362  24.050  1.00  0.00    -0.200 NA
HETATM   15  C1  LIG X 999      42.414 128.553  23.921  1.00  0.00     0.285 C 
BRANCH  15  16
HETATM   16  O1  LIG X 999      41.111 128.716  23.456  1.00  0.00    -0.325 OA
HETATM   17  H1  LIG X 999      40.630 129.599  23.570  1.00  0.00     0.221 HD
ENDBRANCH  15  16
BRANCH  15  18
HETATM   18  O2  LIG X 999      43.165 129.698  24.233  1.00  0.00    -0.308 OA
BRANCH  18  19
HETATM   19  C12 LIG X 999      43.431 130.817  23.373  1.00  0.00     0.152 C 
HETATM   20  C13 LIG X 999      43.930 132.044  24.146  1.00  0.00     0.042 C 
BRANCH  19  21
HETATM   21  C14 LIG X 999      44.339 130.435  22.191  1.00  0.00     0.199 C 
BRANCH  21  22
HETATM   22  O3  LIG X 999      43.869 131.002  20.986  1.00  0.00    -0.393 OA
HETATM   23  C15 LIG X 999      44.955 131.530  20.260  1.00  0.00     0.201 C 
ENDBRANCH  21  22
ENDBRANCH  19  21
ENDBRANCH  18  19
ENDBRANCH  15  18
ENDBRANCH   5  14
ENDBRANCH   1   4
TORSDOF 7
