REMARK VINA RESULT:      -5.0      4.572      7.053
REMARK  2 active torsions:
REMARK  status: ('A' for Active; 'I' for Inactive)
REMARK    1  A    between atoms: C2_2  and  N1_3 
REMARK    2  A    between atoms: C3_6  and  O1_7 
ROOT
HETATM    1  N1  LIG X 999      42.904 131.844  22.663  1.00  0.00    -0.070 NA
HETATM    2  N2  LIG X 999      42.297 132.363  21.726  1.00  0.00    -0.162 NA
HETATM    3  N3  LIG X 999      41.691 132.885  20.790  1.00  0.00     0.068 N 
ENDROOT
BRANCH   1   4
HETATM    4  C2  LIG X 999      43.551 130.567  22.549  1.00  0.00     0.127 A 
HETATM    5  C1  LIG X 999      43.035 129.426  23.193  1.00  0.00     0.049 A 
HETATM    6  C11 LIG X 999      43.679 128.189  23.069  1.00  0.00    -0.023 A 
HETATM    7  C6  LIG X 999      44.862 128.087  22.286  1.00  0.00    -0.022 A 
HETATM    8  C10 LIG X 999      43.167 127.047  23.716  1.00  0.00     0.021 A 
HETATM    9  C5  LIG X 999      45.370 129.226  21.648  1.00  0.00     0.051 A 
HETATM   10  C7  LIG X 999      45.514 126.844  22.162  1.00  0.00     0.021 A 
HETATM   11  C3  LIG X 999      44.719 130.468  21.774  1.00  0.00     0.100 A 
HETATM   12  C8  LIG X 999      44.970 125.735  22.811  1.00  0.00    -0.024 A 
HETATM   13  C9  LIG X 999      43.838 125.832  23.561  1.00  0.00    -0.024 A 
HETATM   14  C15 LIG X 999      45.493 124.352  22.839  1.00  0.00     0.276 C 
HETATM   15  C12 LIG X 999      43.497 124.524  24.160  1.00  0.00     0.276 C 
HETATM   16  N4  LIG X 999      44.462 123.545  23.566  1.00  0.00    -0.067 N 
HETATM   17  C13 LIG X 999      43.757 122.650  22.618  1.00  0.00     0.272 C 
HETATM   18  C14 LIG X 999      45.092 122.725  24.625  1.00  0.00     0.272 C 
BRANCH  11  19
HETATM   19  O1  LIG X 999      45.203 131.628  21.146  1.00  0.00    -0.353 OA
HETATM   20  C4  LIG X 999      45.015 131.940  19.770  1.00  0.00     0.210 C 
ENDBRANCH  11  19
ENDBRANCH   1   4
TORSDOF 2
