REMARK VINA RESULT:      -6.0      2.116      4.642
REMARK  7 active torsions:
REMARK  status: ('A' for Active; 'I' for Inactive)
REMARK    1  A    between atoms: C14_14  and  N1_15 
REMARK    2  A    between atoms: N1_15  and  C15_17 
REMARK    3  A    between atoms: C15_17  and  C16_18 
REMARK    4  A    between atoms: C16_18  and  C17_19 
REMARK    5  A    between atoms: C17_19  and  C18_20 
REMARK    6  A    between atoms: C18_20  and  C19_21 
REMARK    7  A    between atoms: C19_21  and  N2_22 
ROOT
HETATM    1  C1  LIG X 999      48.198 130.043  13.045  1.00  0.00     0.001 C 
HETATM    2  C2  LIG X 999      47.239 130.962  12.631  1.00  0.00     0.001 C 
HETATM    3  C3  LIG X 999      46.194 131.325  13.485  1.00  0.00     0.013 C 
HETATM    4  C4  LIG X 999      46.055 130.734  14.763  1.00  0.00    -0.013 C 
HETATM    5  C5  LIG X 999      47.112 129.890  15.210  1.00  0.00    -0.025 C 
HETATM    6  C6  LIG X 999      48.149 129.523  14.336  1.00  0.00     0.012 C 
HETATM    7  C7  LIG X 999      47.159 129.466  16.540  1.00  0.00     0.014 C 
HETATM    8  C8  LIG X 999      46.209 129.909  17.448  1.00  0.00     0.031 C 
HETATM    9  C9  LIG X 999      45.125 130.691  17.030  1.00  0.00     0.045 C 
HETATM   10  C10 LIG X 999      44.970 131.026  15.656  1.00  0.00     0.008 C 
HETATM   11  C11 LIG X 999      43.718 131.596  15.270  1.00  0.00    -0.045 C 
HETATM   12  C12 LIG X 999      43.196 131.614  13.854  1.00  0.00     0.049 C 
HETATM   13  C13 LIG X 999      42.834 132.048  16.260  1.00  0.00     0.056 C 
HETATM   14  C14 LIG X 999      43.100 131.821  17.620  1.00  0.00     0.101 C 
HETATM   15  N3  LIG X 999      44.213 131.108  17.956  1.00  0.00    -0.342 N 
HETATM   16  H28 LIG X 999      44.382 130.879  18.963  1.00  0.00     0.167 HD
ENDROOT
BRANCH  14  17
HETATM   17  N1  LIG X 999      42.294 132.234  18.572  1.00  0.00    -0.376 N 
HETATM   18  H11 LIG X 999      41.267 132.274  18.376  1.00  0.00     0.161 HD
BRANCH  17  19
HETATM   19  C15 LIG X 999      42.691 132.663  19.918  1.00  0.00     0.121 C 
BRANCH  19  20
HETATM   20  C16 LIG X 999      43.071 131.456  20.785  1.00  0.00     0.020 C 
BRANCH  20  21
HETATM   21  C17 LIG X 999      42.848 131.756  22.275  1.00  0.00     0.004 C 
BRANCH  21  22
HETATM   22  C18 LIG X 999      43.572 130.761  23.200  1.00  0.00     0.035 C 
BRANCH  22  23
HETATM   23  C19 LIG X 999      42.915 129.366  23.252  1.00  0.00     0.216 C 
HETATM   24  C21 LIG X 999      43.858 128.371  23.951  1.00  0.00     0.042 C 
BRANCH  23  25
HETATM   25  N2  LIG X 999      41.616 129.457  23.947  1.00  0.00     0.083 N 
HETATM   26  H21 LIG X 999      41.745 129.830  24.916  1.00  0.00     0.315 HD
HETATM   27  C20 LIG X 999      40.940 128.159  24.027  1.00  0.00     0.307 C 
ENDBRANCH  23  25
ENDBRANCH  22  23
ENDBRANCH  21  22
ENDBRANCH  20  21
ENDBRANCH  19  20
ENDBRANCH  17  19
ENDBRANCH  14  17
TORSDOF 7
