REMARK VINA RESULT:      -6.1      2.038      5.684
REMARK  3 active torsions:
REMARK  status: ('A' for Active; 'I' for Inactive)
REMARK    1  A    between atoms: C3_3  and  O1_4 
REMARK    2  A    between atoms: C3_3  and  C4_5 
REMARK    3  A    between atoms: C3_3  and  C14_15 
ROOT
HETATM    1  C1  LIG X 999      41.834 131.755  18.714  1.00  0.00     0.015 C 
HETATM    2  C2  LIG X 999      43.033 131.840  18.823  1.00  0.00    -0.073 C 
HETATM    3  C3  LIG X 999      44.509 131.949  18.957  1.00  0.00     0.154 C 
ENDROOT
BRANCH   3   4
HETATM    4  O1  LIG X 999      44.826 133.325  18.925  1.00  0.00    -0.372 OA
HETATM    5  H2  LIG X 999      45.792 133.420  18.703  1.00  0.00     0.212 HD
ENDBRANCH   3   4
BRANCH   3   6
HETATM    6  C4  LIG X 999      45.192 131.233  17.775  1.00  0.00    -0.010 A 
HETATM    7  C5  LIG X 999      45.455 129.846  17.808  1.00  0.00     0.012 A 
HETATM    8  C6  LIG X 999      46.099 129.209  16.745  1.00  0.00     0.013 A 
HETATM    9  C7  LIG X 999      46.509 129.943  15.626  1.00  0.00    -0.026 A 
HETATM   10  C8  LIG X 999      47.159 129.311  14.555  1.00  0.00     0.012 A 
HETATM   11  C12 LIG X 999      46.269 131.335  15.578  1.00  0.00    -0.025 A 
HETATM   12  C9  LIG X 999      47.569 130.055  13.445  1.00  0.00     0.001 A 
HETATM   13  C10 LIG X 999      47.335 131.432  13.398  1.00  0.00     0.001 A 
HETATM   14  C11 LIG X 999      46.687 132.073  14.460  1.00  0.00     0.012 A 
HETATM   15  C13 LIG X 999      45.620 131.967  16.648  1.00  0.00     0.023 A 
ENDBRANCH   3   6
BRANCH   3  16
HETATM   16  C14 LIG X 999      44.981 131.363  20.352  1.00  0.00    -0.004 C 
HETATM   17  C15 LIG X 999      45.984 132.321  21.039  1.00  0.00     0.019 C 
HETATM   18  C16 LIG X 999      43.767 131.197  21.304  1.00  0.00     0.019 C 
HETATM   19  C17 LIG X 999      45.663 129.981  20.202  1.00  0.00     0.019 C 
ENDBRANCH   3  16
TORSDOF 3
