REMARK VINA RESULT:      -8.1      0.000      0.000
REMARK  5 active torsions:
REMARK  status: ('A' for Active; 'I' for Inactive)
REMARK    1  A    between atoms: O1_2  and  S1_3 
REMARK    2  A    between atoms: S1_3  and  C1_4 
REMARK    3  A    between atoms: S1_3  and  C11_14 
REMARK    4  A    between atoms: C11_14  and  C12_15 
REMARK    5  A    between atoms: C12_15  and  N1_16 
ROOT
HETATM    1  N1  LIG X 999      47.472 129.325  14.376  1.00  0.00    -0.115 NA
HETATM    2  N2  LIG X 999      47.569 130.226  13.542  1.00  0.00    -0.168 NA
HETATM    3  N3  LIG X 999      47.667 131.125  12.709  1.00  0.00     0.068 N 
ENDROOT
BRANCH   1   4
HETATM    4  C12 LIG X 999      46.636 129.496  15.556  1.00  0.00     0.201 C 
BRANCH   4   5
HETATM    5  C11 LIG X 999      45.200 129.814  15.146  1.00  0.00     0.121 C 
BRANCH   5   6
HETATM    6  S1  LIG X 999      44.752 131.483  15.597  1.00  0.00    -0.056 S 
BRANCH   6   7
HETATM    7  O1  LIG X 999      46.017 132.559  15.338  1.00  0.00    -0.336 OA
HETATM    8  H1  LIG X 999      46.311 132.828  16.245  1.00  0.00     0.227 HD
ENDBRANCH   6   7
BRANCH   6   9
HETATM    9  C1  LIG X 999      44.151 131.593  17.241  1.00  0.00     0.017 A 
HETATM   10  C2  LIG X 999      42.809 131.913  17.470  1.00  0.00     0.021 A 
HETATM   11  C3  LIG X 999      42.315 131.990  18.775  1.00  0.00     0.013 A 
HETATM   12  C4  LIG X 999      43.163 131.745  19.865  1.00  0.00    -0.026 A 
HETATM   13  C5  LIG X 999      42.678 131.818  21.181  1.00  0.00     0.012 A 
HETATM   14  C9  LIG X 999      44.522 131.418  19.636  1.00  0.00    -0.025 A 
HETATM   15  C6  LIG X 999      43.534 131.569  22.258  1.00  0.00     0.001 A 
HETATM   16  C7  LIG X 999      44.876 131.247  22.032  1.00  0.00     0.001 A 
HETATM   17  C8  LIG X 999      45.371 131.171  20.727  1.00  0.00     0.012 A 
HETATM   18  C10 LIG X 999      45.007 131.344  18.322  1.00  0.00     0.032 A 
ENDBRANCH   6   9
ENDBRANCH   5   6
ENDBRANCH   4   5
ENDBRANCH   1   4
TORSDOF 5
