REMARK VINA RESULT:      -8.7      1.038      2.527
REMARK  4 active torsions:
REMARK  status: ('A' for Active; 'I' for Inactive)
REMARK    1  A    between atoms: C3_3  and  O1_4 
REMARK    2  A    between atoms: O1_4  and  C4_5 
REMARK    3  A    between atoms: C4_5  and  O2_6 
REMARK    4  A    between atoms: C5_8  and  C6_9 
ROOT
HETATM    1  C1  LIG X 999      47.186 130.975  13.332  1.00  0.00     0.014 C 
HETATM    2  C2  LIG X 999      46.157 131.054  13.955  1.00  0.00    -0.091 C 
HETATM    3  C3  LIG X 999      44.907 131.148  14.712  1.00  0.00     0.270 C 
ENDROOT
BRANCH   3   4
HETATM    4  O1  LIG X 999      44.957 130.245  15.807  1.00  0.00    -0.319 OA
BRANCH   4   5
HETATM    5  C4  LIG X 999      46.012 130.235  16.725  1.00  0.00     0.179 C 
HETATM    6  C5  LIG X 999      45.828 130.712  17.962  1.00  0.00     0.075 C 
BRANCH   5   7
HETATM    7  O2  LIG X 999      47.253 129.718  16.350  1.00  0.00    -0.341 OA
HETATM    8  H4  LIG X 999      47.430 128.720  16.317  1.00  0.00     0.220 HD
ENDBRANCH   5   7
BRANCH   6   9
HETATM    9  C6  LIG X 999      44.524 131.234  18.429  1.00  0.00    -0.021 A 
HETATM   10  C7  LIG X 999      43.599 131.632  17.451  1.00  0.00     0.012 A 
HETATM   11  C8  LIG X 999      42.369 132.180  17.815  1.00  0.00     0.002 A 
HETATM   12  C9  LIG X 999      42.036 132.330  19.160  1.00  0.00     0.012 A 
HETATM   13  C10 LIG X 999      42.925 131.910  20.160  1.00  0.00    -0.025 A 
HETATM   14  C11 LIG X 999      42.571 132.040  21.512  1.00  0.00     0.012 A 
HETATM   15  C15 LIG X 999      44.177 131.341  19.803  1.00  0.00    -0.015 A 
HETATM   16  C12 LIG X 999      43.437 131.595  22.511  1.00  0.00     0.001 A 
HETATM   17  C13 LIG X 999      44.656 131.006  22.171  1.00  0.00     0.001 A 
HETATM   18  C14 LIG X 999      45.024 130.872  20.830  1.00  0.00     0.013 A 
ENDBRANCH   6   9
ENDBRANCH   4   5
ENDBRANCH   3   4
TORSDOF 4
