REMARK VINA RESULT:      -4.8      3.661      7.268
REMARK  4 active torsions:
REMARK  status: ('A' for Active; 'I' for Inactive)
REMARK    1  A    between atoms: C5_5  and  N1_6 
REMARK    2  A    between atoms: C7_10  and  S1_11 
REMARK    3  A    between atoms: S1_11  and  C8_14 
REMARK    4  A    between atoms: C8_14  and  C9_15 
ROOT
HETATM    1  N1  LIG X 999      43.566 132.329  15.078  1.00  0.00    -0.072 NA
HETATM    2  N2  LIG X 999      43.039 131.767  14.117  1.00  0.00    -0.162 NA
HETATM    3  N3  LIG X 999      42.512 131.207  13.157  1.00  0.00     0.068 N 
ENDROOT
BRANCH   1   4
HETATM    4  C5  LIG X 999      44.498 131.664  15.947  1.00  0.00     0.105 A 
HETATM    5  C4  LIG X 999      45.588 130.951  15.396  1.00  0.00     0.006 A 
HETATM    6  C3  LIG X 999      45.787 130.876  14.002  1.00  0.00     0.014 A 
HETATM    7  C13 LIG X 999      46.502 130.291  16.257  1.00  0.00    -0.022 A 
HETATM    8  C2  LIG X 999      46.867 130.160  13.479  1.00  0.00     0.001 A 
HETATM    9  C1  LIG X 999      47.761 129.512  14.333  1.00  0.00     0.001 A 
HETATM   10  C14 LIG X 999      47.582 129.575  15.716  1.00  0.00     0.012 A 
HETATM   11  C12 LIG X 999      46.324 130.352  17.645  1.00  0.00     0.035 A 
HETATM   12  C7  LIG X 999      45.248 131.061  18.190  1.00  0.00     0.063 A 
HETATM   13  C6  LIG X 999      44.339 131.706  17.345  1.00  0.00     0.058 A 
BRANCH  12  14
HETATM   14  S1  LIG X 999      45.012 131.097  19.936  1.00  0.00     0.186 S 
HETATM   15  O1  LIG X 999      45.779 132.246  20.528  1.00  0.00    -0.222 OA
HETATM   16  O2  LIG X 999      45.519 129.820  20.545  1.00  0.00    -0.222 OA
BRANCH  14  17
HETATM   17  C8  LIG X 999      43.279 131.291  20.304  1.00  0.00     0.239 C 
BRANCH  17  18
HETATM   18  C9  LIG X 999      43.094 131.497  21.742  1.00  0.00    -0.092 C 
HETATM   19  C10 LIG X 999      42.955 131.657  22.929  1.00  0.00    -0.110 C 
HETATM   20  C11 LIG X 999      42.796 131.847  24.370  1.00  0.00     0.112 C 
ENDBRANCH  17  18
ENDBRANCH  14  17
ENDBRANCH  12  14
ENDBRANCH   1   4
TORSDOF 4
