REMARK VINA RESULT:      -4.8      7.966      8.842
REMARK  1 active torsions:
REMARK  status: ('A' for Active; 'I' for Inactive)
REMARK    1  A    between atoms: C12_14  and  N2_15 
ROOT
HETATM    1  C1  LIG X 999      46.276 124.962  22.363  1.00  0.00     0.001 A 
HETATM    2  C2  LIG X 999      45.201 124.079  22.356  1.00  0.00     0.001 A 
HETATM    3  C3  LIG X 999      43.923 124.514  22.718  1.00  0.00     0.013 A 
HETATM    4  C4  LIG X 999      43.695 125.856  23.096  1.00  0.00    -0.012 A 
HETATM    5  C5  LIG X 999      44.812 126.752  23.098  1.00  0.00    -0.025 A 
HETATM    6  C6  LIG X 999      46.086 126.291  22.730  1.00  0.00     0.012 A 
HETATM    7  C7  LIG X 999      44.649 128.102  23.465  1.00  0.00     0.013 A 
HETATM    8  C8  LIG X 999      43.398 128.590  23.835  1.00  0.00     0.021 A 
HETATM    9  C9  LIG X 999      42.316 127.720  23.834  1.00  0.00     0.020 A 
HETATM   10  S1  LIG X 999      40.742 128.114  24.243  1.00  0.00    -0.076 SA
HETATM   11  C10 LIG X 999      40.127 126.574  23.983  1.00  0.00     0.118 A 
HETATM   12  C11 LIG X 999      38.739 126.249  24.178  1.00  0.00     0.109 C 
HETATM   13  N1  LIG X 999      37.621 125.995  24.336  1.00  0.00    -0.191 NA
HETATM   14  C12 LIG X 999      41.159 125.715  23.564  1.00  0.00     0.133 A 
HETATM   15  C13 LIG X 999      42.420 126.372  23.478  1.00  0.00     0.026 A 
ENDROOT
BRANCH  14  16
HETATM   16  N2  LIG X 999      40.971 124.325  23.257  1.00  0.00    -0.070 NA
HETATM   17  N3  LIG X 999      40.292 123.561  23.945  1.00  0.00    -0.162 NA
HETATM   18  N4  LIG X 999      39.617 122.789  24.625  1.00  0.00     0.068 N 
ENDBRANCH  14  16
TORSDOF 1
