REMARK VINA RESULT:      -4.9      8.128      9.082
REMARK  1 active torsions:
REMARK  status: ('A' for Active; 'I' for Inactive)
REMARK    1  A    between atoms: C5_8  and  O1_9 
ROOT
HETATM    1  H1  LIG X 999      51.518 139.634  21.261  1.00  0.00     0.187 HD
HETATM    2  N1  LIG X 999      50.681 139.185  20.831  1.00  0.00    -0.300 NA
HETATM    3  C1  LIG X 999      50.226 138.029  21.202  1.00  0.00     0.059 A 
HETATM    4  C2  LIG X 999      49.012 137.463  20.523  1.00  0.00     0.034 A 
HETATM    5  C3  LIG X 999      48.505 136.261  20.878  1.00  0.00     0.035 A 
HETATM    6  C4  LIG X 999      49.172 135.510  21.955  1.00  0.00     0.071 A 
HETATM    7  N2  LIG X 999      48.851 134.302  22.476  1.00  0.00    -0.224 NA
HETATM    8  C5  LIG X 999      49.796 134.089  23.437  1.00  0.00     0.174 A 
HETATM    9  C6  LIG X 999      50.687 135.148  23.509  1.00  0.00     0.030 A 
HETATM   10  C7  LIG X 999      51.805 135.432  24.293  1.00  0.00     0.017 A 
HETATM   11  C8  LIG X 999      52.470 136.659  24.057  1.00  0.00     0.002 A 
HETATM   12  C9  LIG X 999      52.006 137.561  23.058  1.00  0.00     0.015 A 
HETATM   13  C10 LIG X 999      50.867 137.228  22.289  1.00  0.00     0.005 A 
HETATM   14  C11 LIG X 999      50.266 136.019  22.569  1.00  0.00     0.020 A 
ENDROOT
BRANCH   8  15
HETATM   15  O1  LIG X 999      49.844 132.950  24.233  1.00  0.00    -0.344 OA
HETATM   16  H4  LIG X 999      49.683 132.035  23.832  1.00  0.00     0.219 HD
ENDBRANCH   8  15
TORSDOF 1
