REMARK VINA RESULT:      -6.3      2.268      4.681
REMARK  1 active torsions:
REMARK  status: ('A' for Active; 'I' for Inactive)
REMARK    1  A    between atoms: C11_13  and  O1_14 
ROOT
HETATM    1  H1  LIG X 999      42.448 132.015  23.193  1.00  0.00     0.187 HD
HETATM    2  N1  LIG X 999      42.361 132.073  22.153  1.00  0.00    -0.300 NA
HETATM    3  C1  LIG X 999      43.315 131.684  21.368  1.00  0.00     0.059 A 
HETATM    4  C2  LIG X 999      44.600 131.130  21.924  1.00  0.00     0.034 A 
HETATM    5  C3  LIG X 999      45.598 130.724  21.103  1.00  0.00     0.033 A 
HETATM    6  C4  LIG X 999      45.394 130.837  19.648  1.00  0.00     0.046 A 
HETATM    7  C5  LIG X 999      44.237 131.336  19.150  1.00  0.00     0.018 A 
HETATM    8  C6  LIG X 999      43.165 131.775  19.891  1.00  0.00     0.005 A 
HETATM    9  C7  LIG X 999      42.050 132.259  19.175  1.00  0.00     0.015 A 
HETATM   10  C8  LIG X 999      42.080 132.274  17.753  1.00  0.00     0.002 A 
HETATM   11  C9  LIG X 999      43.217 131.807  17.045  1.00  0.00     0.017 A 
HETATM   12  C10 LIG X 999      44.293 131.337  17.798  1.00  0.00     0.028 A 
HETATM   13  C11 LIG X 999      45.541 130.816  17.491  1.00  0.00     0.151 A 
HETATM   14  N2  LIG X 999      46.222 130.507  18.631  1.00  0.00    -0.336 N 
HETATM   15  H8  LIG X 999      47.181 130.100  18.705  1.00  0.00     0.168 HD
ENDROOT
BRANCH  13  16
HETATM   16  O1  LIG X 999      46.042 130.628  16.208  1.00  0.00    -0.345 OA
HETATM   17  H7  LIG X 999      45.599 131.070  15.411  1.00  0.00     0.219 HD
ENDBRANCH  13  16
TORSDOF 1
