REMARK VINA RESULT:      -5.0      4.945      7.603
REMARK  2 active torsions:
REMARK  status: ('A' for Active; 'I' for Inactive)
REMARK    1  A    between atoms: C2_5  and  C3_6 
REMARK    2  A    between atoms: N3_18  and  C13_19 
ROOT
HETATM    1  H1  LIG X 999      46.868 125.138  23.421  1.00  0.00     0.190 HD
HETATM    2  N1  LIG X 999      45.847 124.979  23.264  1.00  0.00    -0.260 NA
HETATM    3  C1  LIG X 999      45.030 125.976  23.160  1.00  0.00     0.268 A 
HETATM    4  O1  LIG X 999      45.392 127.236  23.251  1.00  0.00    -0.257 OA
HETATM    5  C2  LIG X 999      44.276 127.924  23.111  1.00  0.00     0.177 A 
HETATM    6  N2  LIG X 999      43.223 127.095  22.943  1.00  0.00    -0.269 N 
HETATM    7  H9  LIG X 999      42.226 127.360  22.781  1.00  0.00     0.190 HD
HETATM    8  N3  LIG X 999      43.701 125.861  22.967  1.00  0.00    -0.212 N 
ENDROOT
BRANCH   5   9
HETATM    9  C3  LIG X 999      44.180 129.401  23.168  1.00  0.00     0.028 A 
HETATM   10  C4  LIG X 999      43.648 129.980  24.334  1.00  0.00     0.017 A 
HETATM   11  C5  LIG X 999      43.593 131.364  24.486  1.00  0.00     0.002 A 
HETATM   12  C6  LIG X 999      44.065 132.201  23.478  1.00  0.00     0.012 A 
HETATM   13  C7  LIG X 999      44.582 131.659  22.294  1.00  0.00    -0.025 A 
HETATM   14  C8  LIG X 999      45.036 132.512  21.276  1.00  0.00     0.012 A 
HETATM   15  C12 LIG X 999      44.634 130.247  22.119  1.00  0.00    -0.011 A 
HETATM   16  C9  LIG X 999      45.521 131.985  20.080  1.00  0.00     0.001 A 
HETATM   17  C10 LIG X 999      45.548 130.606  19.883  1.00  0.00     0.001 A 
HETATM   18  C11 LIG X 999      45.102 129.741  20.885  1.00  0.00     0.013 A 
ENDBRANCH   5   9
BRANCH   8  19
HETATM   19  C13 LIG X 999      42.915 124.666  22.803  1.00  0.00     0.105 A 
HETATM   20  C14 LIG X 999      43.238 123.732  21.805  1.00  0.00     0.054 A 
HETATM   21  C15 LIG X 999      42.456 122.586  21.652  1.00  0.00     0.122 A 
HETATM   22  N4  LIG X 999      41.388 122.375  22.466  1.00  0.00    -0.230 NA
HETATM   23  C16 LIG X 999      41.049 123.260  23.441  1.00  0.00     0.251 A 
HETATM   24  F1  LIG X 999      39.979 123.008  24.235  1.00  0.00    -0.181 F 
HETATM   25  C17 LIG X 999      41.803 124.422  23.627  1.00  0.00     0.202 A 
HETATM   26  F2  LIG X 999      41.474 125.282  24.625  1.00  0.00    -0.199 F 
ENDBRANCH   8  19
TORSDOF 2
