REMARK VINA RESULT:      -5.3      2.082      3.164
REMARK  1 active torsions:
REMARK  status: ('A' for Active; 'I' for Inactive)
REMARK    1  A    between atoms: C7_7  and  N1_8 
ROOT
HETATM    1  N1  LIG X 999      42.721 132.004  17.567  1.00  0.00    -0.110 NA
HETATM    2  N2  LIG X 999      42.125 132.421  18.563  1.00  0.00    -0.167 NA
HETATM    3  N3  LIG X 999      41.532 132.837  19.557  1.00  0.00     0.068 N 
ENDROOT
BRANCH   1   4
HETATM    4  C7  LIG X 999      43.771 130.981  17.633  1.00  0.00     0.153 C 
HETATM    5  C6  LIG X 999      44.898 131.334  18.628  1.00  0.00     0.031 C 
HETATM    6  C5  LIG X 999      45.939 130.212  18.682  1.00  0.00     0.003 C 
HETATM    7  C4  LIG X 999      46.539 129.953  17.296  1.00  0.00     0.009 C 
HETATM    8  C3  LIG X 999      45.446 129.614  16.260  1.00  0.00     0.018 C 
HETATM    9  C2  LIG X 999      46.078 129.467  14.894  1.00  0.00    -0.021 C 
HETATM   10  C8  LIG X 999      44.335 130.701  16.220  1.00  0.00     0.043 C 
HETATM   11  C1  LIG X 999      46.222 130.528  14.092  1.00  0.00    -0.004 C 
HETATM   12  C10 LIG X 999      45.677 131.843  14.481  1.00  0.00    -0.004 C 
HETATM   13  C9  LIG X 999      44.839 131.950  15.519  1.00  0.00    -0.019 C 
ENDBRANCH   1   4
TORSDOF 1
