REMARK VINA RESULT:      -5.4      3.391      6.149
REMARK  1 active torsions:
REMARK  status: ('A' for Active; 'I' for Inactive)
REMARK    1  A    between atoms: N1_2  and  C1_3 
ROOT
HETATM    1  C1  LIG X 999      46.750 130.694  14.341  1.00  0.00     0.120 C 
HETATM    2  C2  LIG X 999      45.466 131.079  13.970  1.00  0.00     0.057 C 
HETATM    3  C3  LIG X 999      44.467 131.247  14.938  1.00  0.00    -0.045 C 
HETATM    4  C4  LIG X 999      43.053 131.356  14.421  1.00  0.00     0.049 C 
HETATM    5  C5  LIG X 999      44.814 131.160  16.325  1.00  0.00     0.008 C 
HETATM    6  C6  LIG X 999      43.955 131.518  17.417  1.00  0.00    -0.013 C 
HETATM    7  C7  LIG X 999      42.827 132.361  17.278  1.00  0.00     0.013 C 
HETATM    8  C8  LIG X 999      41.989 132.633  18.362  1.00  0.00     0.001 C 
HETATM    9  C9  LIG X 999      42.280 132.116  19.621  1.00  0.00     0.001 C 
HETATM   10  C10 LIG X 999      43.440 131.370  19.814  1.00  0.00     0.012 C 
HETATM   11  C11 LIG X 999      44.299 131.102  18.736  1.00  0.00    -0.025 C 
HETATM   12  C12 LIG X 999      45.521 130.473  18.978  1.00  0.00     0.014 C 
HETATM   13  C13 LIG X 999      46.435 130.296  17.949  1.00  0.00     0.031 C 
HETATM   14  C14 LIG X 999      46.105 130.639  16.633  1.00  0.00     0.045 C 
HETATM   15  N2  LIG X 999      47.032 130.446  15.648  1.00  0.00    -0.341 N 
HETATM   16  H12 LIG X 999      47.986 130.100  15.902  1.00  0.00     0.167 HD
ENDROOT
BRANCH   1  17
HETATM   17  N1  LIG X 999      47.657 130.533  13.428  1.00  0.00    -0.284 NA
HETATM   18  H1  LIG X 999      48.013 131.328  12.852  1.00  0.00     0.188 HD
ENDBRANCH   1  17
TORSDOF 1
