REMARK VINA RESULT:      -7.3      1.019      2.712
REMARK  1 active torsions:
REMARK  status: ('A' for Active; 'I' for Inactive)
REMARK    1  A    between atoms: C10_11  and  N2_12 
ROOT
HETATM    1  N2  LIG X 999      45.496 131.585  15.173  1.00  0.00    -0.052 NA
HETATM    2  N3  LIG X 999      46.245 130.719  14.716  1.00  0.00    -0.160 NA
HETATM    3  N4  LIG X 999      46.992 129.856  14.258  1.00  0.00     0.068 N 
ENDROOT
BRANCH   1   4
HETATM    4  C10 LIG X 999      44.956 131.510  16.498  1.00  0.00     0.186 C 
HETATM    5  N1  LIG X 999      45.721 130.989  17.486  1.00  0.00    -0.226 NA
HETATM    6  C9  LIG X 999      45.298 130.903  18.773  1.00  0.00     0.071 C 
HETATM    7  C8  LIG X 999      46.134 130.291  19.706  1.00  0.00     0.033 C 
HETATM    8  C14 LIG X 999      44.022 131.406  19.154  1.00  0.00     0.010 C 
HETATM    9  C7  LIG X 999      45.744 130.173  21.033  1.00  0.00     0.014 C 
HETATM   10  C5  LIG X 999      44.557 130.763  21.473  1.00  0.00    -0.025 C 
HETATM   11  C4  LIG X 999      43.709 131.449  20.554  1.00  0.00    -0.013 C 
HETATM   12  C6  LIG X 999      44.238 130.722  22.842  1.00  0.00     0.012 C 
HETATM   13  C3  LIG X 999      42.659 132.226  21.098  1.00  0.00     0.013 C 
HETATM   14  C2  LIG X 999      42.362 132.186  22.462  1.00  0.00     0.001 C 
HETATM   15  C1  LIG X 999      43.132 131.415  23.327  1.00  0.00     0.001 C 
HETATM   16  C12 LIG X 999      43.141 131.792  18.093  1.00  0.00    -0.045 C 
HETATM   17  C11 LIG X 999      43.645 131.903  16.787  1.00  0.00     0.063 C 
HETATM   18  C13 LIG X 999      41.647 131.950  18.242  1.00  0.00     0.049 C 
ENDBRANCH   1   4
TORSDOF 1
