REMARK VINA RESULT:      -4.5      4.864      7.166
REMARK  3 active torsions:
REMARK  status: ('A' for Active; 'I' for Inactive)
REMARK    1  A    between atoms: C6_6  and  C7_7 
REMARK    2  A    between atoms: C8_8  and  C9_9 
REMARK    3  A    between atoms: C10_12  and  N1_13 
ROOT
HETATM    1  N1  LIG X 999      45.320 128.179  22.989  1.00  0.00    -0.105 NA
HETATM    2  N2  LIG X 999      45.243 127.025  23.411  1.00  0.00    -0.167 NA
HETATM    3  N3  LIG X 999      45.167 125.873  23.833  1.00  0.00     0.068 N 
ENDROOT
BRANCH   1   4
HETATM    4  C10 LIG X 999      44.122 128.944  22.654  1.00  0.00     0.179 C 
HETATM    5  C4  LIG X 999      44.520 130.116  21.782  1.00  0.00    -0.023 A 
HETATM    6  C3  LIG X 999      44.653 131.424  22.308  1.00  0.00    -0.050 A 
HETATM    7  C5  LIG X 999      44.854 129.876  20.437  1.00  0.00     0.030 A 
HETATM    8  C2  LIG X 999      45.076 132.466  21.468  1.00  0.00     0.009 A 
HETATM    9  C13 LIG X 999      44.240 131.756  23.722  1.00  0.00     0.039 C 
HETATM   10  C1  LIG X 999      45.398 132.216  20.132  1.00  0.00     0.021 A 
HETATM   11  C6  LIG X 999      45.288 130.922  19.614  1.00  0.00     0.018 A 
HETATM   12  C12 LIG X 999      44.165 130.522  24.624  1.00  0.00     0.007 C 
HETATM   13  C11 LIG X 999      43.393 129.400  23.930  1.00  0.00     0.035 C 
BRANCH  11  14
HETATM   14  C7  LIG X 999      45.624 130.666  18.239  1.00  0.00    -0.056 C 
HETATM   15  C8  LIG X 999      45.905 130.450  17.087  1.00  0.00     0.010 C 
BRANCH  15  16
HETATM   16  C9  LIG X 999      46.239 130.194  15.715  1.00  0.00     0.258 C 
HETATM   17  O1  LIG X 999      45.954 129.084  15.195  1.00  0.00    -0.637 OA
HETATM   18  O2  LIG X 999      46.876 131.170  14.962  1.00  0.00    -0.637 OA
ENDBRANCH  15  16
ENDBRANCH  11  14
ENDBRANCH   1   4
TORSDOF 3
