REMARK VINA RESULT:      -4.8      2.105      2.719
REMARK  3 active torsions:
REMARK  status: ('A' for Active; 'I' for Inactive)
REMARK    1  A    between atoms: C3_3  and  S1_4 
REMARK    2  A    between atoms: S1_4  and  C4_7 
REMARK    3  A    between atoms: C6_9  and  N1_10 
ROOT
HETATM    1  C1  LIG X 999      43.154 131.705  21.343  1.00  0.00     0.013 C 
HETATM    2  C2  LIG X 999      42.952 130.817  22.132  1.00  0.00    -0.102 C 
HETATM    3  C3  LIG X 999      42.709 129.739  23.094  1.00  0.00     0.238 C 
ENDROOT
BRANCH   3   4
HETATM    4  S1  LIG X 999      44.179 128.744  23.275  1.00  0.00     0.186 S 
HETATM    5  O1  LIG X 999      44.817 129.077  24.596  1.00  0.00    -0.222 OA
HETATM    6  O2  LIG X 999      45.163 129.073  22.188  1.00  0.00    -0.222 OA
BRANCH   4   7
HETATM    7  C4  LIG X 999      43.764 127.016  23.219  1.00  0.00     0.073 A 
HETATM    8  C5  LIG X 999      42.448 126.647  23.540  1.00  0.00     0.058 A 
HETATM    9  C6  LIG X 999      42.040 125.312  23.510  1.00  0.00     0.095 A 
HETATM   10  C7  LIG X 999      42.959 124.316  23.151  1.00  0.00     0.046 A 
HETATM   11  C8  LIG X 999      44.276 124.653  22.817  1.00  0.00    -0.022 A 
HETATM   12  C9  LIG X 999      45.182 123.643  22.452  1.00  0.00     0.012 A 
HETATM   13  C13 LIG X 999      44.696 126.011  22.844  1.00  0.00    -0.004 A 
HETATM   14  C10 LIG X 999      46.494 123.964  22.110  1.00  0.00     0.001 A 
HETATM   15  C11 LIG X 999      46.917 125.292  22.127  1.00  0.00     0.001 A 
HETATM   16  C12 LIG X 999      46.030 126.309  22.490  1.00  0.00     0.014 A 
BRANCH   9  17
HETATM   17  N1  LIG X 999      40.682 124.998  23.851  1.00  0.00    -0.073 NA
HETATM   18  N2  LIG X 999      40.091 124.025  23.380  1.00  0.00    -0.162 NA
HETATM   19  N3  LIG X 999      39.499 123.054  22.911  1.00  0.00     0.068 N 
ENDBRANCH   9  17
ENDBRANCH   4   7
ENDBRANCH   3   4
TORSDOF 3
