REMARK VINA RESULT:      -7.6      1.583      2.058
REMARK  7 active torsions:
REMARK  status: ('A' for Active; 'I' for Inactive)
REMARK    1  A    between atoms: O1_2  and  C1_3 
REMARK    2  A    between atoms: C1_3  and  O2_18 
REMARK    3  A    between atoms: N1_4  and  C2_5 
REMARK    4  A    between atoms: C3_6  and  N2_7 
REMARK    5  A    between atoms: O2_18  and  C12_19 
REMARK    6  A    between atoms: C12_19  and  C14_21 
REMARK    7  A    between atoms: C14_21  and  O3_22 
ROOT
HETATM    1  N2  LIG X 999      44.243 132.367  18.039  1.00  0.00    -0.070 NA
HETATM    2  N3  LIG X 999      43.101 132.001  18.321  1.00  0.00    -0.162 NA
HETATM    3  N4  LIG X 999      41.958 131.643  18.601  1.00  0.00     0.068 N 
ENDROOT
BRANCH   1   4
HETATM    4  C3  LIG X 999      45.151 131.566  17.268  1.00  0.00     0.122 A 
HETATM    5  C2  LIG X 999      45.605 130.288  17.689  1.00  0.00     0.094 A 
HETATM    6  C11 LIG X 999      46.389 129.512  16.824  1.00  0.00     0.046 A 
HETATM    7  C10 LIG X 999      46.784 130.011  15.576  1.00  0.00    -0.024 A 
HETATM    8  C5  LIG X 999      46.383 131.307  15.181  1.00  0.00    -0.024 A 
HETATM    9  C9  LIG X 999      47.586 129.241  14.719  1.00  0.00     0.012 A 
HETATM   10  C4  LIG X 999      45.573 132.073  16.033  1.00  0.00     0.049 A 
HETATM   11  C6  LIG X 999      46.790 131.812  13.936  1.00  0.00     0.012 A 
HETATM   12  C7  LIG X 999      47.587 131.035  13.091  1.00  0.00     0.001 A 
HETATM   13  C8  LIG X 999      47.984 129.753  13.481  1.00  0.00     0.001 A 
BRANCH   5  14
HETATM   14  N1  LIG X 999      45.322 129.756  18.990  1.00  0.00    -0.200 NA
HETATM   15  C1  LIG X 999      45.760 130.268  20.102  1.00  0.00     0.285 C 
BRANCH  15  16
HETATM   16  O1  LIG X 999      46.559 131.407  20.082  1.00  0.00    -0.325 OA
HETATM   17  H1  LIG X 999      46.529 132.071  20.846  1.00  0.00     0.221 HD
ENDBRANCH  15  16
BRANCH  15  18
HETATM   18  O2  LIG X 999      45.451 129.683  21.341  1.00  0.00    -0.308 OA
BRANCH  18  19
HETATM   19  C12 LIG X 999      44.596 130.223  22.361  1.00  0.00     0.152 C 
HETATM   20  C13 LIG X 999      43.450 131.063  21.781  1.00  0.00     0.042 C 
BRANCH  19  21
HETATM   21  C14 LIG X 999      44.116 129.143  23.346  1.00  0.00     0.199 C 
BRANCH  21  22
HETATM   22  O3  LIG X 999      42.716 128.976  23.273  1.00  0.00    -0.393 OA
HETATM   23  C15 LIG X 999      42.166 129.053  24.568  1.00  0.00     0.201 C 
ENDBRANCH  21  22
ENDBRANCH  19  21
ENDBRANCH  18  19
ENDBRANCH  15  18
ENDBRANCH   5  14
ENDBRANCH   1   4
TORSDOF 7
