REMARK VINA RESULT:      -7.7      3.757      6.001
REMARK  1 active torsions:
REMARK  status: ('A' for Active; 'I' for Inactive)
REMARK    1  A    between atoms: C14_14  and  N1_15 
ROOT
HETATM    1  N1  LIG X 999      44.968 131.487  14.652  1.00  0.00    -0.216 NA
HETATM    2  C15 LIG X 999      46.077 131.192  14.100  1.00  0.00     0.165 C 
HETATM    3  S1  LIG X 999      47.480 130.818  13.401  1.00  0.00    -0.055 SA
ENDROOT
BRANCH   1   4
HETATM    4  C14 LIG X 999      44.730 131.417  16.068  1.00  0.00     0.130 C 
HETATM    5  C13 LIG X 999      45.647 130.826  16.945  1.00  0.00     0.058 C 
HETATM    6  C11 LIG X 999      45.376 130.757  18.320  1.00  0.00    -0.045 C 
HETATM    7  C10 LIG X 999      44.221 131.423  18.839  1.00  0.00     0.008 C 
HETATM    8  C12 LIG X 999      46.264 129.841  19.126  1.00  0.00     0.049 C 
HETATM    9  C4  LIG X 999      43.938 131.622  20.232  1.00  0.00    -0.013 C 
HETATM   10  C9  LIG X 999      43.265 131.886  17.889  1.00  0.00     0.045 C 
HETATM   11  C3  LIG X 999      44.923 131.552  21.246  1.00  0.00     0.013 C 
HETATM   12  C5  LIG X 999      42.626 132.018  20.623  1.00  0.00    -0.025 C 
HETATM   13  C2  LIG X 999      44.585 131.698  22.593  1.00  0.00     0.001 C 
HETATM   14  C1  LIG X 999      43.269 131.965  22.962  1.00  0.00     0.001 C 
HETATM   15  C6  LIG X 999      42.297 132.147  21.983  1.00  0.00     0.012 C 
HETATM   16  C7  LIG X 999      41.671 132.337  19.657  1.00  0.00     0.014 C 
HETATM   17  C8  LIG X 999      42.005 132.325  18.311  1.00  0.00     0.031 C 
HETATM   18  N2  LIG X 999      43.554 131.888  16.556  1.00  0.00    -0.340 N 
HETATM   19  H11 LIG X 999      42.855 132.267  15.875  1.00  0.00     0.167 HD
ENDBRANCH   1   4
TORSDOF 1
