REMARK VINA RESULT:      -4.6      4.339      6.873
REMARK  3 active torsions:
REMARK  status: ('A' for Active; 'I' for Inactive)
REMARK    1  A    between atoms: C2_2  and  N1_3 
REMARK    2  A    between atoms: C3_6  and  O1_7 
REMARK    3  A    between atoms: O1_7  and  C4_8 
REMARK       I    between atoms: C4_8  and  N4_10 
ROOT
HETATM    1  N1  LIG X 999      43.633 131.661  23.669  1.00  0.00    -0.070 NA
HETATM    2  N2  LIG X 999      42.616 132.144  23.168  1.00  0.00    -0.162 NA
HETATM    3  N3  LIG X 999      41.601 132.627  22.668  1.00  0.00     0.068 N 
ENDROOT
BRANCH   1   4
HETATM    4  C2  LIG X 999      44.214 130.434  23.205  1.00  0.00     0.128 A 
HETATM    5  C1  LIG X 999      44.363 129.325  24.060  1.00  0.00     0.049 A 
HETATM    6  C13 LIG X 999      44.930 128.135  23.587  1.00  0.00    -0.023 A 
HETATM    7  C8  LIG X 999      45.350 128.046  22.231  1.00  0.00    -0.022 A 
HETATM    8  C12 LIG X 999      45.077 127.023  24.440  1.00  0.00     0.021 A 
HETATM    9  C7  LIG X 999      45.199 129.152  21.386  1.00  0.00     0.052 A 
HETATM   10  C9  LIG X 999      45.906 126.845  21.748  1.00  0.00     0.021 A 
HETATM   11  C3  LIG X 999      44.648 130.352  21.871  1.00  0.00     0.113 A 
HETATM   12  C10 LIG X 999      46.041 125.769  22.627  1.00  0.00    -0.024 A 
HETATM   13  C11 LIG X 999      45.642 125.855  23.925  1.00  0.00    -0.024 A 
HETATM   14  C17 LIG X 999      46.572 124.420  22.335  1.00  0.00     0.276 C 
HETATM   15  C14 LIG X 999      45.868 124.572  24.625  1.00  0.00     0.276 C 
HETATM   16  N5  LIG X 999      46.612 123.709  23.652  1.00  0.00    -0.067 N 
HETATM   17  C15 LIG X 999      48.017 123.541  24.095  1.00  0.00     0.272 C 
HETATM   18  C16 LIG X 999      45.978 122.375  23.545  1.00  0.00     0.272 C 
BRANCH  11  19
HETATM   19  O1  LIG X 999      44.478 131.472  21.042  1.00  0.00    -0.259 OA
BRANCH  19  20
HETATM   20  C4  LIG X 999      44.607 131.477  19.645  1.00  0.00     0.367 C 
HETATM   21  O2  LIG X 999      45.734 131.297  19.107  1.00  0.00    -0.238 OA
HETATM   22  N4  LIG X 999      43.456 131.744  18.825  1.00  0.00    -0.336 N 
HETATM   23  C5  LIG X 999      42.160 131.981  19.466  1.00  0.00     0.154 C 
HETATM   24  C6  LIG X 999      43.589 131.771  17.366  1.00  0.00     0.154 C 
ENDBRANCH  19  20
ENDBRANCH  11  19
ENDBRANCH   1   4
TORSDOF 3
