REMARK VINA RESULT:      -5.0      5.000      7.022
REMARK  5 active torsions:
REMARK  status: ('A' for Active; 'I' for Inactive)
REMARK    1  A    between atoms: C1_1  and  N1_2 
REMARK    2  A    between atoms: C2_5  and  O1_6 
REMARK    3  A    between atoms: C2_5  and  C5_12 
REMARK    4  A    between atoms: O1_6  and  C3_7 
REMARK    5  A    between atoms: C3_7  and  C4_9 
ROOT
HETATM    1  N1  LIG X 999      45.002 130.967  21.363  1.00  0.00    -0.082 NA
HETATM    2  N2  LIG X 999      44.287 131.442  20.481  1.00  0.00    -0.163 NA
HETATM    3  N3  LIG X 999      43.573 131.915  19.598  1.00  0.00     0.068 N 
ENDROOT
BRANCH   1   4
HETATM    4  C1  LIG X 999      45.138 129.554  21.506  1.00  0.00     0.193 C 
HETATM    5  C2  LIG X 999      44.685 128.939  22.604  1.00  0.00     0.101 C 
BRANCH   5   6
HETATM    6  O1  LIG X 999      44.039 129.698  23.591  1.00  0.00    -0.324 OA
BRANCH   6   7
HETATM    7  C3  LIG X 999      42.671 130.124  23.541  1.00  0.00     0.273 C 
HETATM    8 CL1  LIG X 999      41.597 129.141  24.580  1.00  0.00    -0.090 Cl
BRANCH   7   9
HETATM    9  C4  LIG X 999      42.519 131.626  23.827  1.00  0.00     0.309 C 
HETATM   10  F1  LIG X 999      42.269 132.304  22.649  1.00  0.00    -0.229 F 
HETATM   11 CL2  LIG X 999      43.957 132.334  24.617  1.00  0.00    -0.086 Cl
ENDBRANCH   7   9
ENDBRANCH   6   7
ENDBRANCH   5   6
BRANCH   5  12
HETATM   12  C5  LIG X 999      44.800 127.469  22.739  1.00  0.00    -0.000 A 
HETATM   13  C6  LIG X 999      43.776 126.749  23.374  1.00  0.00     0.015 A 
HETATM   14  C7  LIG X 999      43.864 125.361  23.514  1.00  0.00     0.013 A 
HETATM   15  C8  LIG X 999      44.978 124.671  23.017  1.00  0.00    -0.026 A 
HETATM   16  C9  LIG X 999      45.078 123.278  23.155  1.00  0.00     0.012 A 
HETATM   17  C13 LIG X 999      46.015 125.387  22.371  1.00  0.00    -0.025 A 
HETATM   18  C10 LIG X 999      46.195 122.602  22.657  1.00  0.00     0.001 A 
HETATM   19  C11 LIG X 999      47.218 123.309  22.020  1.00  0.00     0.001 A 
HETATM   20  C12 LIG X 999      47.132 124.696  21.875  1.00  0.00     0.012 A 
HETATM   21  C14 LIG X 999      45.917 126.781  22.234  1.00  0.00     0.026 A 
ENDBRANCH   5  12
ENDBRANCH   1   4
TORSDOF 5
