REMARK VINA RESULT:      -5.9      3.078      4.714
REMARK  5 active torsions:
REMARK  status: ('A' for Active; 'I' for Inactive)
REMARK    1  A    between atoms: C6_6  and  C7_7 
REMARK    2  A    between atoms: C7_7  and  N1_8 
REMARK    3  A    between atoms: N4_11  and  C8_12 
REMARK    4  A    between atoms: C8_12  and  C9_13 
REMARK    5  A    between atoms: C9_13  and  N5_14 
ROOT
HETATM    1  N1  LIG X 999      44.314 131.547  23.006  1.00  0.00    -0.052 NA
HETATM    2  N2  LIG X 999      43.227 131.784  23.536  1.00  0.00    -0.160 NA
HETATM    3  N3  LIG X 999      42.144 132.022  24.066  1.00  0.00     0.068 N 
ENDROOT
BRANCH   1   4
HETATM    4  C7  LIG X 999      44.468 130.547  21.984  1.00  0.00     0.191 C 
HETATM    5  N4  LIG X 999      44.706 129.311  22.314  1.00  0.00    -0.267 NA
BRANCH   4   6
HETATM    6  C6  LIG X 999      44.363 130.889  20.545  1.00  0.00     0.015 A 
HETATM    7  C5  LIG X 999      45.345 130.465  19.632  1.00  0.00     0.027 A 
HETATM    8  C4  LIG X 999      45.235 130.782  18.270  1.00  0.00    -0.025 A 
HETATM    9  C3  LIG X 999      46.216 130.365  17.356  1.00  0.00     0.012 A 
HETATM   10  C12 LIG X 999      44.122 131.527  17.810  1.00  0.00    -0.026 A 
HETATM   11  C2  LIG X 999      46.096 130.688  16.001  1.00  0.00     0.001 A 
HETATM   12  C1  LIG X 999      44.998 131.425  15.549  1.00  0.00     0.001 A 
HETATM   13  C13 LIG X 999      44.013 131.844  16.448  1.00  0.00     0.012 A 
HETATM   14  C11 LIG X 999      43.137 131.936  18.720  1.00  0.00     0.013 A 
HETATM   15  C10 LIG X 999      43.256 131.614  20.075  1.00  0.00     0.016 A 
ENDBRANCH   4   6
BRANCH   5  16
HETATM   16  C8  LIG X 999      44.813 128.804  23.682  1.00  0.00     0.181 C 
BRANCH  16  17
HETATM   17  C9  LIG X 999      44.572 127.292  23.731  1.00  0.00     0.288 C 
BRANCH  17  18
HETATM   18  N5  LIG X 999      45.019 126.648  22.499  1.00  0.00     0.079 N 
HETATM   19  H9  LIG X 999      45.289 127.402  21.826  1.00  0.00     0.312 HD
HETATM   20  H10 LIG X 999      44.202 126.157  22.070  1.00  0.00     0.312 HD
ENDBRANCH  17  18
ENDBRANCH  16  17
ENDBRANCH   5  16
ENDBRANCH   1   4
TORSDOF 5
