REMARK VINA RESULT:      -7.7      4.077      6.464
REMARK  2 active torsions:
REMARK  status: ('A' for Active; 'I' for Inactive)
REMARK    1  A    between atoms: C1_2  and  C2_4 
REMARK    2  A    between atoms: C3_5  and  C4_6 
ROOT
HETATM    1  C4  LIG X 999      44.370 131.258  18.450  1.00  0.00     0.019 A 
HETATM    2  C5  LIG X 999      43.445 131.832  17.569  1.00  0.00     0.021 A 
HETATM    3  C6  LIG X 999      43.672 131.803  16.190  1.00  0.00     0.013 A 
HETATM    4  C7  LIG X 999      44.830 131.196  15.680  1.00  0.00    -0.026 A 
HETATM    5  C8  LIG X 999      45.069 131.161  14.297  1.00  0.00     0.012 A 
HETATM    6  C9  LIG X 999      46.227 130.554  13.801  1.00  0.00     0.001 A 
HETATM    7  C10 LIG X 999      47.152 129.981  14.678  1.00  0.00     0.001 A 
HETATM    8  C11 LIG X 999      46.927 130.009  16.057  1.00  0.00     0.012 A 
HETATM    9  C12 LIG X 999      45.767 130.616  16.569  1.00  0.00    -0.025 A 
HETATM   10  C13 LIG X 999      45.529 130.651  17.951  1.00  0.00     0.032 A 
ENDROOT
BRANCH   1  11
HETATM   11  C3  LIG X 999      44.128 131.293  19.869  1.00  0.00    -0.056 C 
HETATM   12  C2  LIG X 999      43.925 131.323  21.057  1.00  0.00     0.010 C 
BRANCH  12  13
HETATM   13  C1  LIG X 999      43.683 131.356  22.471  1.00  0.00     0.258 C 
HETATM   14  O1  LIG X 999      44.400 130.673  23.248  1.00  0.00    -0.637 OA
HETATM   15  O2  LIG X 999      42.659 132.141  22.981  1.00  0.00    -0.637 OA
ENDBRANCH  12  13
ENDBRANCH   1  11
TORSDOF 2
