MODEL 1
REMARK VINA RESULT:      -8.3      0.000      0.000
REMARK  3 active torsions:
REMARK  status: ('A' for Active; 'I' for Inactive)
REMARK    1  A    between atoms: C6_6  and  C7_7 
REMARK    2  A    between atoms: C7_7  and  C8_9 
REMARK    3  A    between atoms: C8_9  and  N1_10 
ROOT
HETATM    1  N1  LIG X 999      46.330 129.699  14.592  1.00  0.00    -0.108 NA
HETATM    2  N2  LIG X 999      47.410 129.596  14.010  1.00  0.00    -0.167 NA
HETATM    3  N3  LIG X 999      48.490 129.494  13.430  1.00  0.00     0.068 N 
ENDROOT
BRANCH   1   4
HETATM    4  C8  LIG X 999      46.270 129.896  16.036  1.00  0.00     0.272 C 
BRANCH   4   5
HETATM    5  C7  LIG X 999      45.664 131.233  16.387  1.00  0.00     0.181 C 
HETATM    6  O1  LIG X 999      45.848 132.211  15.611  1.00  0.00    -0.290 OA
BRANCH   5   7
HETATM    7  C6  LIG X 999      44.816 131.412  17.595  1.00  0.00     0.012 A 
HETATM    8  C5  LIG X 999      45.371 131.229  18.876  1.00  0.00     0.027 A 
HETATM    9  C4  LIG X 999      44.586 131.395  20.028  1.00  0.00    -0.025 A 
HETATM   10  C3  LIG X 999      45.139 131.208  21.304  1.00  0.00     0.012 A 
HETATM   11  C11 LIG X 999      43.223 131.753  19.902  1.00  0.00    -0.026 A 
HETATM   12  C2  LIG X 999      44.349 131.375  22.444  1.00  0.00     0.001 A 
HETATM   13  C1  LIG X 999      43.003 131.730  22.319  1.00  0.00     0.001 A 
HETATM   14  C12 LIG X 999      42.439 131.920  21.055  1.00  0.00     0.012 A 
HETATM   15  C10 LIG X 999      42.672 131.942  18.628  1.00  0.00     0.013 A 
HETATM   16  C9  LIG X 999      43.459 131.774  17.487  1.00  0.00     0.016 A 
ENDBRANCH   5   7
ENDBRANCH   4   5
ENDBRANCH   1   4
TORSDOF 3
ENDMDL
MODEL 2
REMARK VINA RESULT:      -7.9      0.996      1.980
REMARK  3 active torsions:
REMARK  status: ('A' for Active; 'I' for Inactive)
REMARK    1  A    between atoms: C6_6  and  C7_7 
REMARK    2  A    between atoms: C7_7  and  C8_9 
REMARK    3  A    between atoms: C8_9  and  N1_10 
ROOT
HETATM    1  N1  LIG X 999      47.005 129.768  14.746  1.00  0.00    -0.108 NA
HETATM    2  N2  LIG X 999      47.453 130.424  13.805  1.00  0.00    -0.167 NA
HETATM    3  N3  LIG X 999      47.899 131.078  12.864  1.00  0.00     0.068 N 
ENDROOT
BRANCH   1   4
HETATM    4  C8  LIG X 999      45.568 129.649  14.962  1.00  0.00     0.272 C 
BRANCH   4   5
HETATM    5  C7  LIG X 999      44.994 130.900  15.580  1.00  0.00     0.181 C 
HETATM    6  O1  LIG X 999      44.633 131.845  14.825  1.00  0.00    -0.290 OA
BRANCH   5   7
HETATM    7  C6  LIG X 999      44.797 131.026  17.048  1.00  0.00     0.012 A 
HETATM    8  C5  LIG X 999      43.641 131.653  17.550  1.00  0.00     0.027 A 
HETATM    9  C4  LIG X 999      43.437 131.780  18.933  1.00  0.00    -0.025 A 
HETATM   10  C3  LIG X 999      42.286 132.410  19.431  1.00  0.00     0.012 A 
HETATM   11  C11 LIG X 999      44.400 131.268  19.834  1.00  0.00    -0.026 A 
HETATM   12  C2  LIG X 999      42.093 132.531  20.810  1.00  0.00     0.001 A 
HETATM   13  C1  LIG X 999      43.044 132.024  21.700  1.00  0.00     0.001 A 
HETATM   14  C12 LIG X 999      44.194 131.394  21.217  1.00  0.00     0.012 A 
HETATM   15  C10 LIG X 999      45.547 130.637  19.336  1.00  0.00     0.013 A 
HETATM   16  C9  LIG X 999      45.744 130.517  17.958  1.00  0.00     0.016 A 
ENDBRANCH   5   7
ENDBRANCH   4   5
ENDBRANCH   1   4
TORSDOF 3
ENDMDL
MODEL 3
REMARK VINA RESULT:      -7.9      4.251      6.370
REMARK  3 active torsions:
REMARK  status: ('A' for Active; 'I' for Inactive)
REMARK    1  A    between atoms: C6_6  and  C7_7 
REMARK    2  A    between atoms: C7_7  and  C8_9 
REMARK    3  A    between atoms: C8_9  and  N1_10 
ROOT
HETATM    1  N1  LIG X 999      42.817 131.043  21.545  1.00  0.00    -0.108 NA
HETATM    2  N2  LIG X 999      43.622 130.375  22.194  1.00  0.00    -0.167 NA
HETATM    3  N3  LIG X 999      44.428 129.709  22.842  1.00  0.00     0.068 N 
ENDROOT
BRANCH   1   4
HETATM    4  C8  LIG X 999      43.254 132.190  20.757  1.00  0.00     0.272 C 
BRANCH   4   5
HETATM    5  C7  LIG X 999      42.942 132.006  19.292  1.00  0.00     0.181 C 
HETATM    6  O1  LIG X 999      41.798 132.321  18.865  1.00  0.00    -0.290 OA
BRANCH   5   7
HETATM    7  C6  LIG X 999      43.966 131.512  18.333  1.00  0.00     0.012 A 
HETATM    8  C5  LIG X 999      43.789 131.716  16.951  1.00  0.00     0.027 A 
HETATM    9  C4  LIG X 999      44.745 131.259  16.031  1.00  0.00    -0.025 A 
HETATM   10  C3  LIG X 999      44.565 131.459  14.653  1.00  0.00     0.012 A 
HETATM   11  C11 LIG X 999      45.902 130.590  16.495  1.00  0.00    -0.026 A 
HETATM   12  C2  LIG X 999      45.523 130.999  13.745  1.00  0.00     0.001 A 
HETATM   13  C1  LIG X 999      46.666 130.339  14.205  1.00  0.00     0.001 A 
HETATM   14  C12 LIG X 999      46.858 130.134  15.574  1.00  0.00     0.012 A 
HETATM   15  C10 LIG X 999      46.082 130.392  17.870  1.00  0.00     0.013 A 
HETATM   16  C9  LIG X 999      45.125 130.849  18.779  1.00  0.00     0.016 A 
ENDBRANCH   5   7
ENDBRANCH   4   5
ENDBRANCH   1   4
TORSDOF 3
ENDMDL
MODEL 4
REMARK VINA RESULT:      -7.8      3.929      6.597
REMARK  3 active torsions:
REMARK  status: ('A' for Active; 'I' for Inactive)
REMARK    1  A    between atoms: C6_6  and  C7_7 
REMARK    2  A    between atoms: C7_7  and  C8_9 
REMARK    3  A    between atoms: C8_9  and  N1_10 
ROOT
HETATM    1  N1  LIG X 999      44.786 131.123  21.047  1.00  0.00    -0.108 NA
HETATM    2  N2  LIG X 999      44.549 130.318  21.948  1.00  0.00    -0.167 NA
HETATM    3  N3  LIG X 999      44.312 129.513  22.847  1.00  0.00     0.068 N 
ENDROOT
BRANCH   1   4
HETATM    4  C8  LIG X 999      45.463 130.705  19.825  1.00  0.00     0.272 C 
BRANCH   4   5
HETATM    5  C7  LIG X 999      44.710 131.149  18.595  1.00  0.00     0.181 C 
HETATM    6  O1  LIG X 999      43.502 131.494  18.709  1.00  0.00    -0.290 OA
BRANCH   5   7
HETATM    7  C6  LIG X 999      45.371 131.241  17.266  1.00  0.00     0.012 A 
HETATM    8  C5  LIG X 999      46.098 130.144  16.766  1.00  0.00     0.027 A 
HETATM    9  C4  LIG X 999      46.727 130.211  15.514  1.00  0.00    -0.025 A 
HETATM   10  C3  LIG X 999      47.455 129.118  15.019  1.00  0.00     0.012 A 
HETATM   11  C11 LIG X 999      46.628 131.392  14.742  1.00  0.00    -0.026 A 
HETATM   12  C2  LIG X 999      48.078 129.196  13.770  1.00  0.00     0.001 A 
HETATM   13  C1  LIG X 999      47.979 130.363  13.008  1.00  0.00     0.001 A 
HETATM   14  C12 LIG X 999      47.257 131.459  13.489  1.00  0.00     0.012 A 
HETATM   15  C10 LIG X 999      45.900 132.483  15.235  1.00  0.00     0.013 A 
HETATM   16  C9  LIG X 999      45.277 132.408  16.483  1.00  0.00     0.016 A 
ENDBRANCH   5   7
ENDBRANCH   4   5
ENDBRANCH   1   4
TORSDOF 3
ENDMDL
MODEL 5
REMARK VINA RESULT:      -7.7      4.413      6.538
REMARK  3 active torsions:
REMARK  status: ('A' for Active; 'I' for Inactive)
REMARK    1  A    between atoms: C6_6  and  C7_7 
REMARK    2  A    between atoms: C7_7  and  C8_9 
REMARK    3  A    between atoms: C8_9  and  N1_10 
ROOT
HETATM    1  N1  LIG X 999      43.119 130.807  22.040  1.00  0.00    -0.108 NA
HETATM    2  N2  LIG X 999      43.055 131.251  23.187  1.00  0.00    -0.167 NA
HETATM    3  N3  LIG X 999      42.992 131.695  24.332  1.00  0.00     0.068 N 
ENDROOT
BRANCH   1   4
HETATM    4  C8  LIG X 999      43.389 131.685  20.908  1.00  0.00     0.272 C 
BRANCH   4   5
HETATM    5  C7  LIG X 999      44.628 131.258  20.159  1.00  0.00     0.181 C 
HETATM    6  O1  LIG X 999      45.634 130.868  20.813  1.00  0.00    -0.290 OA
BRANCH   5   7
HETATM    7  C6  LIG X 999      44.672 131.236  18.673  1.00  0.00     0.012 A 
HETATM    8  C5  LIG X 999      45.776 130.664  18.012  1.00  0.00     0.027 A 
HETATM    9  C4  LIG X 999      45.834 130.632  16.610  1.00  0.00    -0.025 A 
HETATM   10  C3  LIG X 999      46.938 130.067  15.953  1.00  0.00     0.012 A 
HETATM   11  C11 LIG X 999      44.771 131.177  15.851  1.00  0.00    -0.026 A 
HETATM   12  C2  LIG X 999      46.986 130.041  14.556  1.00  0.00     0.001 A 
HETATM   13  C1  LIG X 999      45.935 130.577  13.807  1.00  0.00     0.001 A 
HETATM   14  C12 LIG X 999      44.830 131.143  14.449  1.00  0.00     0.012 A 
HETATM   15  C10 LIG X 999      43.669 131.739  16.508  1.00  0.00     0.013 A 
HETATM   16  C9  LIG X 999      43.619 131.768  17.903  1.00  0.00     0.016 A 
ENDBRANCH   5   7
ENDBRANCH   4   5
ENDBRANCH   1   4
TORSDOF 3
ENDMDL
MODEL 6
REMARK VINA RESULT:      -7.2      1.665      2.748
REMARK  3 active torsions:
REMARK  status: ('A' for Active; 'I' for Inactive)
REMARK    1  A    between atoms: C6_6  and  C7_7 
REMARK    2  A    between atoms: C7_7  and  C8_9 
REMARK    3  A    between atoms: C8_9  and  N1_10 
ROOT
HETATM    1  N1  LIG X 999      45.491 131.368  14.353  1.00  0.00    -0.108 NA
HETATM    2  N2  LIG X 999      44.280 131.511  14.182  1.00  0.00    -0.167 NA
HETATM    3  N3  LIG X 999      43.070 131.654  14.013  1.00  0.00     0.068 N 
ENDROOT
BRANCH   1   4
HETATM    4  C8  LIG X 999      46.117 131.713  15.624  1.00  0.00     0.272 C 
BRANCH   4   5
HETATM    5  C7  LIG X 999      45.954 130.609  16.639  1.00  0.00     0.181 C 
HETATM    6  O1  LIG X 999      46.372 129.453  16.358  1.00  0.00    -0.290 OA
BRANCH   5   7
HETATM    7  C6  LIG X 999      45.363 130.863  17.980  1.00  0.00     0.012 A 
HETATM    8  C5  LIG X 999      44.137 131.547  18.088  1.00  0.00     0.027 A 
HETATM    9  C4  LIG X 999      43.563 131.795  19.345  1.00  0.00    -0.025 A 
HETATM   10  C3  LIG X 999      42.344 132.482  19.452  1.00  0.00     0.012 A 
HETATM   11  C11 LIG X 999      44.219 131.349  20.516  1.00  0.00    -0.026 A 
HETATM   12  C2  LIG X 999      41.781 132.723  20.708  1.00  0.00     0.001 A 
HETATM   13  C1  LIG X 999      42.429 132.281  21.865  1.00  0.00     0.001 A 
HETATM   14  C12 LIG X 999      43.644 131.596  21.772  1.00  0.00     0.012 A 
HETATM   15  C10 LIG X 999      45.435 130.662  20.409  1.00  0.00     0.013 A 
HETATM   16  C9  LIG X 999      46.001 130.420  19.155  1.00  0.00     0.016 A 
ENDBRANCH   5   7
ENDBRANCH   4   5
ENDBRANCH   1   4
TORSDOF 3
ENDMDL
MODEL 7
REMARK VINA RESULT:      -6.5      4.888      6.323
REMARK  3 active torsions:
REMARK  status: ('A' for Active; 'I' for Inactive)
REMARK    1  A    between atoms: C6_6  and  C7_7 
REMARK    2  A    between atoms: C7_7  and  C8_9 
REMARK    3  A    between atoms: C8_9  and  N1_10 
ROOT
HETATM    1  N1  LIG X 999      42.829 130.857  23.493  1.00  0.00    -0.108 NA
HETATM    2  N2  LIG X 999      42.936 129.630  23.478  1.00  0.00    -0.167 NA
HETATM    3  N3  LIG X 999      43.041 128.405  23.463  1.00  0.00     0.068 N 
ENDROOT
BRANCH   1   4
HETATM    4  C8  LIG X 999      42.661 131.612  22.256  1.00  0.00     0.272 C 
BRANCH   4   5
HETATM    5  C7  LIG X 999      43.923 131.607  21.429  1.00  0.00     0.181 C 
HETATM    6  O1  LIG X 999      45.039 131.568  22.017  1.00  0.00    -0.290 OA
BRANCH   5   7
HETATM    7  C6  LIG X 999      43.882 131.593  19.943  1.00  0.00     0.012 A 
HETATM    8  C5  LIG X 999      45.015 131.184  19.213  1.00  0.00     0.027 A 
HETATM    9  C4  LIG X 999      44.994 131.163  17.810  1.00  0.00    -0.025 A 
HETATM   10  C3  LIG X 999      46.125 130.761  17.084  1.00  0.00     0.012 A 
HETATM   11  C11 LIG X 999      43.822 131.553  17.120  1.00  0.00    -0.026 A 
HETATM   12  C2  LIG X 999      46.094 130.744  15.686  1.00  0.00     0.001 A 
HETATM   13  C1  LIG X 999      44.936 131.128  15.005  1.00  0.00     0.001 A 
HETATM   14  C12 LIG X 999      43.802 131.531  15.716  1.00  0.00     0.012 A 
HETATM   15  C10 LIG X 999      42.693 131.954  17.845  1.00  0.00     0.013 A 
HETATM   16  C9  LIG X 999      42.722 131.973  19.241  1.00  0.00     0.016 A 
ENDBRANCH   5   7
ENDBRANCH   4   5
ENDBRANCH   1   4
TORSDOF 3
ENDMDL
MODEL 8
REMARK VINA RESULT:      -6.4      5.114      6.673
REMARK  3 active torsions:
REMARK  status: ('A' for Active; 'I' for Inactive)
REMARK    1  A    between atoms: C6_6  and  C7_7 
REMARK    2  A    between atoms: C7_7  and  C8_9 
REMARK    3  A    between atoms: C8_9  and  N1_10 
ROOT
HETATM    1  N1  LIG X 999      43.384 131.143  24.064  1.00  0.00    -0.108 NA
HETATM    2  N2  LIG X 999      43.114 129.942  24.027  1.00  0.00    -0.167 NA
HETATM    3  N3  LIG X 999      42.844 128.742  23.989  1.00  0.00     0.068 N 
ENDROOT
BRANCH   1   4
HETATM    4  C8  LIG X 999      44.248 131.750  23.058  1.00  0.00     0.272 C 
BRANCH   4   5
HETATM    5  C7  LIG X 999      43.553 131.856  21.723  1.00  0.00     0.181 C 
HETATM    6  O1  LIG X 999      42.388 132.338  21.676  1.00  0.00    -0.290 OA
BRANCH   5   7
HETATM    7  C6  LIG X 999      44.227 131.457  20.459  1.00  0.00     0.012 A 
HETATM    8  C5  LIG X 999      43.632 131.763  19.220  1.00  0.00     0.027 A 
HETATM    9  C4  LIG X 999      44.254 131.395  18.016  1.00  0.00    -0.025 A 
HETATM   10  C3  LIG X 999      43.658 131.696  16.782  1.00  0.00     0.012 A 
HETATM   11  C11 LIG X 999      45.494 130.714  18.046  1.00  0.00    -0.026 A 
HETATM   12  C2  LIG X 999      44.286 131.326  15.589  1.00  0.00     0.001 A 
HETATM   13  C1  LIG X 999      45.511 130.654  15.620  1.00  0.00     0.001 A 
HETATM   14  C12 LIG X 999      46.115 130.348  16.842  1.00  0.00     0.012 A 
HETATM   15  C10 LIG X 999      46.089 130.416  19.279  1.00  0.00     0.013 A 
HETATM   16  C9  LIG X 999      45.464 130.784  20.472  1.00  0.00     0.016 A 
ENDBRANCH   5   7
ENDBRANCH   4   5
ENDBRANCH   1   4
TORSDOF 3
ENDMDL
MODEL 9
REMARK VINA RESULT:      -6.3      4.036      5.990
REMARK  3 active torsions:
REMARK  status: ('A' for Active; 'I' for Inactive)
REMARK    1  A    between atoms: C6_6  and  C7_7 
REMARK    2  A    between atoms: C7_7  and  C8_9 
REMARK    3  A    between atoms: C8_9  and  N1_10 
ROOT
HETATM    1  N1  LIG X 999      47.137 132.533  21.310  1.00  0.00    -0.108 NA
HETATM    2  N2  LIG X 999      47.572 133.620  21.694  1.00  0.00    -0.167 NA
HETATM    3  N3  LIG X 999      48.005 134.705  22.077  1.00  0.00     0.068 N 
ENDROOT
BRANCH   1   4
HETATM    4  C8  LIG X 999      45.706 132.253  21.314  1.00  0.00     0.272 C 
BRANCH   4   5
HETATM    5  C7  LIG X 999      45.380 131.026  20.498  1.00  0.00     0.181 C 
HETATM    6  O1  LIG X 999      45.307 129.908  21.077  1.00  0.00    -0.290 OA
BRANCH   5   7
HETATM    7  C6  LIG X 999      45.092 131.112  19.042  1.00  0.00     0.012 A 
HETATM    8  C5  LIG X 999      46.013 130.593  18.112  1.00  0.00     0.027 A 
HETATM    9  C4  LIG X 999      45.758 130.664  16.734  1.00  0.00    -0.025 A 
HETATM   10  C3  LIG X 999      46.680 130.151  15.808  1.00  0.00     0.012 A 
HETATM   11  C11 LIG X 999      44.561 131.259  16.272  1.00  0.00    -0.026 A 
HETATM   12  C2  LIG X 999      46.415 130.226  14.438  1.00  0.00     0.001 A 
HETATM   13  C1  LIG X 999      45.231 130.813  13.982  1.00  0.00     0.001 A 
HETATM   14  C12 LIG X 999      44.305 131.328  14.893  1.00  0.00     0.012 A 
HETATM   15  C10 LIG X 999      43.640 131.769  17.196  1.00  0.00     0.013 A 
HETATM   16  C9  LIG X 999      43.902 131.696  18.566  1.00  0.00     0.016 A 
ENDBRANCH   5   7
ENDBRANCH   4   5
ENDBRANCH   1   4
TORSDOF 3
ENDMDL
