REMARK VINA RESULT:      -6.1      1.966      6.509
REMARK  1 active torsions:
REMARK  status: ('A' for Active; 'I' for Inactive)
REMARK    1  A    between atoms: C9_10  and  N2_11 
ROOT
HETATM    1  C1  LIG X 999      43.205 131.368  20.805  1.00  0.00     0.272 C 
HETATM    2  N1  LIG X 999      44.526 131.581  20.169  1.00  0.00    -0.067 N 
HETATM    3  C2  LIG X 999      45.430 132.236  21.144  1.00  0.00     0.272 C 
HETATM    4  C3  LIG X 999      45.114 130.279  19.721  1.00  0.00     0.276 C 
HETATM    5  C4  LIG X 999      45.536 130.493  18.320  1.00  0.00    -0.024 A 
HETATM    6  C5  LIG X 999      46.230 129.611  17.491  1.00  0.00     0.021 A 
HETATM    7  C6  LIG X 999      46.514 130.010  16.170  1.00  0.00    -0.025 A 
HETATM    8  C7  LIG X 999      47.212 129.159  15.302  1.00  0.00     0.014 A 
HETATM    9  C8  LIG X 999      47.487 129.563  13.992  1.00  0.00     0.030 A 
HETATM   10  C9  LIG X 999      47.068 130.820  13.532  1.00  0.00     0.026 A 
HETATM   11  C10 LIG X 999      46.368 131.679  14.391  1.00  0.00     0.041 A 
HETATM   12  C11 LIG X 999      46.086 131.287  15.708  1.00  0.00    -0.023 A 
HETATM   13  C12 LIG X 999      45.381 132.145  16.576  1.00  0.00     0.021 A 
HETATM   14  C13 LIG X 999      45.126 131.715  17.879  1.00  0.00    -0.024 A 
HETATM   15  C14 LIG X 999      44.391 132.432  18.943  1.00  0.00     0.276 C 
ENDROOT
BRANCH  10  16
HETATM   16  N2  LIG X 999      47.354 131.224  12.191  1.00  0.00    -0.399 N 
HETATM   17  H12 LIG X 999      47.750 132.169  11.990  1.00  0.00     0.156 HD
HETATM   18  H13 LIG X 999      47.172 130.581  11.388  1.00  0.00     0.156 HD
ENDBRANCH  10  16
TORSDOF 1
