REMARK VINA RESULT:      -8.4      1.592      7.059
REMARK  5 active torsions:
REMARK  status: ('A' for Active; 'I' for Inactive)
REMARK    1  A    between atoms: C3_3  and  O1_4 
REMARK    2  A    between atoms: O1_4  and  C4_5 
REMARK    3  A    between atoms: C4_5  and  O2_6 
REMARK    4  A    between atoms: C5_8  and  C6_9 
REMARK    5  A    between atoms: C11_14  and  O3_15 
ROOT
HETATM    1  C1  LIG X 999      47.827 131.098  13.050  1.00  0.00     0.014 C 
HETATM    2  C2  LIG X 999      47.197 130.339  13.742  1.00  0.00    -0.091 C 
HETATM    3  C3  LIG X 999      46.430 129.420  14.585  1.00  0.00     0.270 C 
ENDROOT
BRANCH   3   4
HETATM    4  O1  LIG X 999      45.681 130.172  15.530  1.00  0.00    -0.319 OA
BRANCH   4   5
HETATM    5  C4  LIG X 999      44.667 131.074  15.181  1.00  0.00     0.179 C 
HETATM    6  C5  LIG X 999      43.958 131.696  16.130  1.00  0.00     0.075 C 
BRANCH   5   7
HETATM    7  O2  LIG X 999      44.350 131.322  13.844  1.00  0.00    -0.341 OA
HETATM    8  H4  LIG X 999      44.860 131.989  13.279  1.00  0.00     0.220 HD
ENDBRANCH   5   7
BRANCH   6   9
HETATM    9  C6  LIG X 999      44.188 131.531  17.583  1.00  0.00    -0.031 A 
HETATM   10  C7  LIG X 999      45.392 130.954  18.016  1.00  0.00     0.012 A 
HETATM   11  C8  LIG X 999      45.642 130.765  19.377  1.00  0.00     0.013 A 
HETATM   12  C9  LIG X 999      44.682 131.135  20.330  1.00  0.00    -0.023 A 
HETATM   13  C10 LIG X 999      44.926 130.950  21.699  1.00  0.00     0.049 A 
HETATM   14  C15 LIG X 999      43.455 131.692  19.905  1.00  0.00    -0.025 A 
HETATM   15  C11 LIG X 999      43.963 131.311  22.649  1.00  0.00     0.069 A 
HETATM   16  C13 LIG X 999      42.741 131.863  22.219  1.00  0.00     0.037 A 
HETATM   17  C14 LIG X 999      42.490 132.049  20.858  1.00  0.00     0.015 A 
HETATM   18  C16 LIG X 999      43.210 131.876  18.536  1.00  0.00     0.024 A 
BRANCH  15  19
HETATM   19  O3  LIG X 999      44.259 131.106  24.006  1.00  0.00    -0.356 OA
HETATM   20  C12 LIG X 999      44.349 129.826  24.625  1.00  0.00     0.210 C 
ENDBRANCH  15  19
ENDBRANCH   6   9
ENDBRANCH   4   5
ENDBRANCH   3   4
TORSDOF 5
