REMARK VINA RESULT:      -3.5      2.284      3.095
REMARK  2 active torsions:
REMARK  status: ('A' for Active; 'I' for Inactive)
REMARK    1  A    between atoms: C4_4  and  O1_5 
REMARK    2  A    between atoms: C10_11  and  N1_12 
ROOT
HETATM    1  N1  LIG X 999      39.903 127.116  23.767  1.00  0.00    -0.072 NA
HETATM    2  N2  LIG X 999      38.740 126.907  23.415  1.00  0.00    -0.162 NA
HETATM    3  N3  LIG X 999      37.580 126.701  23.064  1.00  0.00     0.068 N 
ENDROOT
BRANCH   1   4
HETATM    4  C10 LIG X 999      40.958 126.166  23.545  1.00  0.00     0.101 C 
HETATM    5  C9  LIG X 999      42.268 126.558  23.902  1.00  0.00     0.007 C 
HETATM    6  C8  LIG X 999      43.343 125.731  24.167  1.00  0.00    -0.022 C 
HETATM    7  C12 LIG X 999      42.743 127.966  23.883  1.00  0.00     0.278 C 
HETATM    8  C7  LIG X 999      43.256 124.410  24.624  1.00  0.00     0.012 C 
HETATM    9  C15 LIG X 999      44.608 126.509  24.134  1.00  0.00     0.276 C 
HETATM   10  C6  LIG X 999      44.000 123.350  24.087  1.00  0.00     0.037 C 
HETATM   11  C4  LIG X 999      44.482 123.268  22.764  1.00  0.00     0.068 C 
HETATM   12  C3  LIG X 999      43.954 124.018  21.682  1.00  0.00     0.037 C 
HETATM   13  C2  LIG X 999      42.673 124.584  21.638  1.00  0.00     0.003 C 
HETATM   14  C1  LIG X 999      41.579 124.069  22.345  1.00  0.00     0.002 C 
HETATM   15  C11 LIG X 999      40.656 124.890  23.007  1.00  0.00     0.035 C 
HETATM   16  N4  LIG X 999      44.227 127.898  23.746  1.00  0.00    -0.067 N 
HETATM   17  C13 LIG X 999      44.882 128.894  24.624  1.00  0.00     0.272 C 
HETATM   18  C14 LIG X 999      44.621 128.158  22.340  1.00  0.00     0.272 C 
BRANCH  11  19
HETATM   19  O1  LIG X 999      45.548 122.377  22.555  1.00  0.00    -0.356 OA
HETATM   20  C5  LIG X 999      46.812 122.737  22.007  1.00  0.00     0.210 C 
ENDBRANCH  11  19
ENDBRANCH   1   4
TORSDOF 2
