REMARK VINA RESULT:      -7.5      1.908      3.786
REMARK  1 active torsions:
REMARK  status: ('A' for Active; 'I' for Inactive)
REMARK    1  A    between atoms: C11_13  and  N2_14 
ROOT
HETATM    1  N2  LIG X 999      46.303 130.385  16.334  1.00  0.00    -0.053 NA
HETATM    2  N3  LIG X 999      46.524 130.896  15.235  1.00  0.00    -0.160 NA
HETATM    3  N4  LIG X 999      46.746 131.405  14.138  1.00  0.00     0.068 N 
ENDROOT
BRANCH   1   4
HETATM    4  C11 LIG X 999      45.266 130.880  17.183  1.00  0.00     0.175 A 
HETATM    5  C10 LIG X 999      45.315 130.902  18.570  1.00  0.00     0.026 A 
HETATM    6  C5  LIG X 999      44.137 131.447  18.954  1.00  0.00     0.017 A 
HETATM    7  C9  LIG X 999      46.257 130.507  19.522  1.00  0.00     0.016 A 
HETATM    8  C4  LIG X 999      43.401 131.743  17.857  1.00  0.00     0.046 A 
HETATM    9  C6  LIG X 999      43.760 131.659  20.260  1.00  0.00     0.005 A 
HETATM   10  C3  LIG X 999      42.065 132.350  17.994  1.00  0.00     0.033 A 
HETATM   11  N5  LIG X 999      44.083 131.400  16.742  1.00  0.00    -0.337 N 
HETATM   12  C2  LIG X 999      41.598 132.602  19.239  1.00  0.00     0.034 A 
HETATM   13  C1  LIG X 999      42.419 132.269  20.457  1.00  0.00     0.059 A 
HETATM   14  N1  LIG X 999      41.972 132.509  21.649  1.00  0.00    -0.300 NA
HETATM   15  H1  LIG X 999      41.033 132.939  21.807  1.00  0.00     0.187 HD
HETATM   16  H7  LIG X 999      43.766 131.511  15.753  1.00  0.00     0.167 HD
HETATM   17  C7  LIG X 999      44.678 131.275  21.261  1.00  0.00     0.015 A 
HETATM   18  C8  LIG X 999      45.926 130.701  20.888  1.00  0.00     0.002 A 
ENDBRANCH   1   4
TORSDOF 1
