REMARK VINA RESULT:      -8.2      1.486      5.204
REMARK  2 active torsions:
REMARK  status: ('A' for Active; 'I' for Inactive)
REMARK    1  A    between atoms: N1_1  and  C1_2 
REMARK    2  A    between atoms: C7_8  and  N2_9 
ROOT
HETATM    1  C1  LIG X 999      42.972 131.971  20.845  1.00  0.00     0.103 A 
HETATM    2  C2  LIG X 999      44.175 131.277  20.692  1.00  0.00     0.049 A 
HETATM    3  C3  LIG X 999      44.680 131.040  19.411  1.00  0.00     0.001 A 
HETATM    4  C4  LIG X 999      45.877 130.344  19.224  1.00  0.00     0.015 A 
HETATM    5  C5  LIG X 999      46.369 130.118  17.938  1.00  0.00     0.015 A 
HETATM    6  C6  LIG X 999      45.677 130.593  16.803  1.00  0.00     0.003 A 
HETATM    7  C7  LIG X 999      46.158 130.385  15.479  1.00  0.00     0.037 A 
HETATM    8  C8  LIG X 999      45.397 130.836  14.391  1.00  0.00     0.030 A 
HETATM    9  C9  LIG X 999      44.193 131.505  14.588  1.00  0.00     0.003 A 
HETATM   10  C10 LIG X 999      43.721 131.736  15.876  1.00  0.00     0.015 A 
HETATM   11  C11 LIG X 999      44.446 131.286  16.994  1.00  0.00     0.011 A 
HETATM   12  C12 LIG X 999      43.957 131.512  18.297  1.00  0.00     0.101 A 
HETATM   13  O1  LIG X 999      42.812 132.169  18.486  1.00  0.00    -0.272 OA
HETATM   14  C13 LIG X 999      42.302 132.411  19.691  1.00  0.00     0.314 A 
HETATM   15  O2  LIG X 999      41.216 133.040  19.784  1.00  0.00    -0.257 OA
ENDROOT
BRANCH   1  16
HETATM   16  N1  LIG X 999      42.444 132.219  22.153  1.00  0.00    -0.394 N 
HETATM   17  H1  LIG X 999      41.856 133.059  22.350  1.00  0.00     0.156 HD
HETATM   18  H2  LIG X 999      42.637 131.559  22.938  1.00  0.00     0.156 HD
ENDBRANCH   1  16
BRANCH   7  19
HETATM   19  N2  LIG X 999      47.411 129.738  15.203  1.00  0.00    -0.398 N 
HETATM   20  H6  LIG X 999      47.831 129.686  14.252  1.00  0.00     0.156 HD
HETATM   21  H7  LIG X 999      47.897 129.195  15.953  1.00  0.00     0.156 HD
ENDBRANCH   7  19
TORSDOF 2
