REMARK VINA RESULT:      -6.0      4.114      5.908
REMARK  1 active torsions:
REMARK  status: ('A' for Active; 'I' for Inactive)
REMARK    1  A    between atoms: C2_5  and  C3_6 
ROOT
HETATM    1  C3  LIG X 999      43.442 131.476  20.821  1.00  0.00     0.028 A 
HETATM    2  C4  LIG X 999      42.190 132.108  20.774  1.00  0.00     0.017 A 
HETATM    3  C5  LIG X 999      41.685 132.608  19.575  1.00  0.00     0.002 A 
HETATM    4  C6  LIG X 999      42.418 132.479  18.396  1.00  0.00     0.012 A 
HETATM    5  C7  LIG X 999      43.656 131.822  18.403  1.00  0.00    -0.025 A 
HETATM    6  C8  LIG X 999      44.372 131.669  17.205  1.00  0.00     0.012 A 
HETATM    7  C9  LIG X 999      45.585 130.979  17.193  1.00  0.00     0.001 A 
HETATM    8  C10 LIG X 999      46.085 130.425  18.371  1.00  0.00     0.001 A 
HETATM    9  C11 LIG X 999      45.388 130.571  19.573  1.00  0.00     0.013 A 
HETATM   10  C12 LIG X 999      44.176 131.296  19.617  1.00  0.00    -0.011 A 
ENDROOT
BRANCH   1  11
HETATM   11  C2  LIG X 999      43.941 131.048  22.144  1.00  0.00     0.177 A 
HETATM   12  O1  LIG X 999      43.845 129.819  22.608  1.00  0.00    -0.258 OA
HETATM   13  C1  LIG X 999      44.359 129.877  23.816  1.00  0.00     0.260 A 
HETATM   14  N1  LIG X 999      44.457 128.865  24.615  1.00  0.00    -0.261 NA
HETATM   15  N3  LIG X 999      44.767 131.118  24.123  1.00  0.00    -0.262 N 
HETATM   16  H1  LIG X 999      44.121 127.919  24.326  1.00  0.00     0.190 HD
HETATM   17  N2  LIG X 999      44.498 131.863  23.066  1.00  0.00    -0.276 N 
HETATM   18  H10 LIG X 999      45.196 131.456  25.013  1.00  0.00     0.190 HD
HETATM   19  H9  LIG X 999      44.658 132.893  23.001  1.00  0.00     0.189 HD
ENDBRANCH   1  11
TORSDOF 1
