REMARK VINA RESULT:      -8.4      1.089      6.360
REMARK  1 active torsions:
REMARK  status: ('A' for Active; 'I' for Inactive)
REMARK    1  A    between atoms: C2_2  and  N1_3 
ROOT
HETATM    1  N1  LIG X 999      47.024 129.738  14.353  1.00  0.00    -0.073 NA
HETATM    2  N2  LIG X 999      47.516 130.373  13.419  1.00  0.00    -0.162 NA
HETATM    3  N3  LIG X 999      48.007 131.004  12.486  1.00  0.00     0.068 N 
ENDROOT
BRANCH   1   4
HETATM    4  C2  LIG X 999      46.038 130.303  15.228  1.00  0.00     0.094 A 
HETATM    5  C1  LIG X 999      44.849 130.872  14.735  1.00  0.00     0.035 A 
HETATM    6  C11 LIG X 999      43.906 131.414  15.612  1.00  0.00     0.014 A 
HETATM    7  C10 LIG X 999      44.136 131.394  16.995  1.00  0.00    -0.024 A 
HETATM    8  C4  LIG X 999      45.329 130.824  17.498  1.00  0.00    -0.024 A 
HETATM    9  C9  LIG X 999      43.195 131.937  17.885  1.00  0.00     0.034 A 
HETATM   10  C3  LIG X 999      46.271 130.282  16.610  1.00  0.00     0.046 A 
HETATM   11  C5  LIG X 999      45.560 130.805  18.883  1.00  0.00     0.014 A 
HETATM   12  C6  LIG X 999      44.617 131.347  19.760  1.00  0.00     0.023 A 
HETATM   13  C7  LIG X 999      43.437 131.913  19.265  1.00  0.00     0.045 A 
HETATM   14  C8  LIG X 999      42.469 132.469  20.175  1.00  0.00     0.099 C 
HETATM   15  N4  LIG X 999      41.691 132.917  20.906  1.00  0.00    -0.191 NA
ENDBRANCH   1   4
TORSDOF 1
