REMARK VINA RESULT:      -7.2      0.000      0.000
REMARK  1 active torsions:
REMARK  status: ('A' for Active; 'I' for Inactive)
REMARK    1  A    between atoms: N1_2  and  C1_3 
ROOT
HETATM    1  C1  LIG X 999      43.267 131.787  22.844  1.00  0.00     0.143 C 
HETATM    2  N2  LIG X 999      42.469 132.243  21.849  1.00  0.00    -0.229 NA
HETATM    3  C2  LIG X 999      42.756 132.037  20.538  1.00  0.00     0.070 C 
HETATM    4  C3  LIG X 999      41.843 132.481  19.582  1.00  0.00     0.033 C 
HETATM    5  C4  LIG X 999      42.086 132.286  18.229  1.00  0.00     0.014 C 
HETATM    6  C5  LIG X 999      43.301 131.744  17.802  1.00  0.00    -0.025 C 
HETATM    7  C6  LIG X 999      43.566 131.657  16.425  1.00  0.00     0.012 C 
HETATM    8  C7  LIG X 999      44.817 131.245  15.975  1.00  0.00     0.001 C 
HETATM    9  C8  LIG X 999      45.824 130.956  16.890  1.00  0.00     0.001 C 
HETATM   10  C9  LIG X 999      45.571 131.024  18.263  1.00  0.00     0.013 C 
HETATM   11  C10 LIG X 999      44.281 131.335  18.753  1.00  0.00    -0.013 C 
HETATM   12  C11 LIG X 999      43.950 131.362  20.151  1.00  0.00     0.010 C 
HETATM   13  C12 LIG X 999      44.701 130.735  21.197  1.00  0.00    -0.045 C 
HETATM   14  C13 LIG X 999      45.734 129.656  20.975  1.00  0.00     0.049 C 
HETATM   15  C14 LIG X 999      44.384 131.017  22.536  1.00  0.00     0.059 C 
ENDROOT
BRANCH   1  16
HETATM   16  N1  LIG X 999      42.968 132.031  24.080  1.00  0.00    -0.282 NA
HETATM   17  H1  LIG X 999      42.003 132.318  24.362  1.00  0.00     0.188 HD
ENDBRANCH   1  16
TORSDOF 1
