REMARK VINA RESULT:      -4.3      1.856      2.421
REMARK  4 active torsions:
REMARK  status: ('A' for Active; 'I' for Inactive)
REMARK    1  A    between atoms: C4_4  and  N1_5 
REMARK    2  A    between atoms: C7_10  and  S1_11 
REMARK    3  A    between atoms: S1_11  and  C8_12 
REMARK    4  A    between atoms: C8_12  and  C9_13 
ROOT
HETATM    1  N1  LIG X 999      41.583 126.072  24.424  1.00  0.00    -0.071 NA
HETATM    2  N2  LIG X 999      40.780 125.389  23.787  1.00  0.00    -0.162 NA
HETATM    3  N3  LIG X 999      39.976 124.702  23.159  1.00  0.00     0.068 N 
ENDROOT
BRANCH   1   4
HETATM    4  C4  LIG X 999      42.810 126.572  23.865  1.00  0.00     0.108 A 
HETATM    5  C3  LIG X 999      43.834 125.656  23.610  1.00  0.00     0.008 A 
HETATM    6  C2  LIG X 999      45.015 126.034  23.058  1.00  0.00    -0.021 A 
HETATM    7  C15 LIG X 999      43.840 124.198  23.883  1.00  0.00     0.278 C 
HETATM    8  C1  LIG X 999      45.266 127.355  22.711  1.00  0.00     0.018 A 
HETATM    9  C18 LIG X 999      45.926 124.877  22.919  1.00  0.00     0.276 C 
HETATM   10  C6  LIG X 999      44.269 128.328  22.931  1.00  0.00    -0.035 A 
HETATM   11  C5  LIG X 999      43.048 127.952  23.576  1.00  0.00    -0.018 A 
HETATM   12  C7  LIG X 999      44.578 129.776  22.574  1.00  0.00     0.081 C 
HETATM   13  C14 LIG X 999      42.029 129.010  23.951  1.00  0.00     0.042 C 
HETATM   14  C13 LIG X 999      42.632 130.412  24.033  1.00  0.00     0.006 C 
HETATM   15  C12 LIG X 999      43.382 130.726  22.745  1.00  0.00     0.020 C 
HETATM   16  N4  LIG X 999      45.111 123.677  23.287  1.00  0.00    -0.067 N 
HETATM   17  C16 LIG X 999      44.813 122.875  22.075  1.00  0.00     0.272 C 
HETATM   18  C17 LIG X 999      45.837 122.830  24.260  1.00  0.00     0.272 C 
BRANCH  12  19
HETATM   19  S1  LIG X 999      45.292 129.950  20.885  1.00  0.00    -0.147 SA
BRANCH  19  20
HETATM   20  C8  LIG X 999      44.949 131.725  20.602  1.00  0.00     0.168 C 
BRANCH  20  21
HETATM   21  C9  LIG X 999      46.063 132.523  21.117  1.00  0.00    -0.097 C 
HETATM   22  C10 LIG X 999      46.980 133.184  21.537  1.00  0.00    -0.110 C 
HETATM   23  C11 LIG X 999      48.091 133.988  22.047  1.00  0.00     0.112 C 
ENDBRANCH  20  21
ENDBRANCH  19  20
ENDBRANCH  12  19
ENDBRANCH   1   4
TORSDOF 4
