REMARK VINA RESULT:      -5.3      6.837      8.763
REMARK  2 active torsions:
REMARK  status: ('A' for Active; 'I' for Inactive)
REMARK    1  A    between atoms: C2_2  and  N1_3 
REMARK    2  A    between atoms: C3_6  and  O1_7 
ROOT
HETATM    1  N1  LIG X 999      42.037 129.700  24.265  1.00  0.00    -0.070 NA
HETATM    2  N2  LIG X 999      42.405 130.749  23.734  1.00  0.00    -0.162 NA
HETATM    3  N3  LIG X 999      42.772 131.798  23.206  1.00  0.00     0.068 N 
ENDROOT
BRANCH   1   4
HETATM    4  C2  LIG X 999      42.573 128.420  23.895  1.00  0.00     0.127 A 
HETATM    5  C1  LIG X 999      43.923 128.273  23.522  1.00  0.00     0.049 A 
HETATM    6  C11 LIG X 999      44.428 127.017  23.165  1.00  0.00    -0.023 A 
HETATM    7  C6  LIG X 999      43.569 125.884  23.181  1.00  0.00    -0.022 A 
HETATM    8  C10 LIG X 999      45.778 126.869  22.789  1.00  0.00     0.021 A 
HETATM    9  C5  LIG X 999      42.227 126.036  23.552  1.00  0.00     0.051 A 
HETATM   10  C7  LIG X 999      44.074 124.618  22.819  1.00  0.00     0.021 A 
HETATM   11  C3  LIG X 999      41.723 127.301  23.911  1.00  0.00     0.100 A 
HETATM   12  C8  LIG X 999      45.419 124.512  22.460  1.00  0.00    -0.024 A 
HETATM   13  C9  LIG X 999      46.240 125.597  22.446  1.00  0.00    -0.024 A 
HETATM   14  C15 LIG X 999      46.150 123.301  22.027  1.00  0.00     0.276 C 
HETATM   15  C12 LIG X 999      47.598 125.215  22.002  1.00  0.00     0.276 C 
HETATM   16  N4  LIG X 999      47.581 123.721  21.891  1.00  0.00    -0.067 N 
HETATM   17  C13 LIG X 999      48.389 123.123  22.980  1.00  0.00     0.272 C 
HETATM   18  C14 LIG X 999      48.132 123.286  20.588  1.00  0.00     0.272 C 
BRANCH  11  19
HETATM   19  O1  LIG X 999      40.383 127.487  24.289  1.00  0.00    -0.353 OA
HETATM   20  C4  LIG X 999      39.317 126.607  23.946  1.00  0.00     0.210 C 
ENDBRANCH  11  19
ENDBRANCH   1   4
TORSDOF 2
