MODEL 1
REMARK VINA RESULT:      -6.5      0.000      0.000
REMARK  2 active torsions:
REMARK  status: ('A' for Active; 'I' for Inactive)
REMARK       I    between atoms: N1_1  and  C1_2 
REMARK    1  A    between atoms: C1_2  and  C2_4 
REMARK    2  A    between atoms: C11_13  and  O2_14 
ROOT
HETATM    1  C2  LIG X 999      45.614 130.371  14.642  1.00  0.00     0.116 C 
HETATM    2  C3  LIG X 999      44.806 131.130  13.563  1.00  0.00     0.017 C 
HETATM    3  C4  LIG X 999      43.336 131.323  13.971  1.00  0.00     0.002 C 
HETATM    4  C5  LIG X 999      43.209 131.993  15.349  1.00  0.00     0.012 C 
HETATM    5  C6  LIG X 999      43.993 131.188  16.394  1.00  0.00     0.047 C 
HETATM    6  C7  LIG X 999      43.828 131.719  17.798  1.00  0.00    -0.019 C 
HETATM    7  C8  LIG X 999      44.682 131.324  18.750  1.00  0.00    -0.004 C 
HETATM    8  C9  LIG X 999      45.857 130.492  18.401  1.00  0.00    -0.001 C 
HETATM    9  C10 LIG X 999      46.223 130.329  17.120  1.00  0.00     0.012 C 
HETATM   10  C11 LIG X 999      45.502 131.093  16.015  1.00  0.00     0.095 C 
ENDROOT
BRANCH   1  11
HETATM   11  C1  LIG X 999      47.050 130.214  14.195  1.00  0.00     0.222 C 
HETATM   12  N1  LIG X 999      47.714 128.955  14.322  1.00  0.00    -0.370 N 
HETATM   13  H1  LIG X 999      47.223 128.127  14.727  1.00  0.00     0.159 HD
HETATM   14  H2  LIG X 999      48.706 128.851  14.015  1.00  0.00     0.159 HD
HETATM   15  O1  LIG X 999      47.678 131.198  13.720  1.00  0.00    -0.273 OA
ENDBRANCH   1  11
BRANCH  10  16
HETATM   16  O2  LIG X 999      46.069 132.382  15.893  1.00  0.00    -0.384 OA
HETATM   17  H15 LIG X 999      46.896 132.320  15.349  1.00  0.00     0.211 HD
ENDBRANCH  10  16
TORSDOF 2
ENDMDL
MODEL 2
REMARK VINA RESULT:      -5.6      3.293      5.693
REMARK  2 active torsions:
REMARK  status: ('A' for Active; 'I' for Inactive)
REMARK       I    between atoms: N1_1  and  C1_2 
REMARK    1  A    between atoms: C1_2  and  C2_4 
REMARK    2  A    between atoms: C11_13  and  O2_14 
ROOT
HETATM    1  C2  LIG X 999      43.094 131.545  19.686  1.00  0.00     0.116 C 
HETATM    2  C3  LIG X 999      43.716 131.614  21.101  1.00  0.00     0.017 C 
HETATM    3  C4  LIG X 999      44.807 130.549  21.305  1.00  0.00     0.002 C 
HETATM    4  C5  LIG X 999      45.884 130.617  20.211  1.00  0.00     0.012 C 
HETATM    5  C6  LIG X 999      45.228 130.507  18.827  1.00  0.00     0.047 C 
HETATM    6  C7  LIG X 999      46.229 130.454  17.699  1.00  0.00    -0.019 C 
HETATM    7  C8  LIG X 999      45.812 130.672  16.445  1.00  0.00    -0.004 C 
HETATM    8  C9  LIG X 999      44.419 131.101  16.185  1.00  0.00    -0.001 C 
HETATM    9  C10 LIG X 999      43.632 131.515  17.191  1.00  0.00     0.012 C 
HETATM   10  C11 LIG X 999      44.201 131.657  18.598  1.00  0.00     0.095 C 
ENDROOT
BRANCH   1  11
HETATM   11  C1  LIG X 999      42.035 132.614  19.535  1.00  0.00     0.222 C 
HETATM   12  N1  LIG X 999      41.557 132.981  18.240  1.00  0.00    -0.370 N 
HETATM   13  H1  LIG X 999      41.932 132.524  17.380  1.00  0.00     0.159 HD
HETATM   14  H2  LIG X 999      40.829 133.723  18.140  1.00  0.00     0.159 HD
HETATM   15  O1  LIG X 999      41.576 133.199  20.552  1.00  0.00    -0.273 OA
ENDBRANCH   1  11
BRANCH  10  16
HETATM   16  O2  LIG X 999      44.827 132.918  18.723  1.00  0.00    -0.384 OA
HETATM   17  H15 LIG X 999      45.094 133.236  17.823  1.00  0.00     0.211 HD
ENDBRANCH  10  16
TORSDOF 2
ENDMDL
MODEL 3
REMARK VINA RESULT:      -5.2      2.444      3.834
REMARK  2 active torsions:
REMARK  status: ('A' for Active; 'I' for Inactive)
REMARK       I    between atoms: N1_1  and  C1_2 
REMARK    1  A    between atoms: C1_2  and  C2_4 
REMARK    2  A    between atoms: C11_13  and  O2_14 
ROOT
HETATM    1  C2  LIG X 999      44.124 131.117  18.038  1.00  0.00     0.116 C 
HETATM    2  C3  LIG X 999      43.085 132.087  17.424  1.00  0.00     0.017 C 
HETATM    3  C4  LIG X 999      41.786 132.137  18.244  1.00  0.00     0.002 C 
HETATM    4  C5  LIG X 999      42.055 132.460  19.723  1.00  0.00     0.012 C 
HETATM    5  C6  LIG X 999      43.060 131.453  20.302  1.00  0.00     0.047 C 
HETATM    6  C7  LIG X 999      43.294 131.634  21.782  1.00  0.00    -0.019 C 
HETATM    7  C8  LIG X 999      44.356 131.049  22.350  1.00  0.00    -0.004 C 
HETATM    8  C9  LIG X 999      45.364 130.357  21.515  1.00  0.00    -0.001 C 
HETATM    9  C10 LIG X 999      45.369 130.511  20.182  1.00  0.00     0.012 C 
HETATM   10  C11 LIG X 999      44.408 131.492  19.521  1.00  0.00     0.095 C 
ENDROOT
BRANCH   1  11
HETATM   11  C1  LIG X 999      45.382 131.111  17.199  1.00  0.00     0.222 C 
HETATM   12  N1  LIG X 999      46.211 129.949  17.150  1.00  0.00    -0.370 N 
HETATM   13  H1  LIG X 999      45.967 129.090  17.692  1.00  0.00     0.159 HD
HETATM   14  H2  LIG X 999      47.081 129.949  16.572  1.00  0.00     0.159 HD
HETATM   15  O1  LIG X 999      45.716 132.136  16.548  1.00  0.00    -0.273 OA
ENDBRANCH   1  11
BRANCH  10  16
HETATM   16  O2  LIG X 999      44.969 132.789  19.557  1.00  0.00    -0.384 OA
HETATM   17  H15 LIG X 999      44.767 133.251  18.702  1.00  0.00     0.211 HD
ENDBRANCH  10  16
TORSDOF 2
ENDMDL
MODEL 4
REMARK VINA RESULT:      -4.8      5.191      6.888
REMARK  2 active torsions:
REMARK  status: ('A' for Active; 'I' for Inactive)
REMARK       I    between atoms: N1_1  and  C1_2 
REMARK    1  A    between atoms: C1_2  and  C2_4 
REMARK    2  A    between atoms: C11_13  and  O2_14 
ROOT
HETATM    1  C2  LIG X 999      43.338 132.329  20.432  1.00  0.00     0.116 C 
HETATM    2  C3  LIG X 999      44.104 131.578  19.316  1.00  0.00     0.017 C 
HETATM    3  C4  LIG X 999      45.452 131.028  19.810  1.00  0.00     0.002 C 
HETATM    4  C5  LIG X 999      45.289 130.159  21.067  1.00  0.00     0.012 C 
HETATM    5  C6  LIG X 999      44.559 130.953  22.159  1.00  0.00     0.047 C 
HETATM    6  C7  LIG X 999      44.456 130.207  23.467  1.00  0.00    -0.019 C 
HETATM    7  C8  LIG X 999      43.590 130.633  24.395  1.00  0.00    -0.004 C 
HETATM    8  C9  LIG X 999      42.645 131.731  24.088  1.00  0.00    -0.001 C 
HETATM    9  C10 LIG X 999      42.467 132.145  22.824  1.00  0.00     0.012 C 
HETATM   10  C11 LIG X 999      43.150 131.413  21.675  1.00  0.00     0.095 C 
ENDROOT
BRANCH   1  11
HETATM   11  C1  LIG X 999      42.020 132.843  19.896  1.00  0.00     0.222 C 
HETATM   12  N1  LIG X 999      41.717 132.742  18.504  1.00  0.00    -0.370 N 
HETATM   13  H1  LIG X 999      42.398 132.319  17.835  1.00  0.00     0.159 HD
HETATM   14  H2  LIG X 999      40.808 133.101  18.137  1.00  0.00     0.159 HD
HETATM   15  O1  LIG X 999      41.184 133.377  20.674  1.00  0.00    -0.273 OA
ENDBRANCH   1  11
BRANCH  10  16
HETATM   16  O2  LIG X 999      42.364 130.300  21.298  1.00  0.00    -0.384 OA
HETATM   17  H15 LIG X 999      42.121 129.786  22.111  1.00  0.00     0.211 HD
ENDBRANCH  10  16
TORSDOF 2
ENDMDL
MODEL 5
REMARK VINA RESULT:      -4.6      4.606      6.128
REMARK  2 active torsions:
REMARK  status: ('A' for Active; 'I' for Inactive)
REMARK       I    between atoms: N1_1  and  C1_2 
REMARK    1  A    between atoms: C1_2  and  C2_4 
REMARK    2  A    between atoms: C11_13  and  O2_14 
ROOT
HETATM    1  C2  LIG X 999      44.328 130.961  20.349  1.00  0.00     0.116 C 
HETATM    2  C3  LIG X 999      43.716 132.343  20.015  1.00  0.00     0.017 C 
HETATM    3  C4  LIG X 999      42.288 132.490  20.564  1.00  0.00     0.002 C 
HETATM    4  C5  LIG X 999      42.220 132.192  22.070  1.00  0.00     0.012 C 
HETATM    5  C6  LIG X 999      42.802 130.799  22.352  1.00  0.00     0.047 C 
HETATM    6  C7  LIG X 999      42.672 130.384  23.797  1.00  0.00    -0.019 C 
HETATM    7  C8  LIG X 999      43.399 129.354  24.248  1.00  0.00    -0.004 C 
HETATM    8  C9  LIG X 999      44.421 128.725  23.382  1.00  0.00    -0.001 C 
HETATM    9  C10 LIG X 999      44.810 129.317  22.242  1.00  0.00     0.012 C 
HETATM   10  C11 LIG X 999      44.286 130.703  21.883  1.00  0.00     0.095 C 
ENDROOT
BRANCH   1  11
HETATM   11  C1  LIG X 999      45.732 130.871  19.794  1.00  0.00     0.222 C 
HETATM   12  N1  LIG X 999      45.975 130.225  18.543  1.00  0.00    -0.370 N 
HETATM   13  H1  LIG X 999      45.192 129.803  17.995  1.00  0.00     0.159 HD
HETATM   14  H2  LIG X 999      46.946 130.161  18.164  1.00  0.00     0.159 HD
HETATM   15  O1  LIG X 999      46.702 131.352  20.439  1.00  0.00    -0.273 OA
ENDBRANCH   1  11
BRANCH  10  16
HETATM   16  O2  LIG X 999      45.077 131.682  22.525  1.00  0.00    -0.384 OA
HETATM   17  H15 LIG X 999      45.887 131.852  21.978  1.00  0.00     0.211 HD
ENDBRANCH  10  16
TORSDOF 2
ENDMDL
MODEL 6
REMARK VINA RESULT:      -4.0      9.372     10.477
REMARK  2 active torsions:
REMARK  status: ('A' for Active; 'I' for Inactive)
REMARK       I    between atoms: N1_1  and  C1_2 
REMARK    1  A    between atoms: C1_2  and  C2_4 
REMARK    2  A    between atoms: C11_13  and  O2_14 
ROOT
HETATM    1  C2  LIG X 999      50.543 123.162  19.792  1.00  0.00     0.116 C 
HETATM    2  C3  LIG X 999      49.053 123.503  19.543  1.00  0.00     0.017 C 
HETATM    3  C4  LIG X 999      48.203 123.334  20.813  1.00  0.00     0.002 C 
HETATM    4  C5  LIG X 999      48.775 124.133  21.995  1.00  0.00     0.012 C 
HETATM    5  C6  LIG X 999      50.240 123.738  22.230  1.00  0.00     0.047 C 
HETATM    6  C7  LIG X 999      50.844 124.397  23.446  1.00  0.00    -0.019 C 
HETATM    7  C8  LIG X 999      52.175 124.396  23.594  1.00  0.00    -0.004 C 
HETATM    8  C9  LIG X 999      53.048 123.885  22.514  1.00  0.00    -0.001 C 
HETATM    9  C10 LIG X 999      52.552 123.649  21.289  1.00  0.00     0.012 C 
HETATM   10  C11 LIG X 999      51.108 124.013  20.965  1.00  0.00     0.095 C 
ENDROOT
BRANCH   1  11
HETATM   11  C1  LIG X 999      51.334 123.350  18.517  1.00  0.00     0.222 C 
HETATM   12  N1  LIG X 999      51.387 124.627  17.880  1.00  0.00    -0.370 N 
HETATM   13  H1  LIG X 999      50.880 125.448  18.279  1.00  0.00     0.159 HD
HETATM   14  H2  LIG X 999      51.931 124.752  16.998  1.00  0.00     0.159 HD
HETATM   15  O1  LIG X 999      51.942 122.375  17.998  1.00  0.00    -0.273 OA
ENDBRANCH   1  11
BRANCH  10  16
HETATM   16  O2  LIG X 999      51.042 125.378  20.601  1.00  0.00    -0.384 OA
HETATM   17  H15 LIG X 999      50.101 125.611  20.392  1.00  0.00     0.211 HD
ENDBRANCH  10  16
TORSDOF 2
ENDMDL
MODEL 7
REMARK VINA RESULT:      -3.9     10.570     12.047
REMARK  2 active torsions:
REMARK  status: ('A' for Active; 'I' for Inactive)
REMARK       I    between atoms: N1_1  and  C1_2 
REMARK    1  A    between atoms: C1_2  and  C2_4 
REMARK    2  A    between atoms: C11_13  and  O2_14 
ROOT
HETATM    1  C2  LIG X 999      52.748 136.658  23.250  1.00  0.00     0.116 C 
HETATM    2  C3  LIG X 999      53.392 137.464  24.405  1.00  0.00     0.017 C 
HETATM    3  C4  LIG X 999      53.625 138.935  24.022  1.00  0.00     0.002 C 
HETATM    4  C5  LIG X 999      52.338 139.604  23.514  1.00  0.00     0.012 C 
HETATM    5  C6  LIG X 999      51.754 138.794  22.348  1.00  0.00     0.047 C 
HETATM    6  C7  LIG X 999      50.547 139.446  21.718  1.00  0.00    -0.019 C 
HETATM    7  C8  LIG X 999      49.759 138.721  20.915  1.00  0.00    -0.004 C 
HETATM    8  C9  LIG X 999      49.984 137.266  20.761  1.00  0.00    -0.001 C 
HETATM    9  C10 LIG X 999      50.806 136.609  21.596  1.00  0.00     0.012 C 
HETATM   10  C11 LIG X 999      51.427 137.334  22.784  1.00  0.00     0.095 C 
ENDROOT
BRANCH   1  11
HETATM   11  C1  LIG X 999      52.535 135.224  23.680  1.00  0.00     0.222 C 
HETATM   12  N1  LIG X 999      53.291 134.170  23.080  1.00  0.00    -0.370 N 
HETATM   13  H1  LIG X 999      53.996 134.370  22.337  1.00  0.00     0.159 HD
HETATM   14  H2  LIG X 999      53.138 133.180  23.376  1.00  0.00     0.159 HD
HETATM   15  O1  LIG X 999      51.678 134.945  24.561  1.00  0.00    -0.273 OA
ENDBRANCH   1  11
BRANCH  10  16
HETATM   16  O2  LIG X 999      50.515 137.328  23.864  1.00  0.00    -0.384 OA
HETATM   17  H15 LIG X 999      51.006 137.123  24.701  1.00  0.00     0.211 HD
ENDBRANCH  10  16
TORSDOF 2
ENDMDL
MODEL 8
REMARK VINA RESULT:      -3.9      7.463      8.877
REMARK  2 active torsions:
REMARK  status: ('A' for Active; 'I' for Inactive)
REMARK       I    between atoms: N1_1  and  C1_2 
REMARK    1  A    between atoms: C1_2  and  C2_4 
REMARK    2  A    between atoms: C11_13  and  O2_14 
ROOT
HETATM    1  C2  LIG X 999      43.266 129.516  23.024  1.00  0.00     0.116 C 
HETATM    2  C3  LIG X 999      42.171 129.770  24.089  1.00  0.00     0.017 C 
HETATM    3  C4  LIG X 999      41.275 128.539  24.301  1.00  0.00     0.002 C 
HETATM    4  C5  LIG X 999      42.097 127.282  24.624  1.00  0.00     0.012 C 
HETATM    5  C6  LIG X 999      43.144 127.047  23.526  1.00  0.00     0.047 C 
HETATM    6  C7  LIG X 999      43.921 125.766  23.712  1.00  0.00    -0.019 C 
HETATM    7  C8  LIG X 999      45.057 125.587  23.026  1.00  0.00    -0.004 C 
HETATM    8  C9  LIG X 999      45.617 126.687  22.207  1.00  0.00    -0.001 C 
HETATM    9  C10 LIG X 999      45.148 127.938  22.330  1.00  0.00     0.012 C 
HETATM   10  C11 LIG X 999      44.109 128.264  23.398  1.00  0.00     0.095 C 
ENDROOT
BRANCH   1  11
HETATM   11  C1  LIG X 999      44.121 130.753  22.859  1.00  0.00     0.222 C 
HETATM   12  N1  LIG X 999      44.629 131.438  24.005  1.00  0.00    -0.370 N 
HETATM   13  H1  LIG X 999      44.417 131.102  24.971  1.00  0.00     0.159 HD
HETATM   14  H2  LIG X 999      45.216 132.294  23.888  1.00  0.00     0.159 HD
HETATM   15  O1  LIG X 999      44.380 131.196  21.709  1.00  0.00    -0.273 OA
ENDBRANCH   1  11
BRANCH  10  16
HETATM   16  O2  LIG X 999      44.764 128.513  24.625  1.00  0.00    -0.384 OA
HETATM   17  H15 LIG X 999      44.091 128.524  25.354  1.00  0.00     0.211 HD
ENDBRANCH  10  16
TORSDOF 2
ENDMDL
MODEL 9
REMARK VINA RESULT:      -3.8      5.338      7.721
REMARK  2 active torsions:
REMARK  status: ('A' for Active; 'I' for Inactive)
REMARK       I    between atoms: N1_1  and  C1_2 
REMARK    1  A    between atoms: C1_2  and  C2_4 
REMARK    2  A    between atoms: C11_13  and  O2_14 
ROOT
HETATM    1  C2  LIG X 999      43.392 130.512  22.813  1.00  0.00     0.116 C 
HETATM    2  C3  LIG X 999      44.250 129.513  23.628  1.00  0.00     0.017 C 
HETATM    3  C4  LIG X 999      44.860 128.417  22.739  1.00  0.00     0.002 C 
HETATM    4  C5  LIG X 999      45.650 129.011  21.561  1.00  0.00     0.012 C 
HETATM    5  C6  LIG X 999      44.753 129.964  20.760  1.00  0.00     0.047 C 
HETATM    6  C7  LIG X 999      45.420 130.505  19.519  1.00  0.00    -0.019 C 
HETATM    7  C8  LIG X 999      44.890 131.569  18.903  1.00  0.00    -0.004 C 
HETATM    8  C9  LIG X 999      43.750 132.292  19.510  1.00  0.00    -0.001 C 
HETATM    9  C10 LIG X 999      43.391 132.058  20.783  1.00  0.00     0.012 C 
HETATM   10  C11 LIG X 999      44.227 131.128  21.654  1.00  0.00     0.095 C 
ENDROOT
BRANCH   1  11
HETATM   11  C1  LIG X 999      42.821 131.569  23.731  1.00  0.00     0.222 C 
HETATM   12  N1  LIG X 999      43.675 132.293  24.619  1.00  0.00    -0.370 N 
HETATM   13  H1  LIG X 999      44.701 132.103  24.652  1.00  0.00     0.159 HD
HETATM   14  H2  LIG X 999      43.277 133.020  25.254  1.00  0.00     0.159 HD
HETATM   15  O1  LIG X 999      41.584 131.811  23.729  1.00  0.00    -0.273 OA
ENDBRANCH   1  11
BRANCH  10  16
HETATM   16  O2  LIG X 999      45.303 131.854  22.213  1.00  0.00    -0.384 OA
HETATM   17  H15 LIG X 999      45.780 131.275  22.862  1.00  0.00     0.211 HD
ENDBRANCH  10  16
TORSDOF 2
ENDMDL
