REMARK VINA RESULT:      -7.6      1.732      2.751
REMARK  6 active torsions:
REMARK  status: ('A' for Active; 'I' for Inactive)
REMARK    1  A    between atoms: C4_5  and  C5_6 
REMARK       I    between atoms: C5_6  and  N2_8 
REMARK    2  A    between atoms: N2_8  and  C6_9 
REMARK    3  A    between atoms: C6_9  and  O2_10 
REMARK    4  A    between atoms: O2_10  and  C7_11 
REMARK    5  A    between atoms: C7_11  and  O4_13 
REMARK    6  A    between atoms: O4_13  and  C8_14 
ROOT
HETATM    1  C7  LIG X 999      42.185 132.428  19.961  1.00  0.00     0.413 C 
HETATM    2  O3  LIG X 999      41.808 133.547  20.404  1.00  0.00    -0.229 OA
ENDROOT
BRANCH   1   3
HETATM    3  O2  LIG X 999      42.511 131.391  20.839  1.00  0.00    -0.276 OA
BRANCH   3   4
HETATM    4  C6  LIG X 999      43.328 131.558  21.996  1.00  0.00     0.334 C 
BRANCH   4   5
HETATM    5  N2  LIG X 999      43.413 130.303  22.734  1.00  0.00    -0.224 NA
HETATM    6  C5  LIG X 999      44.395 129.289  22.493  1.00  0.00     0.292 C 
HETATM    7  O1  LIG X 999      45.336 129.490  21.679  1.00  0.00    -0.264 OA
BRANCH   6   8
HETATM    8  C4  LIG X 999      44.314 128.011  23.214  1.00  0.00     0.119 A 
HETATM    9  C3  LIG X 999      45.385 127.244  23.645  1.00  0.00     0.055 A 
HETATM   10  C2  LIG X 999      44.806 126.142  24.246  1.00  0.00     0.112 A 
HETATM   11  N1  LIG X 999      43.467 126.270  24.179  1.00  0.00    -0.307 N 
HETATM   12  C1  LIG X 999      42.489 125.287  24.625  1.00  0.00     0.177 C 
HETATM   13  N3  LIG X 999      43.165 127.391  23.545  1.00  0.00    -0.294 N 
HETATM   14  H15 LIG X 999      42.195 127.716  23.334  1.00  0.00     0.187 HD
ENDBRANCH   6   8
ENDBRANCH   4   5
ENDBRANCH   3   4
ENDBRANCH   1   3
BRANCH   1  15
HETATM   15  O4  LIG X 999      42.330 132.214  18.586  1.00  0.00    -0.256 OA
BRANCH  15  16
HETATM   16  C8  LIG X 999      43.478 131.706  17.959  1.00  0.00     0.082 A 
HETATM   17  C9  LIG X 999      44.583 131.231  18.688  1.00  0.00     0.038 A 
HETATM   18  C10 LIG X 999      45.713 130.741  18.026  1.00  0.00     0.015 A 
HETATM   19  C11 LIG X 999      45.757 130.726  16.624  1.00  0.00    -0.026 A 
HETATM   20  C12 LIG X 999      46.885 130.234  15.948  1.00  0.00     0.012 A 
HETATM   21  C16 LIG X 999      44.656 131.219  15.885  1.00  0.00    -0.023 A 
HETATM   22  C13 LIG X 999      46.919 130.231  14.551  1.00  0.00     0.001 A 
HETATM   23  C14 LIG X 999      45.832 130.718  13.820  1.00  0.00     0.001 A 
HETATM   24  C15 LIG X 999      44.704 131.212  14.481  1.00  0.00     0.012 A 
HETATM   25  C17 LIG X 999      43.529 131.711  16.559  1.00  0.00     0.049 A 
ENDBRANCH  15  16
ENDBRANCH   1  15
TORSDOF 6
