MODEL 1
REMARK VINA RESULT:      -8.0      0.000      0.000
REMARK  1 active torsions:
REMARK  status: ('A' for Active; 'I' for Inactive)
REMARK    1  A    between atoms: C14_14  and  N1_15 
ROOT
HETATM    1  N1  LIG X 999      42.711 131.466  23.505  1.00  0.00    -0.054 NA
HETATM    2  N2  LIG X 999      42.358 130.425  24.063  1.00  0.00    -0.160 NA
HETATM    3  N3  LIG X 999      42.006 129.388  24.622  1.00  0.00     0.068 N 
ENDROOT
BRANCH   1   4
HETATM    4  C14 LIG X 999      43.260 131.481  22.179  1.00  0.00     0.165 C 
HETATM    5  C13 LIG X 999      44.627 131.298  21.952  1.00  0.00     0.061 C 
HETATM    6  C11 LIG X 999      45.143 131.335  20.648  1.00  0.00    -0.045 C 
HETATM    7  C10 LIG X 999      44.241 131.419  19.541  1.00  0.00     0.008 C 
HETATM    8  C12 LIG X 999      46.645 131.437  20.531  1.00  0.00     0.049 C 
HETATM    9  C4  LIG X 999      44.604 131.250  18.162  1.00  0.00    -0.013 C 
HETATM   10  C9  LIG X 999      42.885 131.736  19.841  1.00  0.00     0.045 C 
HETATM   11  C3  LIG X 999      45.787 130.595  17.742  1.00  0.00     0.013 C 
HETATM   12  C5  LIG X 999      43.690 131.658  17.149  1.00  0.00    -0.025 C 
HETATM   13  C2  LIG X 999      46.122 130.506  16.389  1.00  0.00     0.001 C 
HETATM   14  C1  LIG X 999      45.267 131.020  15.419  1.00  0.00     0.001 C 
HETATM   15  C6  LIG X 999      44.047 131.576  15.793  1.00  0.00     0.012 C 
HETATM   16  C7  LIG X 999      42.408 132.091  17.491  1.00  0.00     0.014 C 
HETATM   17  C8  LIG X 999      41.993 132.076  18.815  1.00  0.00     0.031 C 
HETATM   18  N4  LIG X 999      42.439 131.736  21.130  1.00  0.00    -0.338 N 
HETATM   19  H11 LIG X 999      41.431 131.933  21.330  1.00  0.00     0.167 HD
ENDBRANCH   1   4
TORSDOF 1
ENDMDL
MODEL 2
REMARK VINA RESULT:      -7.9      4.252      6.700
REMARK  1 active torsions:
REMARK  status: ('A' for Active; 'I' for Inactive)
REMARK    1  A    between atoms: C14_14  and  N1_15 
ROOT
HETATM    1  N1  LIG X 999      47.182 128.883  14.567  1.00  0.00    -0.054 NA
HETATM    2  N2  LIG X 999      47.940 129.412  13.751  1.00  0.00    -0.160 NA
HETATM    3  N3  LIG X 999      48.697 129.937  12.938  1.00  0.00     0.068 N 
ENDROOT
BRANCH   1   4
HETATM    4  C14 LIG X 999      46.318 129.647  15.422  1.00  0.00     0.165 C 
HETATM    5  C13 LIG X 999      45.219 130.347  14.915  1.00  0.00     0.061 C 
HETATM    6  C11 LIG X 999      44.400 131.100  15.769  1.00  0.00    -0.045 C 
HETATM    7  C10 LIG X 999      44.612 131.033  17.182  1.00  0.00     0.008 C 
HETATM    8  C12 LIG X 999      43.442 132.055  15.097  1.00  0.00     0.049 C 
HETATM    9  C4  LIG X 999      43.729 131.570  18.178  1.00  0.00    -0.013 C 
HETATM   10  C9  LIG X 999      45.820 130.416  17.620  1.00  0.00     0.045 C 
HETATM   11  C3  LIG X 999      42.369 131.874  17.932  1.00  0.00     0.013 C 
HETATM   12  C5  LIG X 999      44.196 131.710  19.516  1.00  0.00    -0.025 C 
HETATM   13  C2  LIG X 999      41.566 132.447  18.920  1.00  0.00     0.001 C 
HETATM   14  C1  LIG X 999      42.080 132.687  20.191  1.00  0.00     0.001 C 
HETATM   15  C6  LIG X 999      43.383 132.302  20.496  1.00  0.00     0.012 C 
HETATM   16  C7  LIG X 999      45.447 131.209  19.880  1.00  0.00     0.014 C 
HETATM   17  C8  LIG X 999      46.222 130.521  18.958  1.00  0.00     0.031 C 
HETATM   18  N4  LIG X 999      46.611 129.735  16.744  1.00  0.00    -0.338 N 
HETATM   19  H11 LIG X 999      47.475 129.254  17.089  1.00  0.00     0.167 HD
ENDBRANCH   1   4
TORSDOF 1
ENDMDL
MODEL 3
REMARK VINA RESULT:      -7.5      3.543      5.946
REMARK  1 active torsions:
REMARK  status: ('A' for Active; 'I' for Inactive)
REMARK    1  A    between atoms: C14_14  and  N1_15 
ROOT
HETATM    1  N1  LIG X 999      44.890 131.552  14.529  1.00  0.00    -0.054 NA
HETATM    2  N2  LIG X 999      45.941 131.196  13.992  1.00  0.00    -0.160 NA
HETATM    3  N3  LIG X 999      46.988 130.840  13.456  1.00  0.00     0.068 N 
ENDROOT
BRANCH   1   4
HETATM    4  C14 LIG X 999      44.680 131.463  15.947  1.00  0.00     0.165 C 
HETATM    5  C13 LIG X 999      45.621 130.863  16.789  1.00  0.00     0.061 C 
HETATM    6  C11 LIG X 999      45.385 130.772  18.168  1.00  0.00    -0.045 C 
HETATM    7  C10 LIG X 999      44.239 131.422  18.727  1.00  0.00     0.008 C 
HETATM    8  C12 LIG X 999      46.297 129.847  18.938  1.00  0.00     0.049 C 
HETATM    9  C4  LIG X 999      43.989 131.597  20.130  1.00  0.00    -0.013 C 
HETATM   10  C9  LIG X 999      43.259 131.895  17.808  1.00  0.00     0.045 C 
HETATM   11  C3  LIG X 999      44.998 131.514  21.118  1.00  0.00     0.013 C 
HETATM   12  C5  LIG X 999      42.685 131.979  20.559  1.00  0.00    -0.025 C 
HETATM   13  C2  LIG X 999      44.691 131.636  22.475  1.00  0.00     0.001 C 
HETATM   14  C1  LIG X 999      43.385 131.891  22.880  1.00  0.00     0.001 C 
HETATM   15  C6  LIG X 999      42.388 132.083  21.927  1.00  0.00     0.012 C 
HETATM   16  C7  LIG X 999      41.705 132.309  19.622  1.00  0.00     0.014 C 
HETATM   17  C8  LIG X 999      42.006 132.322  18.267  1.00  0.00     0.031 C 
HETATM   18  N4  LIG X 999      43.514 131.920  16.469  1.00  0.00    -0.338 N 
HETATM   19  H11 LIG X 999      42.798 132.307  15.810  1.00  0.00     0.167 HD
ENDBRANCH   1   4
TORSDOF 1
ENDMDL
MODEL 4
REMARK VINA RESULT:      -6.5      1.469      2.659
REMARK  1 active torsions:
REMARK  status: ('A' for Active; 'I' for Inactive)
REMARK    1  A    between atoms: C14_14  and  N1_15 
ROOT
HETATM    1  N1  LIG X 999      42.074 132.112  20.439  1.00  0.00    -0.054 NA
HETATM    2  N2  LIG X 999      42.351 132.076  21.639  1.00  0.00    -0.160 NA
HETATM    3  N3  LIG X 999      42.625 132.040  22.837  1.00  0.00     0.068 N 
ENDROOT
BRANCH   1   4
HETATM    4  C14 LIG X 999      43.036 131.809  19.417  1.00  0.00     0.165 C 
HETATM    5  C13 LIG X 999      44.321 131.358  19.733  1.00  0.00     0.061 C 
HETATM    6  C11 LIG X 999      45.249 131.086  18.718  1.00  0.00    -0.045 C 
HETATM    7  C10 LIG X 999      44.827 131.137  17.352  1.00  0.00     0.008 C 
HETATM    8  C12 LIG X 999      46.682 130.907  19.159  1.00  0.00     0.049 C 
HETATM    9  C4  LIG X 999      45.597 130.678  16.230  1.00  0.00    -0.013 C 
HETATM   10  C9  LIG X 999      43.557 131.729  17.095  1.00  0.00     0.045 C 
HETATM   11  C3  LIG X 999      46.675 129.768  16.344  1.00  0.00     0.013 C 
HETATM   12  C5  LIG X 999      45.203 131.061  14.915  1.00  0.00    -0.025 C 
HETATM   13  C2  LIG X 999      47.427 129.397  15.227  1.00  0.00     0.001 C 
HETATM   14  C1  LIG X 999      47.097 129.880  13.965  1.00  0.00     0.001 C 
HETATM   15  C6  LIG X 999      45.978 130.692  13.804  1.00  0.00     0.012 C 
HETATM   16  C7  LIG X 999      44.012 131.760  14.714  1.00  0.00     0.014 C 
HETATM   17  C8  LIG X 999      43.173 132.039  15.783  1.00  0.00     0.031 C 
HETATM   18  N4  LIG X 999      42.706 132.022  18.119  1.00  0.00    -0.338 N 
HETATM   19  H11 LIG X 999      41.760 132.421  17.910  1.00  0.00     0.167 HD
ENDBRANCH   1   4
TORSDOF 1
ENDMDL
MODEL 5
REMARK VINA RESULT:      -6.5      2.639      4.802
REMARK  1 active torsions:
REMARK  status: ('A' for Active; 'I' for Inactive)
REMARK    1  A    between atoms: C14_14  and  N1_15 
ROOT
HETATM    1  N1  LIG X 999      42.216 132.216  18.641  1.00  0.00    -0.054 NA
HETATM    2  N2  LIG X 999      42.482 132.096  19.838  1.00  0.00    -0.160 NA
HETATM    3  N3  LIG X 999      42.746 131.977  21.033  1.00  0.00     0.068 N 
ENDROOT
BRANCH   1   4
HETATM    4  C14 LIG X 999      43.116 131.794  17.605  1.00  0.00     0.165 C 
HETATM    5  C13 LIG X 999      42.849 132.045  16.256  1.00  0.00     0.061 C 
HETATM    6  C11 LIG X 999      43.735 131.606  15.261  1.00  0.00    -0.045 C 
HETATM    7  C10 LIG X 999      44.985 131.025  15.644  1.00  0.00     0.008 C 
HETATM    8  C12 LIG X 999      43.215 131.649  13.844  1.00  0.00     0.049 C 
HETATM    9  C4  LIG X 999      46.070 130.733  14.751  1.00  0.00    -0.013 C 
HETATM   10  C9  LIG X 999      45.136 130.677  17.018  1.00  0.00     0.045 C 
HETATM   11  C3  LIG X 999      46.213 131.330  13.476  1.00  0.00     0.013 C 
HETATM   12  C5  LIG X 999      47.124 129.884  15.195  1.00  0.00    -0.025 C 
HETATM   13  C2  LIG X 999      47.257 130.969  12.622  1.00  0.00     0.001 C 
HETATM   14  C1  LIG X 999      48.212 130.044  13.032  1.00  0.00     0.001 C 
HETATM   15  C6  LIG X 999      48.160 129.518  14.320  1.00  0.00     0.012 C 
HETATM   16  C7  LIG X 999      47.168 129.452  16.522  1.00  0.00     0.014 C 
HETATM   17  C8  LIG X 999      46.218 129.890  17.433  1.00  0.00     0.031 C 
HETATM   18  N4  LIG X 999      44.222 131.085  17.944  1.00  0.00    -0.338 N 
HETATM   19  H11 LIG X 999      44.368 130.853  18.954  1.00  0.00     0.167 HD
ENDBRANCH   1   4
TORSDOF 1
ENDMDL
MODEL 6
REMARK VINA RESULT:      -6.3      1.210      2.888
REMARK  1 active torsions:
REMARK  status: ('A' for Active; 'I' for Inactive)
REMARK    1  A    between atoms: C14_14  and  N1_15 
ROOT
HETATM    1  N1  LIG X 999      44.188 131.996  22.508  1.00  0.00    -0.054 NA
HETATM    2  N2  LIG X 999      43.264 131.670  23.256  1.00  0.00    -0.160 NA
HETATM    3  N3  LIG X 999      42.344 131.346  24.003  1.00  0.00     0.068 N 
ENDROOT
BRANCH   1   4
HETATM    4  C14 LIG X 999      44.158 131.750  21.094  1.00  0.00     0.165 C 
HETATM    5  C13 LIG X 999      43.053 132.103  20.314  1.00  0.00     0.061 C 
HETATM    6  C11 LIG X 999      43.040 131.836  18.937  1.00  0.00    -0.045 C 
HETATM    7  C10 LIG X 999      44.222 131.330  18.311  1.00  0.00     0.008 C 
HETATM    8  C12 LIG X 999      41.702 131.966  18.249  1.00  0.00     0.049 C 
HETATM    9  C4  LIG X 999      44.425 131.216  16.894  1.00  0.00    -0.013 C 
HETATM   10  C9  LIG X 999      45.258 130.869  19.174  1.00  0.00     0.045 C 
HETATM   11  C3  LIG X 999      43.673 131.940  15.938  1.00  0.00     0.013 C 
HETATM   12  C5  LIG X 999      45.504 130.422  16.410  1.00  0.00    -0.025 C 
HETATM   13  C2  LIG X 999      43.872 131.750  14.569  1.00  0.00     0.001 C 
HETATM   14  C1  LIG X 999      44.854 130.875  14.116  1.00  0.00     0.001 C 
HETATM   15  C6  LIG X 999      45.682 130.229  15.030  1.00  0.00     0.012 C 
HETATM   16  C7  LIG X 999      46.428 129.873  17.300  1.00  0.00     0.014 C 
HETATM   17  C8  LIG X 999      46.338 130.141  18.658  1.00  0.00     0.031 C 
HETATM   18  N4  LIG X 999      45.205 131.109  20.515  1.00  0.00    -0.338 N 
HETATM   19  H11 LIG X 999      45.992 130.798  21.131  1.00  0.00     0.167 HD
ENDBRANCH   1   4
TORSDOF 1
ENDMDL
MODEL 7
REMARK VINA RESULT:      -6.3      3.494      6.388
REMARK  1 active torsions:
REMARK  status: ('A' for Active; 'I' for Inactive)
REMARK    1  A    between atoms: C14_14  and  N1_15 
ROOT
HETATM    1  N1  LIG X 999      45.089 130.467  14.949  1.00  0.00    -0.054 NA
HETATM    2  N2  LIG X 999      46.081 130.921  14.374  1.00  0.00    -0.160 NA
HETATM    3  N3  LIG X 999      47.070 131.373  13.801  1.00  0.00     0.068 N 
ENDROOT
BRANCH   1   4
HETATM    4  C14 LIG X 999      44.746 130.828  16.295  1.00  0.00     0.165 C 
HETATM    5  C13 LIG X 999      43.506 131.395  16.607  1.00  0.00     0.061 C 
HETATM    6  C11 LIG X 999      43.201 131.756  17.927  1.00  0.00    -0.045 C 
HETATM    7  C10 LIG X 999      44.111 131.411  18.975  1.00  0.00     0.008 C 
HETATM    8  C12 LIG X 999      41.984 132.631  18.111  1.00  0.00     0.049 C 
HETATM    9  C4  LIG X 999      43.835 131.520  20.380  1.00  0.00    -0.013 C 
HETATM   10  C9  LIG X 999      45.404 130.961  18.580  1.00  0.00     0.045 C 
HETATM   11  C3  LIG X 999      42.527 131.597  20.915  1.00  0.00     0.013 C 
HETATM   12  C5  LIG X 999      44.915 131.440  21.307  1.00  0.00    -0.025 C 
HETATM   13  C2  LIG X 999      42.315 131.760  22.285  1.00  0.00     0.001 C 
HETATM   14  C1  LIG X 999      43.394 131.799  23.163  1.00  0.00     0.001 C 
HETATM   15  C6  LIG X 999      44.688 131.619  22.681  1.00  0.00     0.012 C 
HETATM   16  C7  LIG X 999      46.200 131.126  20.863  1.00  0.00     0.014 C 
HETATM   17  C8  LIG X 999      46.429 130.835  19.526  1.00  0.00     0.031 C 
HETATM   18  N4  LIG X 999      45.670 130.668  17.275  1.00  0.00    -0.338 N 
HETATM   19  H11 LIG X 999      46.613 130.302  17.007  1.00  0.00     0.167 HD
ENDBRANCH   1   4
TORSDOF 1
ENDMDL
MODEL 8
REMARK VINA RESULT:      -5.2      6.599      7.804
REMARK  1 active torsions:
REMARK  status: ('A' for Active; 'I' for Inactive)
REMARK    1  A    between atoms: C14_14  and  N1_15 
ROOT
HETATM    1  N1  LIG X 999      39.392 127.555  24.197  1.00  0.00    -0.054 NA
HETATM    2  N2  LIG X 999      38.254 127.233  23.851  1.00  0.00    -0.160 NA
HETATM    3  N3  LIG X 999      37.118 126.912  23.507  1.00  0.00     0.068 N 
ENDROOT
BRANCH   1   4
HETATM    4  C14 LIG X 999      40.559 126.835  23.772  1.00  0.00     0.165 C 
HETATM    5  C13 LIG X 999      41.846 127.335  23.992  1.00  0.00     0.061 C 
HETATM    6  C11 LIG X 999      42.971 126.622  23.552  1.00  0.00    -0.045 C 
HETATM    7  C10 LIG X 999      42.798 125.313  23.002  1.00  0.00     0.008 C 
HETATM    8  C12 LIG X 999      44.279 127.377  23.557  1.00  0.00     0.049 C 
HETATM    9  C4  LIG X 999      43.859 124.389  22.714  1.00  0.00    -0.013 C 
HETATM   10  C9  LIG X 999      41.466 124.921  22.684  1.00  0.00     0.045 C 
HETATM   11  C3  LIG X 999      45.149 124.480  23.290  1.00  0.00     0.013 C 
HETATM   12  C5  LIG X 999      43.589 123.256  21.895  1.00  0.00    -0.025 C 
HETATM   13  C2  LIG X 999      46.164 123.588  22.933  1.00  0.00     0.001 C 
HETATM   14  C1  LIG X 999      45.908 122.557  22.034  1.00  0.00     0.001 C 
HETATM   15  C6  LIG X 999      44.622 122.376  21.532  1.00  0.00     0.012 C 
HETATM   16  C7  LIG X 999      42.283 122.977  21.489  1.00  0.00     0.014 C 
HETATM   17  C8  LIG X 999      41.229 123.767  21.926  1.00  0.00     0.031 C 
HETATM   18  N4  LIG X 999      40.403 125.672  23.092  1.00  0.00    -0.338 N 
HETATM   19  H11 LIG X 999      39.429 125.351  22.883  1.00  0.00     0.167 HD
ENDBRANCH   1   4
TORSDOF 1
ENDMDL
MODEL 9
REMARK VINA RESULT:      -5.2      6.162      8.095
REMARK  1 active torsions:
REMARK  status: ('A' for Active; 'I' for Inactive)
REMARK    1  A    between atoms: C14_14  and  N1_15 
ROOT
HETATM    1  N1  LIG X 999      44.101 129.742  23.465  1.00  0.00    -0.054 NA
HETATM    2  N2  LIG X 999      43.562 130.837  23.633  1.00  0.00    -0.160 NA
HETATM    3  N3  LIG X 999      43.026 131.931  23.802  1.00  0.00     0.068 N 
ENDROOT
BRANCH   1   4
HETATM    4  C14 LIG X 999      43.369 128.507  23.512  1.00  0.00     0.165 C 
HETATM    5  C13 LIG X 999      44.001 127.275  23.326  1.00  0.00     0.061 C 
HETATM    6  C11 LIG X 999      43.261 126.084  23.359  1.00  0.00    -0.045 C 
HETATM    7  C10 LIG X 999      41.879 126.128  23.725  1.00  0.00     0.008 C 
HETATM    8  C12 LIG X 999      43.966 124.851  22.846  1.00  0.00     0.049 C 
HETATM    9  C4  LIG X 999      41.061 124.983  24.009  1.00  0.00    -0.013 C 
HETATM   10  C9  LIG X 999      41.269 127.415  23.769  1.00  0.00     0.045 C 
HETATM   11  C3  LIG X 999      41.586 123.715  24.352  1.00  0.00     0.013 C 
HETATM   12  C5  LIG X 999      39.645 125.138  24.058  1.00  0.00    -0.025 C 
HETATM   13  C2  LIG X 999      40.747 122.619  24.564  1.00  0.00     0.001 C 
HETATM   14  C1  LIG X 999      39.366 122.766  24.488  1.00  0.00     0.001 C 
HETATM   15  C6  LIG X 999      38.814 124.023  24.257  1.00  0.00     0.012 C 
HETATM   16  C7  LIG X 999      39.073 126.407  23.964  1.00  0.00     0.014 C 
HETATM   17  C8  LIG X 999      39.877 127.534  23.878  1.00  0.00     0.031 C 
HETATM   18  N4  LIG X 999      42.024 128.547  23.685  1.00  0.00    -0.338 N 
HETATM   19  H11 LIG X 999      41.564 129.484  23.758  1.00  0.00     0.167 HD
ENDBRANCH   1   4
TORSDOF 1
ENDMDL
