REMARK VINA RESULT:      -5.0      3.312      5.039
REMARK  3 active torsions:
REMARK  status: ('A' for Active; 'I' for Inactive)
REMARK    1  A    between atoms: C2_2  and  N1_3 
REMARK       I    between atoms: N2_8  and  C7_9 
REMARK    2  A    between atoms: C7_9  and  C8_11 
REMARK    3  A    between atoms: C9_12  and  C10_13 
ROOT
HETATM    1  C8  LIG X 999      45.009 128.813  22.298  1.00  0.00     0.001 C 
HETATM    2  C9  LIG X 999      45.062 129.433  21.266  1.00  0.00    -0.057 C 
ENDROOT
BRANCH   1   3
HETATM    3  C7  LIG X 999      44.953 128.064  23.525  1.00  0.00     0.313 C 
HETATM    4  N2  LIG X 999      44.912 126.628  23.508  1.00  0.00    -0.269 N 
HETATM    5  N1  LIG X 999      44.757 125.905  22.308  1.00  0.00    -0.226 NA
HETATM    6  C6  LIG X 999      45.428 125.856  24.625  1.00  0.00     0.153 C 
HETATM    7  C3  LIG X 999      45.535 124.670  22.524  1.00  0.00     0.119 C 
HETATM    8  C4  LIG X 999      45.746 124.489  24.035  1.00  0.00     0.016 C 
HETATM    9  C5  LIG X 999      44.854 123.385  24.616  1.00  0.00     0.013 C 
HETATM   10  O1  LIG X 999      44.969 128.685  24.622  1.00  0.00    -0.257 OA
BRANCH   5  11
HETATM   11  C2  LIG X 999      43.324 125.592  22.119  1.00  0.00     0.109 C 
HETATM   12  C1  LIG X 999      43.126 124.175  21.588  1.00  0.00     0.023 C 
ENDBRANCH   5  11
ENDBRANCH   1   3
BRANCH   2  13
HETATM   13  C10 LIG X 999      45.133 130.164  20.030  1.00  0.00     0.019 A 
HETATM   14  C11 LIG X 999      44.561 131.439  19.935  1.00  0.00     0.021 A 
HETATM   15  C12 LIG X 999      44.625 132.153  18.735  1.00  0.00     0.013 A 
HETATM   16  C13 LIG X 999      45.262 131.596  17.616  1.00  0.00    -0.026 A 
HETATM   17  C14 LIG X 999      45.332 132.304  16.406  1.00  0.00     0.012 A 
HETATM   18  C18 LIG X 999      45.840 130.307  17.709  1.00  0.00    -0.025 A 
HETATM   19  C15 LIG X 999      45.969 131.737  15.299  1.00  0.00     0.001 A 
HETATM   20  C16 LIG X 999      46.540 130.465  15.390  1.00  0.00     0.001 A 
HETATM   21  C17 LIG X 999      46.478 129.750  16.589  1.00  0.00     0.012 A 
HETATM   22  C19 LIG X 999      45.772 129.598  18.918  1.00  0.00     0.032 A 
ENDBRANCH   2  13
TORSDOF 3
