REMARK VINA RESULT:      -8.7      0.000      0.000
REMARK  3 active torsions:
REMARK  status: ('A' for Active; 'I' for Inactive)
REMARK    1  A    between atoms: C6_6  and  C7_7 
REMARK    2  A    between atoms: C7_7  and  N1_8 
REMARK    3  A    between atoms: C8_12  and  N4_13 
ROOT
HETATM    1  N1  LIG X 999      45.069 131.819  15.226  1.00  0.00    -0.065 NA
HETATM    2  N2  LIG X 999      44.072 131.743  14.506  1.00  0.00    -0.164 NA
HETATM    3  N3  LIG X 999      43.078 131.667  13.787  1.00  0.00     0.068 N 
ENDROOT
BRANCH   1   4
HETATM    4  C7  LIG X 999      45.276 130.912  16.354  1.00  0.00     0.267 A 
HETATM    5  O1  LIG X 999      46.630 130.568  16.549  1.00  0.00    -0.314 OA
HETATM    6  C8  LIG X 999      45.780 129.544  16.077  1.00  0.00     0.349 A 
BRANCH   4   7
HETATM    7  C6  LIG X 999      44.545 131.194  17.631  1.00  0.00     0.007 A 
HETATM    8  C5  LIG X 999      45.176 130.984  18.866  1.00  0.00     0.024 A 
HETATM    9  C4  LIG X 999      44.501 131.270  20.062  1.00  0.00    -0.025 A 
HETATM   10  C3  LIG X 999      45.121 131.055  21.304  1.00  0.00     0.012 A 
HETATM   11  C11 LIG X 999      43.182 131.784  20.018  1.00  0.00    -0.026 A 
HETATM   12  C2  LIG X 999      44.439 131.344  22.488  1.00  0.00     0.001 A 
HETATM   13  C1  LIG X 999      43.136 131.851  22.444  1.00  0.00     0.001 A 
HETATM   14  C12 LIG X 999      42.508 132.071  21.215  1.00  0.00     0.012 A 
HETATM   15  C10 LIG X 999      42.564 132.005  18.779  1.00  0.00     0.013 A 
HETATM   16  C9  LIG X 999      43.245 131.716  17.593  1.00  0.00     0.013 A 
ENDBRANCH   4   7
BRANCH   6  17
HETATM   17  N4  LIG X 999      46.072 129.250  14.684  1.00  0.00    -0.077 NA
HETATM   18  N5  LIG X 999      47.214 129.385  14.248  1.00  0.00    -0.165 NA
HETATM   19  N6  LIG X 999      48.356 129.520  13.813  1.00  0.00     0.068 N 
ENDBRANCH   6  17
ENDBRANCH   1   4
TORSDOF 3
