MODEL 1
REMARK VINA RESULT:      -4.5      0.000      0.000
REMARK  3 active torsions:
REMARK  status: ('A' for Active; 'I' for Inactive)
REMARK    1  A    between atoms: C5_5  and  N1_6 
REMARK    2  A    between atoms: C6_9  and  N4_10 
REMARK    3  A    between atoms: C8_15  and  N7_16 
ROOT
HETATM    1  N1  LIG X 999      42.254 123.316  23.259  1.00  0.00    -0.069 NA
HETATM    2  N2  LIG X 999      42.581 122.923  22.138  1.00  0.00    -0.162 NA
HETATM    3  N3  LIG X 999      42.904 122.528  21.018  1.00  0.00     0.068 N 
ENDROOT
BRANCH   1   4
HETATM    4  C5  LIG X 999      42.382 124.693  23.652  1.00  0.00     0.137 C 
HETATM    5  C4  LIG X 999      41.219 125.491  23.738  1.00  0.00     0.011 A 
HETATM    6  C3  LIG X 999      39.940 124.916  23.580  1.00  0.00     0.015 A 
HETATM    7  C9  LIG X 999      41.329 126.887  23.981  1.00  0.00     0.010 A 
HETATM    8  C2  LIG X 999      38.791 125.695  23.700  1.00  0.00     0.001 A 
HETATM    9  C1  LIG X 999      38.893 127.053  23.990  1.00  0.00     0.001 A 
HETATM   10  C10 LIG X 999      40.147 127.646  24.137  1.00  0.00     0.015 A 
HETATM   11  C8  LIG X 999      42.613 127.478  24.090  1.00  0.00     0.128 C 
HETATM   12  C7  LIG X 999      43.753 126.660  24.099  1.00  0.00     0.100 C 
HETATM   13  C6  LIG X 999      43.647 125.273  23.920  1.00  0.00     0.149 C 
HETATM   14 CL1  LIG X 999      45.343 127.386  24.345  1.00  0.00    -0.079 Cl
BRANCH  11  15
HETATM   15  N7  LIG X 999      42.800 128.897  24.209  1.00  0.00    -0.070 NA
HETATM   16  N8  LIG X 999      42.930 129.624  23.222  1.00  0.00    -0.162 NA
HETATM   17  N9  LIG X 999      43.062 130.350  22.239  1.00  0.00     0.068 N 
ENDBRANCH  11  15
BRANCH  13  18
HETATM   18  N4  LIG X 999      44.837 124.481  24.058  1.00  0.00    -0.068 NA
HETATM   19  N5  LIG X 999      45.569 124.225  23.101  1.00  0.00    -0.162 NA
HETATM   20  N6  LIG X 999      46.299 123.965  22.145  1.00  0.00     0.068 N 
ENDBRANCH  13  18
ENDBRANCH   1   4
TORSDOF 3
ENDMDL
MODEL 2
REMARK VINA RESULT:      -4.2      2.617      4.130
REMARK  3 active torsions:
REMARK  status: ('A' for Active; 'I' for Inactive)
REMARK    1  A    between atoms: C5_5  and  N1_6 
REMARK    2  A    between atoms: C6_9  and  N4_10 
REMARK    3  A    between atoms: C8_15  and  N7_16 
ROOT
HETATM    1  N1  LIG X 999      45.765 126.354  22.336  1.00  0.00    -0.069 NA
HETATM    2  N2  LIG X 999      46.668 125.992  23.091  1.00  0.00    -0.162 NA
HETATM    3  N3  LIG X 999      47.572 125.633  23.846  1.00  0.00     0.068 N 
ENDROOT
BRANCH   1   4
HETATM    4  C5  LIG X 999      44.397 126.442  22.768  1.00  0.00     0.137 C 
HETATM    5  C4  LIG X 999      43.871 127.705  23.124  1.00  0.00     0.011 A 
HETATM    6  C3  LIG X 999      44.627 128.879  22.925  1.00  0.00     0.015 A 
HETATM    7  C9  LIG X 999      42.572 127.802  23.692  1.00  0.00     0.010 A 
HETATM    8  C2  LIG X 999      44.096 130.128  23.242  1.00  0.00     0.001 A 
HETATM    9  C1  LIG X 999      42.804 130.231  23.750  1.00  0.00     0.001 A 
HETATM   10  C10 LIG X 999      42.043 129.083  23.967  1.00  0.00     0.015 A 
HETATM   11  C8  LIG X 999      41.829 126.620  23.939  1.00  0.00     0.128 C 
HETATM   12  C7  LIG X 999      42.322 125.385  23.494  1.00  0.00     0.100 C 
HETATM   13  C6  LIG X 999      43.578 125.290  22.877  1.00  0.00     0.149 C 
HETATM   14 CL1  LIG X 999      41.346 123.929  23.705  1.00  0.00    -0.079 Cl
BRANCH  11  15
HETATM   15  N7  LIG X 999      40.566 126.634  24.625  1.00  0.00    -0.070 NA
HETATM   16  N8  LIG X 999      39.498 126.761  24.025  1.00  0.00    -0.162 NA
HETATM   17  N9  LIG X 999      38.431 126.889  23.427  1.00  0.00     0.068 N 
ENDBRANCH  11  15
BRANCH  13  18
HETATM   18  N4  LIG X 999      43.972 124.019  22.338  1.00  0.00    -0.068 NA
HETATM   19  N5  LIG X 999      44.619 123.201  22.994  1.00  0.00    -0.162 NA
HETATM   20  N6  LIG X 999      45.269 122.384  23.646  1.00  0.00     0.068 N 
ENDBRANCH  13  18
ENDBRANCH   1   4
TORSDOF 3
ENDMDL
MODEL 3
REMARK VINA RESULT:      -4.2      2.615      4.734
REMARK  3 active torsions:
REMARK  status: ('A' for Active; 'I' for Inactive)
REMARK    1  A    between atoms: C5_5  and  N1_6 
REMARK    2  A    between atoms: C6_9  and  N4_10 
REMARK    3  A    between atoms: C8_15  and  N7_16 
ROOT
HETATM    1  N1  LIG X 999      40.074 127.415  24.625  1.00  0.00    -0.069 NA
HETATM    2  N2  LIG X 999      39.080 127.134  23.955  1.00  0.00    -0.162 NA
HETATM    3  N3  LIG X 999      38.085 126.857  23.285  1.00  0.00     0.068 N 
ENDROOT
BRANCH   1   4
HETATM    4  C5  LIG X 999      41.403 127.066  24.202  1.00  0.00     0.137 C 
HETATM    5  C4  LIG X 999      42.309 128.100  23.871  1.00  0.00     0.011 A 
HETATM    6  C3  LIG X 999      41.966 129.452  24.085  1.00  0.00     0.015 A 
HETATM    7  C9  LIG X 999      43.577 127.784  23.312  1.00  0.00     0.010 A 
HETATM    8  C2  LIG X 999      42.872 130.469  23.794  1.00  0.00     0.001 A 
HETATM    9  C1  LIG X 999      44.135 130.160  23.295  1.00  0.00     0.001 A 
HETATM   10  C10 LIG X 999      44.491 128.832  23.062  1.00  0.00     0.015 A 
HETATM   11  C8  LIG X 999      43.906 126.430  23.048  1.00  0.00     0.128 C 
HETATM   12  C7  LIG X 999      43.038 125.412  23.470  1.00  0.00     0.100 C 
HETATM   13  C6  LIG X 999      41.811 125.715  24.078  1.00  0.00     0.149 C 
HETATM   14 CL1  LIG X 999      43.500 123.723  23.239  1.00  0.00    -0.079 Cl
BRANCH  11  15
HETATM   15  N7  LIG X 999      45.114 126.050  22.370  1.00  0.00    -0.070 NA
HETATM   16  N8  LIG X 999      46.188 125.935  22.963  1.00  0.00    -0.162 NA
HETATM   17  N9  LIG X 999      47.261 125.823  23.553  1.00  0.00     0.068 N 
ENDBRANCH  11  15
BRANCH  13  18
HETATM   18  N4  LIG X 999      41.026 124.629  24.593  1.00  0.00    -0.068 NA
HETATM   19  N5  LIG X 999      40.278 123.963  23.874  1.00  0.00    -0.162 NA
HETATM   20  N6  LIG X 999      39.527 123.299  23.160  1.00  0.00     0.068 N 
ENDBRANCH  13  18
ENDBRANCH   1   4
TORSDOF 3
ENDMDL
MODEL 4
REMARK VINA RESULT:      -4.2      1.403      4.648
REMARK  3 active torsions:
REMARK  status: ('A' for Active; 'I' for Inactive)
REMARK    1  A    between atoms: C5_5  and  N1_6 
REMARK    2  A    between atoms: C6_9  and  N4_10 
REMARK    3  A    between atoms: C8_15  and  N7_16 
ROOT
HETATM    1  N1  LIG X 999      42.267 129.465  24.552  1.00  0.00    -0.069 NA
HETATM    2  N2  LIG X 999      42.375 130.454  23.827  1.00  0.00    -0.162 NA
HETATM    3  N3  LIG X 999      42.486 131.444  23.104  1.00  0.00     0.068 N 
ENDROOT
BRANCH   1   4
HETATM    4  C5  LIG X 999      42.404 128.127  24.044  1.00  0.00     0.137 C 
HETATM    5  C4  LIG X 999      41.268 127.287  24.013  1.00  0.00     0.011 A 
HETATM    6  C3  LIG X 999      39.992 127.792  24.341  1.00  0.00     0.015 A 
HETATM    7  C9  LIG X 999      41.403 125.918  23.655  1.00  0.00     0.010 A 
HETATM    8  C2  LIG X 999      38.865 126.974  24.276  1.00  0.00     0.001 A 
HETATM    9  C1  LIG X 999      38.987 125.647  23.875  1.00  0.00     0.001 A 
HETATM   10  C10 LIG X 999      40.240 125.121  23.559  1.00  0.00     0.015 A 
HETATM   11  C8  LIG X 999      42.690 125.394  23.373  1.00  0.00     0.128 C 
HETATM   12  C7  LIG X 999      43.792 126.260  23.314  1.00  0.00     0.100 C 
HETATM   13  C6  LIG X 999      43.655 127.624  23.608  1.00  0.00     0.149 C 
HETATM   14 CL1  LIG X 999      45.375 125.624  22.857  1.00  0.00    -0.079 Cl
BRANCH  11  15
HETATM   15  N7  LIG X 999      42.915 123.997  23.129  1.00  0.00    -0.070 NA
HETATM   16  N8  LIG X 999      42.834 123.509  22.000  1.00  0.00    -0.162 NA
HETATM   17  N9  LIG X 999      42.750 123.020  20.875  1.00  0.00     0.068 N 
ENDBRANCH  11  15
BRANCH  13  18
HETATM   18  N4  LIG X 999      44.795 128.475  23.413  1.00  0.00    -0.068 NA
HETATM   19  N5  LIG X 999      44.962 129.119  22.375  1.00  0.00    -0.162 NA
HETATM   20  N6  LIG X 999      45.134 129.759  21.338  1.00  0.00     0.068 N 
ENDBRANCH  13  18
ENDBRANCH   1   4
TORSDOF 3
ENDMDL
MODEL 5
REMARK VINA RESULT:      -4.2      2.750      4.366
REMARK  3 active torsions:
REMARK  status: ('A' for Active; 'I' for Inactive)
REMARK    1  A    between atoms: C5_5  and  N1_6 
REMARK    2  A    between atoms: C6_9  and  N4_10 
REMARK    3  A    between atoms: C8_15  and  N7_16 
ROOT
HETATM    1  N1  LIG X 999      41.181 124.744  24.430  1.00  0.00    -0.069 NA
HETATM    2  N2  LIG X 999      40.434 124.157  23.646  1.00  0.00    -0.162 NA
HETATM    3  N3  LIG X 999      39.684 123.572  22.864  1.00  0.00     0.068 N 
ENDROOT
BRANCH   1   4
HETATM    4  C5  LIG X 999      41.970 125.877  24.030  1.00  0.00     0.137 C 
HETATM    5  C4  LIG X 999      43.238 125.656  23.446  1.00  0.00     0.011 A 
HETATM    6  C3  LIG X 999      43.665 124.349  23.131  1.00  0.00     0.015 A 
HETATM    7  C9  LIG X 999      44.099 126.754  23.176  1.00  0.00     0.010 A 
HETATM    8  C2  LIG X 999      44.900 124.132  22.522  1.00  0.00     0.001 A 
HETATM    9  C1  LIG X 999      45.724 125.210  22.209  1.00  0.00     0.001 A 
HETATM   10  C10 LIG X 999      45.328 126.510  22.523  1.00  0.00     0.015 A 
HETATM   11  C8  LIG X 999      43.694 128.063  23.537  1.00  0.00     0.128 C 
HETATM   12  C7  LIG X 999      42.397 128.278  24.025  1.00  0.00     0.100 C 
HETATM   13  C6  LIG X 999      41.520 127.204  24.238  1.00  0.00     0.149 C 
HETATM   14 CL1  LIG X 999      41.857 129.923  24.372  1.00  0.00    -0.079 Cl
BRANCH  11  15
HETATM   15  N7  LIG X 999      44.563 129.200  23.409  1.00  0.00    -0.070 NA
HETATM   16  N8  LIG X 999      44.518 129.952  22.434  1.00  0.00    -0.162 NA
HETATM   17  N9  LIG X 999      44.476 130.701  21.459  1.00  0.00     0.068 N 
ENDBRANCH  11  15
BRANCH  13  18
HETATM   18  N4  LIG X 999      40.169 127.502  24.625  1.00  0.00    -0.068 NA
HETATM   19  N5  LIG X 999      39.208 127.256  23.893  1.00  0.00    -0.162 NA
HETATM   20  N6  LIG X 999      38.248 127.014  23.163  1.00  0.00     0.068 N 
ENDBRANCH  13  18
ENDBRANCH   1   4
TORSDOF 3
ENDMDL
MODEL 6
REMARK VINA RESULT:      -4.1      2.523      3.671
REMARK  3 active torsions:
REMARK  status: ('A' for Active; 'I' for Inactive)
REMARK    1  A    between atoms: C5_5  and  N1_6 
REMARK    2  A    between atoms: C6_9  and  N4_10 
REMARK    3  A    between atoms: C8_15  and  N7_16 
ROOT
HETATM    1  N1  LIG X 999      43.997 124.799  22.371  1.00  0.00    -0.069 NA
HETATM    2  N2  LIG X 999      44.881 124.200  22.984  1.00  0.00    -0.162 NA
HETATM    3  N3  LIG X 999      45.768 123.604  23.595  1.00  0.00     0.068 N 
ENDROOT
BRANCH   1   4
HETATM    4  C5  LIG X 999      42.841 125.339  23.033  1.00  0.00     0.137 C 
HETATM    5  C4  LIG X 999      41.668 124.554  23.111  1.00  0.00     0.011 A 
HETATM    6  C3  LIG X 999      41.670 123.213  22.673  1.00  0.00     0.015 A 
HETATM    7  C9  LIG X 999      40.468 125.115  23.628  1.00  0.00     0.010 A 
HETATM    8  C2  LIG X 999      40.524 122.428  22.782  1.00  0.00     0.001 A 
HETATM    9  C1  LIG X 999      39.363 122.958  23.336  1.00  0.00     0.001 A 
HETATM   10  C10 LIG X 999      39.332 124.286  23.764  1.00  0.00     0.015 A 
HETATM   11  C8  LIG X 999      40.448 126.476  24.022  1.00  0.00     0.128 C 
HETATM   12  C7  LIG X 999      41.641 127.213  24.030  1.00  0.00     0.100 C 
HETATM   13  C6  LIG X 999      42.842 126.647  23.577  1.00  0.00     0.149 C 
HETATM   14 CL1  LIG X 999      41.634 128.876  24.625  1.00  0.00    -0.079 Cl
BRANCH  11  15
HETATM   15  N7  LIG X 999      39.242 127.141  24.434  1.00  0.00    -0.070 NA
HETATM   16  N8  LIG X 999      38.209 127.094  23.764  1.00  0.00    -0.162 NA
HETATM   17  N9  LIG X 999      37.178 127.050  23.096  1.00  0.00     0.068 N 
ENDBRANCH  11  15
BRANCH  13  18
HETATM   18  N4  LIG X 999      44.047 127.413  23.723  1.00  0.00    -0.068 NA
HETATM   19  N5  LIG X 999      44.255 128.438  23.072  1.00  0.00    -0.162 NA
HETATM   20  N6  LIG X 999      44.467 129.460  22.419  1.00  0.00     0.068 N 
ENDBRANCH  13  18
ENDBRANCH   1   4
TORSDOF 3
ENDMDL
MODEL 7
REMARK VINA RESULT:      -4.0     11.178     13.178
REMARK  3 active torsions:
REMARK  status: ('A' for Active; 'I' for Inactive)
REMARK    1  A    between atoms: C5_5  and  N1_6 
REMARK    2  A    between atoms: C6_9  and  N4_10 
REMARK    3  A    between atoms: C8_15  and  N7_16 
ROOT
HETATM    1  N1  LIG X 999      48.542 134.237  22.420  1.00  0.00    -0.069 NA
HETATM    2  N2  LIG X 999      47.634 134.118  23.244  1.00  0.00    -0.162 NA
HETATM    3  N3  LIG X 999      46.729 133.995  24.067  1.00  0.00     0.068 N 
ENDROOT
BRANCH   1   4
HETATM    4  C5  LIG X 999      49.607 135.188  22.590  1.00  0.00     0.137 C 
HETATM    5  C4  LIG X 999      49.627 136.346  21.780  1.00  0.00     0.011 A 
HETATM    6  C3  LIG X 999      48.548 136.638  20.918  1.00  0.00     0.015 A 
HETATM    7  C9  LIG X 999      50.741 137.227  21.822  1.00  0.00     0.010 A 
HETATM    8  C2  LIG X 999      48.550 137.798  20.146  1.00  0.00     0.001 A 
HETATM    9  C1  LIG X 999      49.616 138.689  20.224  1.00  0.00     0.001 A 
HETATM   10  C10 LIG X 999      50.699 138.415  21.059  1.00  0.00     0.015 A 
HETATM   11  C8  LIG X 999      51.849 136.911  22.649  1.00  0.00     0.128 C 
HETATM   12  C7  LIG X 999      51.774 135.812  23.517  1.00  0.00     0.100 C 
HETATM   13  C6  LIG X 999      50.651 134.972  23.523  1.00  0.00     0.149 C 
HETATM   14 CL1  LIG X 999      53.110 135.484  24.624  1.00  0.00    -0.079 Cl
BRANCH  11  15
HETATM   15  N7  LIG X 999      53.058 137.688  22.646  1.00  0.00    -0.070 NA
HETATM   16  N8  LIG X 999      53.275 138.562  23.487  1.00  0.00    -0.162 NA
HETATM   17  N9  LIG X 999      53.493 139.436  24.324  1.00  0.00     0.068 N 
ENDBRANCH  11  15
BRANCH  13  18
HETATM   18  N4  LIG X 999      50.586 133.938  24.517  1.00  0.00    -0.068 NA
HETATM   19  N5  LIG X 999      50.956 132.785  24.289  1.00  0.00    -0.162 NA
HETATM   20  N6  LIG X 999      51.322 131.632  24.062  1.00  0.00     0.068 N 
ENDBRANCH  13  18
ENDBRANCH   1   4
TORSDOF 3
ENDMDL
MODEL 8
REMARK VINA RESULT:      -3.9      2.992      6.030
REMARK  3 active torsions:
REMARK  status: ('A' for Active; 'I' for Inactive)
REMARK    1  A    between atoms: C5_5  and  N1_6 
REMARK    2  A    between atoms: C6_9  and  N4_10 
REMARK    3  A    between atoms: C8_15  and  N7_16 
ROOT
HETATM    1  N1  LIG X 999      45.025 129.897  21.924  1.00  0.00    -0.069 NA
HETATM    2  N2  LIG X 999      44.492 130.649  21.107  1.00  0.00    -0.162 NA
HETATM    3  N3  LIG X 999      43.963 131.399  20.288  1.00  0.00     0.068 N 
ENDROOT
BRANCH   1   4
HETATM    4  C5  LIG X 999      44.271 128.935  22.680  1.00  0.00     0.137 C 
HETATM    5  C4  LIG X 999      44.730 127.599  22.740  1.00  0.00     0.011 A 
HETATM    6  C3  LIG X 999      45.979 127.244  22.187  1.00  0.00     0.015 A 
HETATM    7  C9  LIG X 999      43.932 126.597  23.355  1.00  0.00     0.010 A 
HETATM    8  C2  LIG X 999      46.449 125.935  22.276  1.00  0.00     0.001 A 
HETATM    9  C1  LIG X 999      45.693 124.963  22.924  1.00  0.00     0.001 A 
HETATM   10  C10 LIG X 999      44.449 125.288  23.467  1.00  0.00     0.015 A 
HETATM   11  C8  LIG X 999      42.655 126.940  23.867  1.00  0.00     0.128 C 
HETATM   12  C7  LIG X 999      42.255 128.284  23.888  1.00  0.00     0.100 C 
HETATM   13  C6  LIG X 999      43.065 129.287  23.336  1.00  0.00     0.149 C 
HETATM   14 CL1  LIG X 999      40.711 128.722  24.625  1.00  0.00    -0.079 Cl
BRANCH  11  15
HETATM   15  N7  LIG X 999      41.745 125.957  24.387  1.00  0.00    -0.070 NA
HETATM   16  N8  LIG X 999      40.996 125.308  23.655  1.00  0.00    -0.162 NA
HETATM   17  N9  LIG X 999      40.247 124.661  22.926  1.00  0.00     0.068 N 
ENDBRANCH  11  15
BRANCH  13  18
HETATM   18  N4  LIG X 999      42.653 130.653  23.496  1.00  0.00    -0.068 NA
HETATM   19  N5  LIG X 999      43.362 131.490  24.057  1.00  0.00    -0.162 NA
HETATM   20  N6  LIG X 999      44.067 132.327  24.621  1.00  0.00     0.068 N 
ENDBRANCH  13  18
ENDBRANCH   1   4
TORSDOF 3
ENDMDL
MODEL 9
REMARK VINA RESULT:      -3.9      2.021      4.661
REMARK  3 active torsions:
REMARK  status: ('A' for Active; 'I' for Inactive)
REMARK    1  A    between atoms: C5_5  and  N1_6 
REMARK    2  A    between atoms: C6_9  and  N4_10 
REMARK    3  A    between atoms: C8_15  and  N7_16 
ROOT
HETATM    1  N1  LIG X 999      39.961 126.994  24.625  1.00  0.00    -0.069 NA
HETATM    2  N2  LIG X 999      38.887 127.117  24.035  1.00  0.00    -0.162 NA
HETATM    3  N3  LIG X 999      37.814 127.245  23.446  1.00  0.00     0.068 N 
ENDROOT
BRANCH   1   4
HETATM    4  C5  LIG X 999      41.134 126.475  23.975  1.00  0.00     0.137 C 
HETATM    5  C4  LIG X 999      41.106 125.157  23.464  1.00  0.00     0.011 A 
HETATM    6  C3  LIG X 999      39.908 124.412  23.464  1.00  0.00     0.015 A 
HETATM    7  C9  LIG X 999      42.293 124.567  22.949  1.00  0.00     0.010 A 
HETATM    8  C2  LIG X 999      39.871 123.126  22.928  1.00  0.00     0.001 A 
HETATM    9  C1  LIG X 999      41.020 122.565  22.376  1.00  0.00     0.001 A 
HETATM   10  C10 LIG X 999      42.219 123.278  22.376  1.00  0.00     0.015 A 
HETATM   11  C8  LIG X 999      43.509 125.294  22.994  1.00  0.00     0.128 C 
HETATM   12  C7  LIG X 999      43.502 126.632  23.414  1.00  0.00     0.100 C 
HETATM   13  C6  LIG X 999      42.322 127.240  23.867  1.00  0.00     0.149 C 
HETATM   14 CL1  LIG X 999      44.998 127.569  23.365  1.00  0.00    -0.079 Cl
BRANCH  11  15
HETATM   15  N7  LIG X 999      44.766 124.715  22.608  1.00  0.00    -0.070 NA
HETATM   16  N8  LIG X 999      45.460 124.074  23.399  1.00  0.00    -0.162 NA
HETATM   17  N9  LIG X 999      46.155 123.436  24.188  1.00  0.00     0.068 N 
ENDBRANCH  11  15
BRANCH  13  18
HETATM   18  N4  LIG X 999      42.357 128.643  24.168  1.00  0.00    -0.068 NA
HETATM   19  N5  LIG X 999      42.557 129.495  23.300  1.00  0.00    -0.162 NA
HETATM   20  N6  LIG X 999      42.761 130.347  22.436  1.00  0.00     0.068 N 
ENDBRANCH  13  18
ENDBRANCH   1   4
TORSDOF 3
ENDMDL
