REMARK VINA RESULT:      -4.6      4.046      5.770
REMARK  4 active torsions:
REMARK  status: ('A' for Active; 'I' for Inactive)
REMARK    1  A    between atoms: O1_2  and  C1_3 
REMARK    2  A    between atoms: C1_3  and  O4_18 
REMARK       I    between atoms: N1_4  and  C2_5 
REMARK    3  A    between atoms: C2_5  and  C3_7 
REMARK    4  A    between atoms: O4_18  and  C13_19 
ROOT
HETATM    1  C3  LIG X 999      45.057 131.422  18.455  1.00  0.00     0.071 A 
HETATM    2  C4  LIG X 999      45.605 130.133  18.615  1.00  0.00     0.123 A 
HETATM    3  O3  LIG X 999      45.534 129.474  19.838  1.00  0.00    -0.191 OA
HETATM    4  C5  LIG X 999      46.248 129.504  17.543  1.00  0.00     0.053 A 
HETATM    5  C6  LIG X 999      46.373 130.156  16.309  1.00  0.00    -0.023 A 
HETATM    6  C7  LIG X 999      47.020 129.530  15.231  1.00  0.00     0.012 A 
HETATM    7  C8  LIG X 999      47.142 130.193  14.006  1.00  0.00     0.001 A 
HETATM    8  C9  LIG X 999      46.623 131.481  13.849  1.00  0.00     0.001 A 
HETATM    9  C10 LIG X 999      45.978 132.114  14.914  1.00  0.00     0.012 A 
HETATM   10  C11 LIG X 999      45.848 131.460  16.150  1.00  0.00    -0.025 A 
HETATM   11  C12 LIG X 999      45.200 132.085  17.226  1.00  0.00     0.032 A 
ENDROOT
BRANCH   1  12
HETATM   12  C2  LIG X 999      44.367 132.106  19.574  1.00  0.00     0.283 C 
HETATM   13  N1  LIG X 999      45.072 132.891  20.548  1.00  0.00    -0.162 NA
HETATM   14  C1  LIG X 999      46.260 132.635  21.014  1.00  0.00     0.289 C 
HETATM   15  O2  LIG X 999      43.112 132.029  19.656  1.00  0.00    -0.265 OA
BRANCH  14  16
HETATM   16  O1  LIG X 999      46.937 131.478  20.638  1.00  0.00    -0.325 OA
HETATM   17  H1  LIG X 999      47.082 130.726  21.300  1.00  0.00     0.221 HD
ENDBRANCH  14  16
BRANCH  14  18
HETATM   18  O4  LIG X 999      46.873 133.503  21.931  1.00  0.00    -0.294 OA
BRANCH  18  19
HETATM   19  C13 LIG X 999      48.160 134.109  21.768  1.00  0.00     0.224 C 
HETATM   20 CL1  LIG X 999      49.153 133.935  23.244  1.00  0.00    -0.095 Cl
HETATM   21  C14 LIG X 999      48.037 135.576  21.358  1.00  0.00     0.057 C 
ENDBRANCH  18  19
ENDBRANCH  14  18
ENDBRANCH   1  12
TORSDOF 4
