REMARK VINA RESULT:      -5.2      5.018      7.234
REMARK  3 active torsions:
REMARK  status: ('A' for Active; 'I' for Inactive)
REMARK    1  A    between atoms: C3_3  and  S1_4 
REMARK    2  A    between atoms: S1_4  and  C4_5 
REMARK    3  A    between atoms: C8_9  and  N1_10 
ROOT
HETATM    1  C1  LIG X 999      42.754 131.846  20.593  1.00  0.00     0.013 C 
HETATM    2  C2  LIG X 999      43.437 131.360  21.459  1.00  0.00    -0.107 C 
HETATM    3  C3  LIG X 999      44.271 130.766  22.509  1.00  0.00     0.172 C 
ENDROOT
BRANCH   3   4
HETATM    4  S1  LIG X 999      43.236 130.121  23.868  1.00  0.00    -0.117 SA
BRANCH   4   5
HETATM    5  C4  LIG X 999      43.559 128.387  23.506  1.00  0.00     0.015 A 
HETATM    6  C5  LIG X 999      44.882 128.012  23.129  1.00  0.00     0.020 A 
HETATM    7  C6  LIG X 999      45.198 126.672  22.804  1.00  0.00     0.018 A 
HETATM    8  C7  LIG X 999      44.170 125.736  22.871  1.00  0.00     0.026 A 
HETATM    9  C8  LIG X 999      44.092 124.372  22.638  1.00  0.00     0.175 A 
HETATM   10  C10 LIG X 999      42.921 126.107  23.243  1.00  0.00     0.019 A 
HETATM   11  N4  LIG X 999      42.824 123.923  22.863  1.00  0.00    -0.337 N 
HETATM   12  H6  LIG X 999      42.468 122.946  22.771  1.00  0.00     0.167 HD
HETATM   13  C9  LIG X 999      42.118 125.013  23.237  1.00  0.00     0.046 A 
HETATM   14  C14 LIG X 999      40.699 125.120  23.612  1.00  0.00     0.033 A 
HETATM   15  C13 LIG X 999      40.222 126.332  23.971  1.00  0.00     0.034 A 
HETATM   16  C12 LIG X 999      41.113 127.544  23.994  1.00  0.00     0.060 A 
HETATM   17  C11 LIG X 999      42.545 127.391  23.581  1.00  0.00     0.022 A 
HETATM   18  N5  LIG X 999      40.646 128.686  24.388  1.00  0.00    -0.299 NA
HETATM   19  H7  LIG X 999      39.652 128.804  24.686  1.00  0.00     0.187 HD
BRANCH   9  20
HETATM   20  N1  LIG X 999      45.183 123.545  22.223  1.00  0.00    -0.053 NA
HETATM   21  N2  LIG X 999      46.059 123.201  23.016  1.00  0.00    -0.160 NA
HETATM   22  N3  LIG X 999      46.934 122.857  23.808  1.00  0.00     0.068 N 
ENDBRANCH   9  20
ENDBRANCH   4   5
ENDBRANCH   3   4
TORSDOF 3
