MODEL 1
REMARK VINA RESULT:      -7.9      0.000      0.000
REMARK  7 active torsions:
REMARK  status: ('A' for Active; 'I' for Inactive)
REMARK    1  A    between atoms: O1_2  and  C1_3 
REMARK    2  A    between atoms: C1_3  and  O2_18 
REMARK    3  A    between atoms: N1_4  and  C2_5 
REMARK    4  A    between atoms: C3_6  and  N2_7 
REMARK    5  A    between atoms: O2_18  and  C12_19 
REMARK    6  A    between atoms: C12_19  and  C14_21 
REMARK    7  A    between atoms: C14_21  and  O3_22 
ROOT
HETATM    1  N2  LIG X 999      41.970 132.156  18.330  1.00  0.00    -0.070 NA
HETATM    2  N3  LIG X 999      41.835 132.709  19.422  1.00  0.00    -0.162 NA
HETATM    3  N4  LIG X 999      41.693 133.257  20.514  1.00  0.00     0.068 N 
ENDROOT
BRANCH   1   4
HETATM    4  C3  LIG X 999      43.248 131.762  17.808  1.00  0.00     0.122 A 
HETATM    5  C2  LIG X 999      44.353 131.427  18.635  1.00  0.00     0.094 A 
HETATM    6  C11 LIG X 999      45.527 130.930  18.053  1.00  0.00     0.046 A 
HETATM    7  C10 LIG X 999      45.646 130.823  16.662  1.00  0.00    -0.024 A 
HETATM    8  C5  LIG X 999      44.569 131.213  15.835  1.00  0.00    -0.024 A 
HETATM    9  C9  LIG X 999      46.831 130.343  16.080  1.00  0.00     0.012 A 
HETATM   10  C4  LIG X 999      43.382 131.681  16.416  1.00  0.00     0.049 A 
HETATM   11  C6  LIG X 999      44.694 131.116  14.440  1.00  0.00     0.012 A 
HETATM   12  C7  LIG X 999      45.878 130.637  13.872  1.00  0.00     0.001 A 
HETATM   13  C8  LIG X 999      46.943 130.251  14.690  1.00  0.00     0.001 A 
BRANCH   5  14
HETATM   14  N1  LIG X 999      44.337 131.605  20.057  1.00  0.00    -0.200 NA
HETATM   15  C1  LIG X 999      45.094 130.951  20.886  1.00  0.00     0.285 C 
BRANCH  15  16
HETATM   16  O1  LIG X 999      45.998 130.004  20.412  1.00  0.00    -0.325 OA
HETATM   17  H1  LIG X 999      45.938 129.039  20.709  1.00  0.00     0.221 HD
ENDBRANCH  15  16
BRANCH  15  18
HETATM   18  O2  LIG X 999      45.014 131.170  22.271  1.00  0.00    -0.308 OA
BRANCH  18  19
HETATM   19  C12 LIG X 999      44.081 130.575  23.187  1.00  0.00     0.152 C 
HETATM   20  C13 LIG X 999      42.769 131.364  23.281  1.00  0.00     0.042 C 
BRANCH  19  21
HETATM   21  C14 LIG X 999      43.868 129.077  22.904  1.00  0.00     0.199 C 
BRANCH  21  22
HETATM   22  O3  LIG X 999      44.974 128.317  23.343  1.00  0.00    -0.393 OA
HETATM   23  C15 LIG X 999      45.156 127.214  22.485  1.00  0.00     0.201 C 
ENDBRANCH  21  22
ENDBRANCH  19  21
ENDBRANCH  18  19
ENDBRANCH  15  18
ENDBRANCH   5  14
ENDBRANCH   1   4
TORSDOF 7
ENDMDL
MODEL 2
REMARK VINA RESULT:      -7.7      0.768      1.709
REMARK  7 active torsions:
REMARK  status: ('A' for Active; 'I' for Inactive)
REMARK    1  A    between atoms: O1_2  and  C1_3 
REMARK    2  A    between atoms: C1_3  and  O2_18 
REMARK    3  A    between atoms: N1_4  and  C2_5 
REMARK    4  A    between atoms: C3_6  and  N2_7 
REMARK    5  A    between atoms: O2_18  and  C12_19 
REMARK    6  A    between atoms: C12_19  and  C14_21 
REMARK    7  A    between atoms: C14_21  and  O3_22 
ROOT
HETATM    1  N2  LIG X 999      42.044 132.102  18.193  1.00  0.00    -0.070 NA
HETATM    2  N3  LIG X 999      41.901 132.649  19.287  1.00  0.00    -0.162 NA
HETATM    3  N4  LIG X 999      41.752 133.192  20.381  1.00  0.00     0.068 N 
ENDROOT
BRANCH   1   4
HETATM    4  C3  LIG X 999      43.324 131.702  17.682  1.00  0.00     0.122 A 
HETATM    5  C2  LIG X 999      44.396 131.287  18.516  1.00  0.00     0.094 A 
HETATM    6  C11 LIG X 999      45.571 130.790  17.938  1.00  0.00     0.046 A 
HETATM    7  C10 LIG X 999      45.725 130.760  16.546  1.00  0.00    -0.024 A 
HETATM    8  C5  LIG X 999      44.683 131.228  15.716  1.00  0.00    -0.024 A 
HETATM    9  C9  LIG X 999      46.912 130.279  15.968  1.00  0.00     0.012 A 
HETATM   10  C4  LIG X 999      43.494 131.698  16.292  1.00  0.00     0.049 A 
HETATM   11  C6  LIG X 999      44.843 131.209  14.321  1.00  0.00     0.012 A 
HETATM   12  C7  LIG X 999      46.028 130.728  13.757  1.00  0.00     0.001 A 
HETATM   13  C8  LIG X 999      47.059 130.264  14.578  1.00  0.00     0.001 A 
BRANCH   5  14
HETATM   14  N1  LIG X 999      44.345 131.383  19.946  1.00  0.00    -0.200 NA
HETATM   15  C1  LIG X 999      45.153 130.759  20.751  1.00  0.00     0.285 C 
BRANCH  15  16
HETATM   16  O1  LIG X 999      46.149 129.930  20.242  1.00  0.00    -0.325 OA
HETATM   17  H1  LIG X 999      46.705 129.353  20.860  1.00  0.00     0.221 HD
ENDBRANCH  15  16
BRANCH  15  18
HETATM   18  O2  LIG X 999      45.035 130.892  22.144  1.00  0.00    -0.308 OA
BRANCH  18  19
HETATM   19  C12 LIG X 999      44.216 130.102  23.021  1.00  0.00     0.152 C 
HETATM   20  C13 LIG X 999      44.575 128.612  22.974  1.00  0.00     0.042 C 
BRANCH  19  21
HETATM   21  C14 LIG X 999      44.182 130.672  24.450  1.00  0.00     0.199 C 
BRANCH  21  22
HETATM   22  O3  LIG X 999      43.493 131.904  24.488  1.00  0.00    -0.393 OA
HETATM   23  C15 LIG X 999      42.256 131.771  23.827  1.00  0.00     0.201 C 
ENDBRANCH  21  22
ENDBRANCH  19  21
ENDBRANCH  18  19
ENDBRANCH  15  18
ENDBRANCH   5  14
ENDBRANCH   1   4
TORSDOF 7
ENDMDL
MODEL 3
REMARK VINA RESULT:      -7.6      1.583      2.058
REMARK  7 active torsions:
REMARK  status: ('A' for Active; 'I' for Inactive)
REMARK    1  A    between atoms: O1_2  and  C1_3 
REMARK    2  A    between atoms: C1_3  and  O2_18 
REMARK    3  A    between atoms: N1_4  and  C2_5 
REMARK    4  A    between atoms: C3_6  and  N2_7 
REMARK    5  A    between atoms: O2_18  and  C12_19 
REMARK    6  A    between atoms: C12_19  and  C14_21 
REMARK    7  A    between atoms: C14_21  and  O3_22 
ROOT
HETATM    1  N2  LIG X 999      44.243 132.367  18.039  1.00  0.00    -0.070 NA
HETATM    2  N3  LIG X 999      43.101 132.001  18.321  1.00  0.00    -0.162 NA
HETATM    3  N4  LIG X 999      41.958 131.643  18.601  1.00  0.00     0.068 N 
ENDROOT
BRANCH   1   4
HETATM    4  C3  LIG X 999      45.151 131.566  17.268  1.00  0.00     0.122 A 
HETATM    5  C2  LIG X 999      45.605 130.288  17.689  1.00  0.00     0.094 A 
HETATM    6  C11 LIG X 999      46.389 129.512  16.824  1.00  0.00     0.046 A 
HETATM    7  C10 LIG X 999      46.784 130.011  15.576  1.00  0.00    -0.024 A 
HETATM    8  C5  LIG X 999      46.383 131.307  15.181  1.00  0.00    -0.024 A 
HETATM    9  C9  LIG X 999      47.586 129.241  14.719  1.00  0.00     0.012 A 
HETATM   10  C4  LIG X 999      45.573 132.073  16.033  1.00  0.00     0.049 A 
HETATM   11  C6  LIG X 999      46.790 131.812  13.936  1.00  0.00     0.012 A 
HETATM   12  C7  LIG X 999      47.587 131.035  13.091  1.00  0.00     0.001 A 
HETATM   13  C8  LIG X 999      47.984 129.753  13.481  1.00  0.00     0.001 A 
BRANCH   5  14
HETATM   14  N1  LIG X 999      45.322 129.756  18.990  1.00  0.00    -0.200 NA
HETATM   15  C1  LIG X 999      45.760 130.268  20.102  1.00  0.00     0.285 C 
BRANCH  15  16
HETATM   16  O1  LIG X 999      46.559 131.407  20.082  1.00  0.00    -0.325 OA
HETATM   17  H1  LIG X 999      46.529 132.071  20.846  1.00  0.00     0.221 HD
ENDBRANCH  15  16
BRANCH  15  18
HETATM   18  O2  LIG X 999      45.451 129.683  21.341  1.00  0.00    -0.308 OA
BRANCH  18  19
HETATM   19  C12 LIG X 999      44.596 130.223  22.361  1.00  0.00     0.152 C 
HETATM   20  C13 LIG X 999      43.450 131.063  21.781  1.00  0.00     0.042 C 
BRANCH  19  21
HETATM   21  C14 LIG X 999      44.116 129.143  23.346  1.00  0.00     0.199 C 
BRANCH  21  22
HETATM   22  O3  LIG X 999      42.716 128.976  23.273  1.00  0.00    -0.393 OA
HETATM   23  C15 LIG X 999      42.166 129.053  24.568  1.00  0.00     0.201 C 
ENDBRANCH  21  22
ENDBRANCH  19  21
ENDBRANCH  18  19
ENDBRANCH  15  18
ENDBRANCH   5  14
ENDBRANCH   1   4
TORSDOF 7
ENDMDL
MODEL 4
REMARK VINA RESULT:      -6.8      2.208      6.733
REMARK  7 active torsions:
REMARK  status: ('A' for Active; 'I' for Inactive)
REMARK    1  A    between atoms: O1_2  and  C1_3 
REMARK    2  A    between atoms: C1_3  and  O2_18 
REMARK    3  A    between atoms: N1_4  and  C2_5 
REMARK    4  A    between atoms: C3_6  and  N2_7 
REMARK    5  A    between atoms: O2_18  and  C12_19 
REMARK    6  A    between atoms: C12_19  and  C14_21 
REMARK    7  A    between atoms: C14_21  and  O3_22 
ROOT
HETATM    1  N2  LIG X 999      43.600 132.647  20.591  1.00  0.00    -0.070 NA
HETATM    2  N3  LIG X 999      42.420 132.912  20.362  1.00  0.00    -0.162 NA
HETATM    3  N4  LIG X 999      41.243 133.182  20.127  1.00  0.00     0.068 N 
ENDROOT
BRANCH   1   4
HETATM    4  C3  LIG X 999      44.037 131.355  21.038  1.00  0.00     0.122 A 
HETATM    5  C2  LIG X 999      45.044 130.605  20.374  1.00  0.00     0.094 A 
HETATM    6  C11 LIG X 999      45.506 129.411  20.943  1.00  0.00     0.046 A 
HETATM    7  C10 LIG X 999      44.940 128.915  22.124  1.00  0.00    -0.024 A 
HETATM    8  C5  LIG X 999      43.896 129.630  22.753  1.00  0.00    -0.024 A 
HETATM    9  C9  LIG X 999      45.390 127.708  22.681  1.00  0.00     0.012 A 
HETATM   10  C4  LIG X 999      43.454 130.841  22.202  1.00  0.00     0.049 A 
HETATM   11  C6  LIG X 999      43.320 129.126  23.931  1.00  0.00     0.012 A 
HETATM   12  C7  LIG X 999      43.778 127.924  24.477  1.00  0.00     0.001 A 
HETATM   13  C8  LIG X 999      44.810 127.217  23.854  1.00  0.00     0.001 A 
BRANCH   5  14
HETATM   14  N1  LIG X 999      45.598 131.001  19.112  1.00  0.00    -0.200 NA
HETATM   15  C1  LIG X 999      44.891 131.330  18.072  1.00  0.00     0.285 C 
BRANCH  15  16
HETATM   16  O1  LIG X 999      43.501 131.312  18.136  1.00  0.00    -0.325 OA
HETATM   17  H1  LIG X 999      42.957 130.855  17.414  1.00  0.00     0.221 HD
ENDBRANCH  15  16
BRANCH  15  18
HETATM   18  O2  LIG X 999      45.505 131.697  16.864  1.00  0.00    -0.308 OA
BRANCH  18  19
HETATM   19  C12 LIG X 999      46.174 130.828  15.936  1.00  0.00     0.152 C 
HETATM   20  C13 LIG X 999      45.418 129.511  15.717  1.00  0.00     0.042 C 
BRANCH  19  21
HETATM   21  C14 LIG X 999      46.532 131.547  14.624  1.00  0.00     0.199 C 
BRANCH  21  22
HETATM   22  O3  LIG X 999      46.587 130.636  13.546  1.00  0.00    -0.393 OA
HETATM   23  C15 LIG X 999      47.906 130.573  13.052  1.00  0.00     0.201 C 
ENDBRANCH  21  22
ENDBRANCH  19  21
ENDBRANCH  18  19
ENDBRANCH  15  18
ENDBRANCH   5  14
ENDBRANCH   1   4
TORSDOF 7
ENDMDL
MODEL 5
REMARK VINA RESULT:      -5.9      5.194      8.915
REMARK  7 active torsions:
REMARK  status: ('A' for Active; 'I' for Inactive)
REMARK    1  A    between atoms: O1_2  and  C1_3 
REMARK    2  A    between atoms: C1_3  and  O2_18 
REMARK    3  A    between atoms: N1_4  and  C2_5 
REMARK    4  A    between atoms: C3_6  and  N2_7 
REMARK    5  A    between atoms: O2_18  and  C12_19 
REMARK    6  A    between atoms: C12_19  and  C14_21 
REMARK    7  A    between atoms: C14_21  and  O3_22 
ROOT
HETATM    1  N2  LIG X 999      44.051 125.246  22.282  1.00  0.00    -0.070 NA
HETATM    2  N3  LIG X 999      45.009 124.503  22.497  1.00  0.00    -0.162 NA
HETATM    3  N4  LIG X 999      45.972 123.767  22.711  1.00  0.00     0.068 N 
ENDROOT
BRANCH   1   4
HETATM    4  C3  LIG X 999      42.793 125.112  22.959  1.00  0.00     0.122 A 
HETATM    5  C2  LIG X 999      42.219 126.150  23.740  1.00  0.00     0.094 A 
HETATM    6  C11 LIG X 999      40.929 125.990  24.264  1.00  0.00     0.046 A 
HETATM    7  C10 LIG X 999      40.227 124.791  24.082  1.00  0.00    -0.024 A 
HETATM    8  C5  LIG X 999      40.822 123.735  23.356  1.00  0.00    -0.024 A 
HETATM    9  C9  LIG X 999      38.943 124.625  24.625  1.00  0.00     0.012 A 
HETATM   10  C4  LIG X 999      42.099 123.905  22.805  1.00  0.00     0.049 A 
HETATM   11  C6  LIG X 999      40.122 122.530  23.185  1.00  0.00     0.012 A 
HETATM   12  C7  LIG X 999      38.844 122.376  23.729  1.00  0.00     0.001 A 
HETATM   13  C8  LIG X 999      38.256 123.421  24.447  1.00  0.00     0.001 A 
BRANCH   5  14
HETATM   14  N1  LIG X 999      42.919 127.362  24.050  1.00  0.00    -0.200 NA
HETATM   15  C1  LIG X 999      42.414 128.553  23.921  1.00  0.00     0.285 C 
BRANCH  15  16
HETATM   16  O1  LIG X 999      41.111 128.716  23.456  1.00  0.00    -0.325 OA
HETATM   17  H1  LIG X 999      40.630 129.599  23.570  1.00  0.00     0.221 HD
ENDBRANCH  15  16
BRANCH  15  18
HETATM   18  O2  LIG X 999      43.165 129.698  24.233  1.00  0.00    -0.308 OA
BRANCH  18  19
HETATM   19  C12 LIG X 999      43.431 130.817  23.373  1.00  0.00     0.152 C 
HETATM   20  C13 LIG X 999      43.930 132.044  24.146  1.00  0.00     0.042 C 
BRANCH  19  21
HETATM   21  C14 LIG X 999      44.339 130.435  22.191  1.00  0.00     0.199 C 
BRANCH  21  22
HETATM   22  O3  LIG X 999      43.869 131.002  20.986  1.00  0.00    -0.393 OA
HETATM   23  C15 LIG X 999      44.955 131.530  20.260  1.00  0.00     0.201 C 
ENDBRANCH  21  22
ENDBRANCH  19  21
ENDBRANCH  18  19
ENDBRANCH  15  18
ENDBRANCH   5  14
ENDBRANCH   1   4
TORSDOF 7
ENDMDL
MODEL 6
REMARK VINA RESULT:      -5.7      3.923      7.360
REMARK  7 active torsions:
REMARK  status: ('A' for Active; 'I' for Inactive)
REMARK    1  A    between atoms: O1_2  and  C1_3 
REMARK    2  A    between atoms: C1_3  and  O2_18 
REMARK    3  A    between atoms: N1_4  and  C2_5 
REMARK    4  A    between atoms: C3_6  and  N2_7 
REMARK    5  A    between atoms: O2_18  and  C12_19 
REMARK    6  A    between atoms: C12_19  and  C14_21 
REMARK    7  A    between atoms: C14_21  and  O3_22 
ROOT
HETATM    1  N2  LIG X 999      42.401 126.773  24.388  1.00  0.00    -0.070 NA
HETATM    2  N3  LIG X 999      41.265 126.485  24.008  1.00  0.00    -0.162 NA
HETATM    3  N4  LIG X 999      40.129 126.205  23.631  1.00  0.00     0.068 N 
ENDROOT
BRANCH   1   4
HETATM    4  C3  LIG X 999      43.586 126.340  23.704  1.00  0.00     0.122 A 
HETATM    5  C2  LIG X 999      44.398 127.213  22.932  1.00  0.00     0.094 A 
HETATM    6  C11 LIG X 999      45.607 126.744  22.401  1.00  0.00     0.046 A 
HETATM    7  C10 LIG X 999      45.990 125.407  22.565  1.00  0.00    -0.024 A 
HETATM    8  C5  LIG X 999      45.153 124.522  23.281  1.00  0.00    -0.024 A 
HETATM    9  C9  LIG X 999      47.192 124.934  22.014  1.00  0.00     0.012 A 
HETATM   10  C4  LIG X 999      43.958 124.997  23.840  1.00  0.00     0.049 A 
HETATM   11  C6  LIG X 999      45.532 123.179  23.435  1.00  0.00     0.012 A 
HETATM   12  C7  LIG X 999      46.731 122.719  22.883  1.00  0.00     0.001 A 
HETATM   13  C8  LIG X 999      47.559 123.595  22.175  1.00  0.00     0.001 A 
BRANCH   5  14
HETATM   14  N1  LIG X 999      44.021 128.565  22.640  1.00  0.00    -0.200 NA
HETATM   15  C1  LIG X 999      44.339 129.589  23.374  1.00  0.00     0.285 C 
BRANCH  15  16
HETATM   16  O1  LIG X 999      45.096 129.415  24.530  1.00  0.00    -0.325 OA
HETATM   17  H1  LIG X 999      45.766 128.659  24.598  1.00  0.00     0.221 HD
ENDBRANCH  15  16
BRANCH  15  18
HETATM   18  O2  LIG X 999      43.923 130.886  23.031  1.00  0.00    -0.308 OA
BRANCH  18  19
HETATM   19  C12 LIG X 999      44.134 131.557  21.779  1.00  0.00     0.152 C 
HETATM   20  C13 LIG X 999      45.367 131.032  21.033  1.00  0.00     0.042 C 
BRANCH  19  21
HETATM   21  C14 LIG X 999      42.863 131.576  20.911  1.00  0.00     0.199 C 
BRANCH  21  22
HETATM   22  O3  LIG X 999      43.186 131.702  19.543  1.00  0.00    -0.393 OA
HETATM   23  C15 LIG X 999      42.065 132.183  18.837  1.00  0.00     0.201 C 
ENDBRANCH  21  22
ENDBRANCH  19  21
ENDBRANCH  18  19
ENDBRANCH  15  18
ENDBRANCH   5  14
ENDBRANCH   1   4
TORSDOF 7
ENDMDL
MODEL 7
REMARK VINA RESULT:      -5.6      3.210      7.150
REMARK  7 active torsions:
REMARK  status: ('A' for Active; 'I' for Inactive)
REMARK    1  A    between atoms: O1_2  and  C1_3 
REMARK    2  A    between atoms: C1_3  and  O2_18 
REMARK    3  A    between atoms: N1_4  and  C2_5 
REMARK    4  A    between atoms: C3_6  and  N2_7 
REMARK    5  A    between atoms: O2_18  and  C12_19 
REMARK    6  A    between atoms: C12_19  and  C14_21 
REMARK    7  A    between atoms: C14_21  and  O3_22 
ROOT
HETATM    1  N2  LIG X 999      42.536 127.979  24.230  1.00  0.00    -0.070 NA
HETATM    2  N3  LIG X 999      41.383 127.668  23.929  1.00  0.00    -0.162 NA
HETATM    3  N4  LIG X 999      40.229 127.365  23.628  1.00  0.00     0.068 N 
ENDROOT
BRANCH   1   4
HETATM    4  C3  LIG X 999      43.688 127.309  23.699  1.00  0.00     0.122 A 
HETATM    5  C2  LIG X 999      44.562 127.903  22.750  1.00  0.00     0.094 A 
HETATM    6  C11 LIG X 999      45.736 127.235  22.376  1.00  0.00     0.046 A 
HETATM    7  C10 LIG X 999      46.023 125.959  22.878  1.00  0.00    -0.024 A 
HETATM    8  C5  LIG X 999      45.125 125.341  23.776  1.00  0.00    -0.024 A 
HETATM    9  C9  LIG X 999      47.190 125.283  22.486  1.00  0.00     0.012 A 
HETATM   10  C4  LIG X 999      43.965 126.021  24.175  1.00  0.00     0.049 A 
HETATM   11  C6  LIG X 999      45.408 124.057  24.269  1.00  0.00     0.012 A 
HETATM   12  C7  LIG X 999      46.572 123.394  23.873  1.00  0.00     0.001 A 
HETATM   13  C8  LIG X 999      47.462 124.006  22.984  1.00  0.00     0.001 A 
BRANCH   5  14
HETATM   14  N1  LIG X 999      44.281 129.160  22.121  1.00  0.00    -0.200 NA
HETATM   15  C1  LIG X 999      44.308 130.307  22.733  1.00  0.00     0.285 C 
BRANCH  15  16
HETATM   16  O1  LIG X 999      44.625 130.372  24.087  1.00  0.00    -0.325 OA
HETATM   17  H1  LIG X 999      44.437 131.212  24.620  1.00  0.00     0.221 HD
ENDBRANCH  15  16
BRANCH  15  18
HETATM   18  O2  LIG X 999      44.009 131.499  22.053  1.00  0.00    -0.308 OA
BRANCH  18  19
HETATM   19  C12 LIG X 999      43.629 131.635  20.675  1.00  0.00     0.152 C 
HETATM   20  C13 LIG X 999      42.375 132.500  20.495  1.00  0.00     0.042 C 
BRANCH  19  21
HETATM   21  C14 LIG X 999      44.807 132.085  19.792  1.00  0.00     0.199 C 
BRANCH  21  22
HETATM   22  O3  LIG X 999      45.242 131.035  18.955  1.00  0.00    -0.393 OA
HETATM   23  C15 LIG X 999      45.000 131.375  17.609  1.00  0.00     0.201 C 
ENDBRANCH  21  22
ENDBRANCH  19  21
ENDBRANCH  18  19
ENDBRANCH  15  18
ENDBRANCH   5  14
ENDBRANCH   1   4
TORSDOF 7
ENDMDL
MODEL 8
REMARK VINA RESULT:      -5.6      6.499      8.411
REMARK  7 active torsions:
REMARK  status: ('A' for Active; 'I' for Inactive)
REMARK    1  A    between atoms: O1_2  and  C1_3 
REMARK    2  A    between atoms: C1_3  and  O2_18 
REMARK    3  A    between atoms: N1_4  and  C2_5 
REMARK    4  A    between atoms: C3_6  and  N2_7 
REMARK    5  A    between atoms: O2_18  and  C12_19 
REMARK    6  A    between atoms: C12_19  and  C14_21 
REMARK    7  A    between atoms: C14_21  and  O3_22 
ROOT
HETATM    1  N2  LIG X 999      44.300 128.067  23.997  1.00  0.00    -0.070 NA
HETATM    2  N3  LIG X 999      44.326 129.169  23.447  1.00  0.00    -0.162 NA
HETATM    3  N4  LIG X 999      44.360 130.270  22.900  1.00  0.00     0.068 N 
ENDROOT
BRANCH   1   4
HETATM    4  C3  LIG X 999      43.522 126.967  23.504  1.00  0.00     0.122 A 
HETATM    5  C2  LIG X 999      44.064 125.935  22.693  1.00  0.00     0.094 A 
HETATM    6  C11 LIG X 999      43.272 124.830  22.357  1.00  0.00     0.046 A 
HETATM    7  C10 LIG X 999      41.931 124.763  22.756  1.00  0.00    -0.024 A 
HETATM    8  C5  LIG X 999      41.373 125.818  23.512  1.00  0.00    -0.024 A 
HETATM    9  C9  LIG X 999      41.133 123.663  22.402  1.00  0.00     0.012 A 
HETATM   10  C4  LIG X 999      42.172 126.911  23.875  1.00  0.00     0.049 A 
HETATM   11  C6  LIG X 999      40.025 125.756  23.901  1.00  0.00     0.012 A 
HETATM   12  C7  LIG X 999      39.240 124.656  23.543  1.00  0.00     0.001 A 
HETATM   13  C8  LIG X 999      39.793 123.612  22.796  1.00  0.00     0.001 A 
BRANCH   5  14
HETATM   14  N1  LIG X 999      45.397 125.985  22.167  1.00  0.00    -0.200 NA
HETATM   15  C1  LIG X 999      46.470 125.762  22.866  1.00  0.00     0.285 C 
BRANCH  15  16
HETATM   16  O1  LIG X 999      46.372 125.450  24.219  1.00  0.00    -0.325 OA
HETATM   17  H1  LIG X 999      46.739 126.080  24.922  1.00  0.00     0.221 HD
ENDBRANCH  15  16
BRANCH  15  18
HETATM   18  O2  LIG X 999      47.745 125.841  22.284  1.00  0.00    -0.308 OA
BRANCH  18  19
HETATM   19  C12 LIG X 999      48.681 124.766  22.106  1.00  0.00     0.152 C 
HETATM   20  C13 LIG X 999      49.515 124.501  23.366  1.00  0.00     0.042 C 
BRANCH  19  21
HETATM   21  C14 LIG X 999      48.009 123.500  21.547  1.00  0.00     0.199 C 
BRANCH  21  22
HETATM   22  O3  LIG X 999      48.072 123.474  20.137  1.00  0.00    -0.393 OA
HETATM   23  C15 LIG X 999      49.381 123.143  19.731  1.00  0.00     0.201 C 
ENDBRANCH  21  22
ENDBRANCH  19  21
ENDBRANCH  18  19
ENDBRANCH  15  18
ENDBRANCH   5  14
ENDBRANCH   1   4
TORSDOF 7
ENDMDL
MODEL 9
REMARK VINA RESULT:      -5.4      7.400      9.739
REMARK  7 active torsions:
REMARK  status: ('A' for Active; 'I' for Inactive)
REMARK    1  A    between atoms: O1_2  and  C1_3 
REMARK    2  A    between atoms: C1_3  and  O2_18 
REMARK    3  A    between atoms: N1_4  and  C2_5 
REMARK    4  A    between atoms: C3_6  and  N2_7 
REMARK    5  A    between atoms: O2_18  and  C12_19 
REMARK    6  A    between atoms: C12_19  and  C14_21 
REMARK    7  A    between atoms: C14_21  and  O3_22 
ROOT
HETATM    1  N2  LIG X 999      43.477 126.505  23.415  1.00  0.00    -0.070 NA
HETATM    2  N3  LIG X 999      43.250 127.672  23.739  1.00  0.00    -0.162 NA
HETATM    3  N4  LIG X 999      43.028 128.839  24.056  1.00  0.00     0.068 N 
ENDROOT
BRANCH   1   4
HETATM    4  C3  LIG X 999      42.518 125.450  23.579  1.00  0.00     0.122 A 
HETATM    5  C2  LIG X 999      42.868 124.074  23.549  1.00  0.00     0.094 A 
HETATM    6  C11 LIG X 999      41.898 123.107  23.844  1.00  0.00     0.046 A 
HETATM    7  C10 LIG X 999      40.573 123.478  24.103  1.00  0.00    -0.024 A 
HETATM    8  C5  LIG X 999      40.210 124.843  24.074  1.00  0.00    -0.024 A 
HETATM    9  C9  LIG X 999      39.598 122.506  24.379  1.00  0.00     0.012 A 
HETATM   10  C4  LIG X 999      41.186 125.815  23.809  1.00  0.00     0.049 A 
HETATM   11  C6  LIG X 999      38.879 125.214  24.322  1.00  0.00     0.012 A 
HETATM   12  C7  LIG X 999      37.917 124.238  24.596  1.00  0.00     0.001 A 
HETATM   13  C8  LIG X 999      38.276 122.887  24.625  1.00  0.00     0.001 A 
BRANCH   5  14
HETATM   14  N1  LIG X 999      44.180 123.617  23.195  1.00  0.00    -0.200 NA
HETATM   15  C1  LIG X 999      44.504 123.155  22.024  1.00  0.00     0.285 C 
BRANCH  15  16
HETATM   16  O1  LIG X 999      43.550 123.080  21.012  1.00  0.00    -0.325 OA
HETATM   17  H1  LIG X 999      43.702 122.489  20.204  1.00  0.00     0.221 HD
ENDBRANCH  15  16
BRANCH  15  18
HETATM   18  O2  LIG X 999      45.809 122.714  21.753  1.00  0.00    -0.308 OA
BRANCH  18  19
HETATM   19  C12 LIG X 999      46.954 123.530  21.461  1.00  0.00     0.152 C 
HETATM   20  C13 LIG X 999      46.851 124.927  22.086  1.00  0.00     0.042 C 
BRANCH  19  21
HETATM   21  C14 LIG X 999      48.275 122.814  21.792  1.00  0.00     0.199 C 
BRANCH  21  22
HETATM   22  O3  LIG X 999      49.368 123.457  21.170  1.00  0.00    -0.393 OA
HETATM   23  C15 LIG X 999      49.372 123.152  19.794  1.00  0.00     0.201 C 
ENDBRANCH  21  22
ENDBRANCH  19  21
ENDBRANCH  18  19
ENDBRANCH  15  18
ENDBRANCH   5  14
ENDBRANCH   1   4
TORSDOF 7
ENDMDL
