REMARK VINA RESULT:      -3.9      2.937      4.286
REMARK  6 active torsions:
REMARK  status: ('A' for Active; 'I' for Inactive)
REMARK    1  A    between atoms: C8_8  and  O1_9 
REMARK    2  A    between atoms: O1_9  and  C9_10 
REMARK    3  A    between atoms: C9_10  and  C10_11 
REMARK    4  A    between atoms: C10_11  and  C11_12 
REMARK    5  A    between atoms: C11_12  and  N1_13 
REMARK    6  A    between atoms: C13_18  and  N4_19 
ROOT
HETATM    1  N1  LIG X 999      44.553 131.749  17.720  1.00  0.00    -0.116 NA
HETATM    2  N2  LIG X 999      45.360 130.964  17.223  1.00  0.00    -0.168 NA
HETATM    3  N3  LIG X 999      46.168 130.179  16.730  1.00  0.00     0.068 N 
ENDROOT
BRANCH   1   4
HETATM    4  C11 LIG X 999      43.119 131.607  17.489  1.00  0.00     0.191 C 
BRANCH   4   5
HETATM    5  C10 LIG X 999      42.305 131.844  18.770  1.00  0.00     0.051 C 
BRANCH   5   6
HETATM    6  C9  LIG X 999      43.187 132.127  19.989  1.00  0.00     0.170 C 
BRANCH   6   7
HETATM    7  O1  LIG X 999      42.929 131.168  20.992  1.00  0.00    -0.384 OA
BRANCH   7   8
HETATM    8  C8  LIG X 999      43.690 131.430  22.161  1.00  0.00     0.146 C 
HETATM    9  C7  LIG X 999      42.808 131.251  23.403  1.00  0.00     0.072 C 
HETATM   10  C5  LIG X 999      42.397 129.814  23.609  1.00  0.00    -0.047 A 
HETATM   11  C4  LIG X 999      43.167 128.740  23.094  1.00  0.00    -0.023 A 
HETATM   12  C6  LIG X 999      41.263 129.540  24.392  1.00  0.00     0.008 A 
HETATM   13  C3  LIG X 999      42.731 127.421  23.316  1.00  0.00     0.010 A 
HETATM   14  C13 LIG X 999      44.376 128.980  22.204  1.00  0.00     0.199 C 
HETATM   15  C2  LIG X 999      41.592 127.167  24.083  1.00  0.00     0.001 A 
HETATM   16  C1  LIG X 999      40.863 128.224  24.625  1.00  0.00     0.001 A 
HETATM   17  C12 LIG X 999      44.864 130.443  22.233  1.00  0.00     0.143 C 
HETATM   18 CL1  LIG X 999      45.991 130.743  20.877  1.00  0.00    -0.120 Cl
BRANCH  14  19
HETATM   19  N4  LIG X 999      45.475 128.108  22.617  1.00  0.00    -0.104 NA
HETATM   20  N5  LIG X 999      45.491 126.915  22.311  1.00  0.00    -0.167 NA
HETATM   21  N6  LIG X 999      45.507 125.724  22.005  1.00  0.00     0.068 N 
ENDBRANCH  14  19
ENDBRANCH   7   8
ENDBRANCH   6   7
ENDBRANCH   5   6
ENDBRANCH   4   5
ENDBRANCH   1   4
TORSDOF 6
