REMARK VINA RESULT:      -5.9      1.064      1.213
REMARK  4 active torsions:
REMARK  status: ('A' for Active; 'I' for Inactive)
REMARK    1  A    between atoms: C1_1  and  C2_6 
REMARK    2  A    between atoms: N1_2  and  N2_3 
REMARK    3  A    between atoms: C2_6  and  C3_8 
REMARK    4  A    between atoms: C11_16  and  N4_17 
ROOT
HETATM    1  N4  LIG X 999      45.751 129.342  20.568  1.00  0.00    -0.105 NA
HETATM    2  N5  LIG X 999      45.387 128.734  21.576  1.00  0.00    -0.167 NA
HETATM    3  N6  LIG X 999      45.024 128.128  22.582  1.00  0.00     0.068 N 
ENDROOT
BRANCH   1   4
HETATM    4  C11 LIG X 999      45.763 130.801  20.525  1.00  0.00     0.179 C 
HETATM    5  C10 LIG X 999      44.565 131.321  21.291  1.00  0.00    -0.024 A 
HETATM    6  C5  LIG X 999      43.396 131.776  20.630  1.00  0.00    -0.049 A 
HETATM    7  C9  LIG X 999      44.582 131.262  22.695  1.00  0.00     0.010 A 
HETATM    8  C4  LIG X 999      43.344 131.936  19.129  1.00  0.00     0.051 C 
HETATM    9  C6  LIG X 999      42.294 132.198  21.391  1.00  0.00     0.007 A 
HETATM   10  C3  LIG X 999      44.408 131.095  18.407  1.00  0.00     0.068 C 
HETATM   11  C12 LIG X 999      45.779 131.303  19.069  1.00  0.00     0.048 C 
HETATM   12  C7  LIG X 999      42.330 132.139  22.786  1.00  0.00     0.001 A 
HETATM   13  C8  LIG X 999      43.472 131.671  23.437  1.00  0.00     0.001 A 
BRANCH  10  14
HETATM   14  C2  LIG X 999      44.456 131.457  16.943  1.00  0.00     0.172 C 
HETATM   15  O1  LIG X 999      43.393 131.760  16.334  1.00  0.00    -0.291 OA
BRANCH  14  16
HETATM   16  C1  LIG X 999      45.731 131.427  16.209  1.00  0.00     0.190 C 
HETATM   17  N1  LIG X 999      45.763 131.691  14.941  1.00  0.00    -0.165 NA
BRANCH  17  18
HETATM   18  N2  LIG X 999      46.961 131.670  14.213  1.00  0.00    -0.177 N 
HETATM   19  H2  LIG X 999      47.492 132.552  14.024  1.00  0.00     0.214 HD
HETATM   20  N3  LIG X 999      47.412 130.569  13.775  1.00  0.00    -0.031 N 
ENDBRANCH  17  18
ENDBRANCH  14  16
ENDBRANCH  10  14
ENDBRANCH   1   4
TORSDOF 4
