REMARK VINA RESULT:      -7.9      3.338      5.627
REMARK  2 active torsions:
REMARK  status: ('A' for Active; 'I' for Inactive)
REMARK    1  A    between atoms: C1_1  and  N1_14 
REMARK    2  A    between atoms: C2_2  and  C3_4 
ROOT
HETATM    1  C3  LIG X 999      45.017 131.096  17.178  1.00  0.00     0.003 A 
HETATM    2  C4  LIG X 999      45.597 129.849  17.483  1.00  0.00     0.015 A 
HETATM    3  C5  LIG X 999      46.499 129.248  16.602  1.00  0.00     0.013 A 
HETATM    4  C6  LIG X 999      46.836 129.877  15.396  1.00  0.00    -0.026 A 
HETATM    5  C7  LIG X 999      47.742 129.280  14.506  1.00  0.00     0.012 A 
HETATM    6  C8  LIG X 999      48.066 129.915  13.304  1.00  0.00     0.001 A 
HETATM    7  C9  LIG X 999      47.488 131.146  12.982  1.00  0.00     0.001 A 
HETATM    8  C10 LIG X 999      46.583 131.750  13.860  1.00  0.00     0.012 A 
HETATM    9  C11 LIG X 999      46.250 131.122  15.070  1.00  0.00    -0.025 A 
HETATM   10  C12 LIG X 999      45.343 131.718  15.960  1.00  0.00     0.026 A 
ENDROOT
BRANCH   1  11
HETATM   11  C2  LIG X 999      44.044 131.750  18.091  1.00  0.00     0.132 C 
HETATM   12  C1  LIG X 999      42.765 131.951  17.742  1.00  0.00     0.121 C 
HETATM   13  O1  LIG X 999      44.477 132.142  19.355  1.00  0.00    -0.190 OA
BRANCH  12  14
HETATM   14  N1  LIG X 999      41.837 132.587  18.626  1.00  0.00    -0.406 N 
HETATM   15  H9  LIG X 999      41.995 133.551  18.995  1.00  0.00     0.155 HD
HETATM   16  H10 LIG X 999      40.970 132.081  18.910  1.00  0.00     0.155 HD
ENDBRANCH  12  14
ENDBRANCH   1  11
TORSDOF 2
