REMARK VINA RESULT:      -6.1      8.959     10.305
REMARK  1 active torsions:
REMARK  status: ('A' for Active; 'I' for Inactive)
REMARK    1  A    between atoms: C2_5  and  C3_6 
ROOT
HETATM    1  C3  LIG X 999      51.417 136.837  22.871  1.00  0.00     0.030 A 
HETATM    2  C4  LIG X 999      52.248 137.715  23.597  1.00  0.00     0.017 A 
HETATM    3  C5  LIG X 999      52.247 139.085  23.358  1.00  0.00     0.002 A 
HETATM    4  C6  LIG X 999      51.416 139.625  22.388  1.00  0.00     0.012 A 
HETATM    5  C7  LIG X 999      50.572 138.797  21.639  1.00  0.00    -0.025 A 
HETATM    6  C8  LIG X 999      49.742 139.376  20.665  1.00  0.00     0.012 A 
HETATM    7  C9  LIG X 999      48.890 138.582  19.904  1.00  0.00     0.001 A 
HETATM    8  C10 LIG X 999      48.857 137.206  20.106  1.00  0.00     0.001 A 
HETATM    9  C11 LIG X 999      49.673 136.611  21.072  1.00  0.00     0.013 A 
HETATM   10  C12 LIG X 999      50.554 137.387  21.865  1.00  0.00    -0.011 A 
ENDROOT
BRANCH   1  11
HETATM   11  C2  LIG X 999      51.524 135.389  23.236  1.00  0.00     0.203 A 
HETATM   12  O1  LIG X 999      50.514 134.691  23.721  1.00  0.00    -0.255 OA
HETATM   13  C1  LIG X 999      50.991 133.488  23.911  1.00  0.00     0.262 A 
HETATM   14  N1  LIG X 999      50.309 132.495  24.380  1.00  0.00    -0.260 NA
HETATM   15  N3  LIG X 999      52.280 133.413  23.558  1.00  0.00    -0.238 N 
HETATM   16  H1  LIG X 999      49.305 132.612  24.640  1.00  0.00     0.190 HD
HETATM   17  N2  LIG X 999      52.626 134.614  23.129  1.00  0.00    -0.145 NA
HETATM   18  H9  LIG X 999      52.911 132.583  23.602  1.00  0.00     0.193 HD
ENDBRANCH   1  11
TORSDOF 1
