REMARK VINA RESULT:      -3.1      4.075      6.566
REMARK  5 active torsions:
REMARK  status: ('A' for Active; 'I' for Inactive)
REMARK    1  A    between atoms: O1_2  and  C1_3 
REMARK    2  A    between atoms: C1_3  and  C15_22 
REMARK    3  A    between atoms: N1_4  and  C2_5 
REMARK    4  A    between atoms: C3_6  and  O2_7 
REMARK    5  A    between atoms: O2_7  and  C4_8 
REMARK       I    between atoms: C4_8  and  N2_10 
ROOT
HETATM    1  C2  LIG X 999      44.734 129.536  21.847  1.00  0.00     0.104 A 
HETATM    2  C3  LIG X 999      44.272 130.591  22.654  1.00  0.00     0.110 A 
HETATM    3  C7  LIG X 999      44.130 130.399  24.039  1.00  0.00     0.041 A 
HETATM    4  C8  LIG X 999      44.480 129.184  24.625  1.00  0.00     0.015 A 
HETATM    5  C9  LIG X 999      44.987 128.139  23.842  1.00  0.00    -0.024 A 
HETATM    6  C10 LIG X 999      45.362 126.927  24.443  1.00  0.00     0.012 A 
HETATM    7  C11 LIG X 999      45.888 125.893  23.667  1.00  0.00     0.001 A 
HETATM    8  C12 LIG X 999      46.051 126.060  22.291  1.00  0.00     0.001 A 
HETATM    9  C13 LIG X 999      45.680 127.260  21.679  1.00  0.00     0.014 A 
HETATM   10  C14 LIG X 999      45.127 128.310  22.441  1.00  0.00     0.006 A 
ENDROOT
BRANCH   1  11
HETATM   11  N1  LIG X 999      44.829 129.753  20.432  1.00  0.00    -0.221 NA
HETATM   12  C1  LIG X 999      45.650 130.600  19.885  1.00  0.00     0.176 C 
BRANCH  12  13
HETATM   13  O1  LIG X 999      46.523 131.343  20.683  1.00  0.00    -0.344 OA
HETATM   14  H1  LIG X 999      47.200 131.984  20.291  1.00  0.00     0.219 HD
ENDBRANCH  12  13
BRANCH  12  15
HETATM   15  C15 LIG X 999      45.651 130.753  18.418  1.00  0.00     0.053 A 
HETATM   16  C16 LIG X 999      45.118 131.803  17.690  1.00  0.00     0.156 A 
HETATM   17  N3  LIG X 999      45.303 131.574  16.376  1.00  0.00    -0.185 NA
HETATM   18  N4  LIG X 999      45.947 130.423  16.258  1.00  0.00    -0.285 N 
HETATM   19  C17 LIG X 999      46.273 129.802  14.983  1.00  0.00     0.179 C 
HETATM   20  C18 LIG X 999      46.166 129.887  17.473  1.00  0.00     0.129 A 
ENDBRANCH  12  15
ENDBRANCH   1  11
BRANCH   2  21
HETATM   21  O2  LIG X 999      43.913 131.799  22.036  1.00  0.00    -0.254 OA
BRANCH  21  22
HETATM   22  C4  LIG X 999      42.679 132.060  21.423  1.00  0.00     0.461 C 
HETATM   23  O3  LIG X 999      41.628 132.162  22.116  1.00  0.00    -0.230 OA
HETATM   24  N2  LIG X 999      42.635 132.288  20.000  1.00  0.00     0.009 N 
HETATM   25  H2  LIG X 999      43.585 132.099  19.601  1.00  0.00     0.292 HD
HETATM   26  C5  LIG X 999      42.289 133.691  19.722  1.00  0.00     0.282 C 
HETATM   27  C6  LIG X 999      41.678 131.373  19.360  1.00  0.00     0.282 C 
ENDBRANCH  21  22
ENDBRANCH   2  21
TORSDOF 5
