REMARK VINA RESULT:      -5.2      5.483      8.006
REMARK  5 active torsions:
REMARK  status: ('A' for Active; 'I' for Inactive)
REMARK    1  A    between atoms: C3_3  and  C4_4 
REMARK    2  A    between atoms: C4_4  and  S1_5 
REMARK    3  A    between atoms: S1_5  and  C5_6 
REMARK    4  A    between atoms: C6_7  and  N1_8 
REMARK    5  A    between atoms: C10_12  and  N2_13 
ROOT
HETATM    1  C1  LIG X 999      42.360 132.508  20.519  1.00  0.00     0.112 C 
HETATM    2  C2  LIG X 999      43.179 131.491  21.178  1.00  0.00    -0.110 C 
HETATM    3  C3  LIG X 999      43.861 130.647  21.703  1.00  0.00    -0.097 C 
ENDROOT
BRANCH   3   4
HETATM    4  C4  LIG X 999      44.696 129.611  22.316  1.00  0.00     0.173 C 
BRANCH   4   5
HETATM    5  S1  LIG X 999      44.225 129.361  24.063  1.00  0.00    -0.115 SA
BRANCH   5   6
HETATM    6  C5  LIG X 999      43.244 127.867  23.754  1.00  0.00     0.038 A 
HETATM    7  C6  LIG X 999      41.837 127.924  23.851  1.00  0.00     0.043 A 
HETATM    8  C7  LIG X 999      41.077 126.785  23.578  1.00  0.00     0.031 A 
HETATM    9  C8  LIG X 999      41.681 125.592  23.196  1.00  0.00     0.017 A 
HETATM   10  C9  LIG X 999      43.079 125.495  23.081  1.00  0.00     0.002 A 
HETATM   11  C10 LIG X 999      43.716 124.284  22.676  1.00  0.00     0.045 A 
HETATM   12  C14 LIG X 999      43.876 126.641  23.405  1.00  0.00    -0.004 A 
HETATM   13  C11 LIG X 999      45.118 124.249  22.648  1.00  0.00     0.003 A 
HETATM   14  C12 LIG X 999      45.866 125.330  22.988  1.00  0.00    -0.021 A 
HETATM   15  C18 LIG X 999      46.003 123.121  22.263  1.00  0.00     0.278 C 
HETATM   16  C13 LIG X 999      45.285 126.530  23.374  1.00  0.00     0.023 A 
HETATM   17  C15 LIG X 999      47.311 125.036  22.875  1.00  0.00     0.276 C 
HETATM   18  N3  LIG X 999      47.399 123.665  22.282  1.00  0.00    -0.067 N 
HETATM   19  C16 LIG X 999      48.284 122.800  23.094  1.00  0.00     0.272 C 
HETATM   20  C17 LIG X 999      47.935 123.742  20.901  1.00  0.00     0.272 C 
BRANCH   7  21
HETATM   21  N1  LIG X 999      41.156 129.130  24.227  1.00  0.00    -0.398 N 
HETATM   22  H6  LIG X 999      40.944 129.863  23.513  1.00  0.00     0.156 HD
HETATM   23  H7  LIG X 999      40.846 129.320  25.205  1.00  0.00     0.156 HD
ENDBRANCH   7  21
BRANCH  11  24
HETATM   24  N2  LIG X 999      42.977 123.117  22.278  1.00  0.00    -0.398 N 
HETATM   25  H10 LIG X 999      42.319 122.623  22.916  1.00  0.00     0.156 HD
HETATM   26  H11 LIG X 999      42.989 122.791  21.286  1.00  0.00     0.156 HD
ENDBRANCH  11  24
ENDBRANCH   5   6
ENDBRANCH   4   5
ENDBRANCH   3   4
TORSDOF 5
