REMARK VINA RESULT:      -7.8      2.340      3.420
REMARK  3 active torsions:
REMARK  status: ('A' for Active; 'I' for Inactive)
REMARK    1  A    between atoms: C1_2  and  C2_4 
REMARK       I    between atoms: N1_6  and  C4_7 
REMARK    2  A    between atoms: C4_7  and  C5_9 
REMARK    3  A    between atoms: C6_10  and  C7_11 
ROOT
HETATM    1  C5  LIG X 999      43.494 131.889  18.933  1.00  0.00     0.000 C 
HETATM    2  C6  LIG X 999      44.224 131.430  18.092  1.00  0.00    -0.057 C 
ENDROOT
BRANCH   1   3
HETATM    3  C4  LIG X 999      42.630 132.442  19.941  1.00  0.00     0.300 C 
HETATM    4  N1  LIG X 999      42.650 131.936  21.284  1.00  0.00    -0.317 N 
HETATM    5  C3  LIG X 999      43.487 130.870  21.753  1.00  0.00     0.172 C 
HETATM    6  C17 LIG X 999      41.834 132.445  22.363  1.00  0.00     0.298 C 
HETATM    7  C2  LIG X 999      43.023 130.683  23.191  1.00  0.00     0.242 C 
HETATM    8  O4  LIG X 999      42.193 131.771  23.550  1.00  0.00    -0.354 OA
HETATM    9  O3  LIG X 999      41.851 133.383  19.632  1.00  0.00    -0.258 OA
BRANCH   7  10
HETATM   10  C1  LIG X 999      44.184 130.594  24.136  1.00  0.00     0.204 C 
HETATM   11  O1  LIG X 999      44.655 129.471  24.456  1.00  0.00    -0.646 OA
HETATM   12  O2  LIG X 999      44.777 131.753  24.623  1.00  0.00    -0.646 OA
ENDBRANCH   7  10
ENDBRANCH   1   3
BRANCH   2  13
HETATM   13  C7  LIG X 999      45.101 130.885  17.089  1.00  0.00     0.019 A 
HETATM   14  C8  LIG X 999      45.500 129.545  17.162  1.00  0.00     0.021 A 
HETATM   15  C9  LIG X 999      46.351 129.010  16.191  1.00  0.00     0.013 A 
HETATM   16  C10 LIG X 999      46.813 129.813  15.137  1.00  0.00    -0.026 A 
HETATM   17  C11 LIG X 999      47.668 129.285  14.157  1.00  0.00     0.012 A 
HETATM   18  C15 LIG X 999      46.412 131.169  15.061  1.00  0.00    -0.025 A 
HETATM   19  C12 LIG X 999      48.120 130.096  13.111  1.00  0.00     0.001 A 
HETATM   20  C13 LIG X 999      47.725 131.434  13.037  1.00  0.00     0.001 A 
HETATM   21  C14 LIG X 999      46.873 131.972  14.006  1.00  0.00     0.012 A 
HETATM   22  C16 LIG X 999      45.556 131.697  16.041  1.00  0.00     0.032 A 
ENDBRANCH   2  13
TORSDOF 3
