REMARK VINA RESULT:      -7.3      2.333      6.375
REMARK  2 active torsions:
REMARK  status: ('A' for Active; 'I' for Inactive)
REMARK    1  A    between atoms: O1_2  and  C2_3 
REMARK    2  A    between atoms: C11_12  and  N1_13 
ROOT
HETATM    1  C2  LIG X 999      45.618 130.930  16.740  1.00  0.00     0.095 A 
HETATM    2  C3  LIG X 999      45.956 130.617  18.072  1.00  0.00     0.051 A 
HETATM    3  C4  LIG X 999      45.075 130.914  19.120  1.00  0.00    -0.023 A 
HETATM    4  C5  LIG X 999      45.412 130.600  20.452  1.00  0.00     0.021 A 
HETATM    5  C6  LIG X 999      44.505 130.917  21.464  1.00  0.00    -0.024 A 
HETATM    6  C7  LIG X 999      43.312 131.513  21.192  1.00  0.00    -0.024 A 
HETATM    7  C8  LIG X 999      42.937 131.835  19.886  1.00  0.00     0.021 A 
HETATM    8  C9  LIG X 999      43.828 131.537  18.836  1.00  0.00    -0.023 A 
HETATM    9  C10 LIG X 999      43.496 131.845  17.511  1.00  0.00     0.044 A 
HETATM   10  C11 LIG X 999      44.381 131.547  16.465  1.00  0.00     0.060 A 
HETATM   11  C12 LIG X 999      42.535 131.711  22.433  1.00  0.00     0.276 C 
HETATM   12  N2  LIG X 999      43.451 131.315  23.550  1.00  0.00    -0.067 N 
HETATM   13  C13 LIG X 999      42.772 130.381  24.476  1.00  0.00     0.272 C 
HETATM   14  C14 LIG X 999      43.878 132.517  24.306  1.00  0.00     0.272 C 
HETATM   15  C15 LIG X 999      44.639 130.661  22.915  1.00  0.00     0.276 C 
ENDROOT
BRANCH  10  16
HETATM   16  N1  LIG X 999      44.014 131.875  15.119  1.00  0.00    -0.397 N 
HETATM   17  H8  LIG X 999      43.031 132.135  14.883  1.00  0.00     0.156 HD
HETATM   18  H9  LIG X 999      44.714 131.862  14.345  1.00  0.00     0.156 HD
ENDBRANCH  10  16
BRANCH   1  19
HETATM   19  O1  LIG X 999      46.483 130.644  15.671  1.00  0.00    -0.354 OA
HETATM   20  C1  LIG X 999      46.408 129.476  14.859  1.00  0.00     0.210 C 
ENDBRANCH   1  19
TORSDOF 2
