REMARK VINA RESULT:      -5.6      4.738      6.840
REMARK  5 active torsions:
REMARK  status: ('A' for Active; 'I' for Inactive)
REMARK    1  A    between atoms: C6_6  and  C7_7 
REMARK       I    between atoms: C7_7  and  N1_9 
REMARK    2  A    between atoms: N1_9  and  C8_11 
REMARK    3  A    between atoms: C8_11  and  C9_12 
REMARK    4  A    between atoms: C9_12  and  N2_13 
REMARK    5  A    between atoms: C13_19  and  N5_20 
ROOT
HETATM    1  N2  LIG X 999      44.143 131.975  19.841  1.00  0.00    -0.114 NA
HETATM    2  N3  LIG X 999      43.000 132.046  19.392  1.00  0.00    -0.168 NA
HETATM    3  N4  LIG X 999      41.857 132.117  18.942  1.00  0.00     0.068 N 
ENDROOT
BRANCH   1   4
HETATM    4  C9  LIG X 999      44.386 131.412  21.161  1.00  0.00     0.208 C 
BRANCH   4   5
HETATM    5  C8  LIG X 999      43.164 131.636  22.050  1.00  0.00     0.147 C 
BRANCH   5   6
HETATM    6  N1  LIG X 999      42.501 130.369  22.358  1.00  0.00    -0.355 N 
HETATM    7  C7  LIG X 999      42.853 129.610  23.525  1.00  0.00     0.251 C 
HETATM    8  O1  LIG X 999      43.638 130.110  24.377  1.00  0.00    -0.268 OA
HETATM    9  H4  LIG X 999      41.727 130.035  21.743  1.00  0.00     0.162 HD
BRANCH   7  10
HETATM   10  C6  LIG X 999      42.299 128.253  23.755  1.00  0.00     0.032 A 
HETATM   11  C1  LIG X 999      43.136 127.173  24.069  1.00  0.00     0.017 A 
HETATM   12  C2  LIG X 999      42.601 125.900  24.280  1.00  0.00     0.011 A 
HETATM   13  C3  LIG X 999      41.220 125.672  24.170  1.00  0.00    -0.024 A 
HETATM   14  C4  LIG X 999      40.363 126.769  23.914  1.00  0.00    -0.049 A 
HETATM   15  C13 LIG X 999      40.667 124.285  24.466  1.00  0.00     0.179 C 
HETATM   16  C5  LIG X 999      40.912 128.042  23.689  1.00  0.00     0.024 A 
HETATM   17  C10 LIG X 999      38.868 126.593  23.792  1.00  0.00     0.039 C 
HETATM   18  C11 LIG X 999      38.372 125.330  24.499  1.00  0.00     0.007 C 
HETATM   19  C12 LIG X 999      39.193 124.124  24.049  1.00  0.00     0.035 C 
BRANCH  15  20
HETATM   20  N5  LIG X 999      41.479 123.246  23.832  1.00  0.00    -0.105 NA
HETATM   21  N6  LIG X 999      41.746 123.278  22.630  1.00  0.00    -0.167 NA
HETATM   22  N7  LIG X 999      42.012 123.309  21.429  1.00  0.00     0.068 N 
ENDBRANCH  15  20
ENDBRANCH   7  10
ENDBRANCH   5   6
ENDBRANCH   4   5
ENDBRANCH   1   4
TORSDOF 5
