REMARK VINA RESULT:      -8.4      0.000      0.000
REMARK  4 active torsions:
REMARK  status: ('A' for Active; 'I' for Inactive)
REMARK    1  A    between atoms: O1_2  and  C1_3 
REMARK    2  A    between atoms: C1_3  and  C5_11 
REMARK       I    between atoms: N1_4  and  C2_5 
REMARK    3  A    between atoms: C2_5  and  O3_7 
REMARK    4  A    between atoms: O3_7  and  C3_8 
ROOT
HETATM    1  C5  LIG X 999      44.661 131.275  19.140  1.00  0.00     0.054 A 
HETATM    2  C6  LIG X 999      43.530 131.822  18.492  1.00  0.00     0.122 A 
HETATM    3  O4  LIG X 999      42.474 132.363  19.218  1.00  0.00    -0.191 OA
HETATM    4  C7  LIG X 999      43.443 131.821  17.096  1.00  0.00     0.053 A 
HETATM    5  C8  LIG X 999      44.471 131.275  16.318  1.00  0.00    -0.023 A 
HETATM    6  C9  LIG X 999      44.384 131.272  14.917  1.00  0.00     0.012 A 
HETATM    7  C10 LIG X 999      45.417 130.724  14.152  1.00  0.00     0.001 A 
HETATM    8  C11 LIG X 999      46.540 130.176  14.777  1.00  0.00     0.001 A 
HETATM    9  C12 LIG X 999      46.636 130.172  16.170  1.00  0.00     0.012 A 
HETATM   10  C13 LIG X 999      45.606 130.720  16.951  1.00  0.00    -0.025 A 
HETATM   11  C14 LIG X 999      45.693 130.723  18.350  1.00  0.00     0.031 A 
ENDROOT
BRANCH   1  12
HETATM   12  C1  LIG X 999      44.781 131.272  20.626  1.00  0.00     0.181 C 
HETATM   13  N1  LIG X 999      43.836 130.723  21.340  1.00  0.00    -0.162 NA
HETATM   14  C2  LIG X 999      43.705 130.705  22.767  1.00  0.00     0.390 C 
HETATM   15  O2  LIG X 999      44.210 131.619  23.475  1.00  0.00    -0.236 OA
BRANCH  12  16
HETATM   16  O1  LIG X 999      45.918 131.827  21.220  1.00  0.00    -0.344 OA
HETATM   17  H1  LIG X 999      46.600 132.383  20.722  1.00  0.00     0.219 HD
ENDBRANCH  12  16
BRANCH  14  18
HETATM   18  O3  LIG X 999      42.929 129.704  23.358  1.00  0.00    -0.282 OA
BRANCH  18  19
HETATM   19  C3  LIG X 999      43.484 128.538  23.963  1.00  0.00     0.225 C 
HETATM   20 CL1  LIG X 999      44.950 128.029  23.078  1.00  0.00    -0.095 Cl
HETATM   21  C4  LIG X 999      42.456 127.417  23.932  1.00  0.00     0.057 C 
ENDBRANCH  18  19
ENDBRANCH  14  18
ENDBRANCH   1  12
TORSDOF 4
