MODEL 1
REMARK VINA RESULT:      -8.0      0.000      0.000
REMARK  7 active torsions:
REMARK  status: ('A' for Active; 'I' for Inactive)
REMARK    1  A    between atoms: S1_2  and  C1_3 
REMARK    2  A    between atoms: C1_3  and  N2_11 
REMARK    3  A    between atoms: N1_4  and  C2_6 
REMARK    4  A    between atoms: C2_6  and  C3_7 
REMARK    5  A    between atoms: C3_7  and  C4_8 
REMARK    6  A    between atoms: C4_8  and  S2_9 
REMARK    7  A    between atoms: N2_11  and  C5_14 
ROOT
HETATM    1  N2  LIG X 999      43.349 131.858  16.652  1.00  0.00     0.006 N 
HETATM    2  H10 LIG X 999      42.410 131.450  16.433  1.00  0.00     0.293 HD
HETATM    3  H11 LIG X 999      43.361 132.838  16.288  1.00  0.00     0.293 HD
ENDROOT
BRANCH   1   4
HETATM    4  C1  LIG X 999      43.555 131.859  18.080  1.00  0.00     0.240 C 
HETATM    5  N1  LIG X 999      44.753 131.713  18.559  1.00  0.00    -0.365 N 
HETATM    6  H2  LIG X 999      45.531 131.529  17.906  1.00  0.00     0.161 HD
BRANCH   4   7
HETATM    7  S1  LIG X 999      42.119 132.092  19.155  1.00  0.00    -0.100 SA
HETATM    8  H1  LIG X 999      42.911 132.642  20.178  1.00  0.00     0.110 HD
ENDBRANCH   4   7
BRANCH   5   9
HETATM    9  C2  LIG X 999      45.089 131.856  19.964  1.00  0.00     0.122 C 
BRANCH   9  10
HETATM   10  C3  LIG X 999      45.787 130.596  20.501  1.00  0.00     0.029 C 
BRANCH  10  11
HETATM   11  C4  LIG X 999      44.961 129.901  21.589  1.00  0.00     0.072 C 
BRANCH  11  12
HETATM   12  S2  LIG X 999      43.949 131.115  22.489  1.00  0.00    -0.182 SA
HETATM   13  H9  LIG X 999      43.181 131.436  21.353  1.00  0.00     0.101 HD
ENDBRANCH  11  12
ENDBRANCH  10  11
ENDBRANCH   9  10
ENDBRANCH   5   9
ENDBRANCH   1   4
BRANCH   1  14
HETATM   14  C5  LIG X 999      44.407 131.106  16.022  1.00  0.00     0.141 A 
HETATM   15  C6  LIG X 999      44.736 129.819  16.478  1.00  0.00     0.038 A 
HETATM   16  C7  LIG X 999      45.806 129.116  15.916  1.00  0.00     0.014 A 
HETATM   17  C8  LIG X 999      46.569 129.694  14.892  1.00  0.00    -0.026 A 
HETATM   18  C9  LIG X 999      47.651 129.002  14.328  1.00  0.00     0.012 A 
HETATM   19  C13 LIG X 999      46.247 130.991  14.425  1.00  0.00    -0.024 A 
HETATM   20  C10 LIG X 999      48.408 129.591  13.312  1.00  0.00     0.001 A 
HETATM   21  C11 LIG X 999      48.092 130.872  12.851  1.00  0.00     0.001 A 
HETATM   22  C12 LIG X 999      47.015 131.571  13.404  1.00  0.00     0.012 A 
HETATM   23  C14 LIG X 999      45.168 131.687  14.991  1.00  0.00     0.049 A 
ENDBRANCH   1  14
TORSDOF 7
ENDMDL
MODEL 2
REMARK VINA RESULT:      -7.2      1.745      2.021
REMARK  7 active torsions:
REMARK  status: ('A' for Active; 'I' for Inactive)
REMARK    1  A    between atoms: S1_2  and  C1_3 
REMARK    2  A    between atoms: C1_3  and  N2_11 
REMARK    3  A    between atoms: N1_4  and  C2_6 
REMARK    4  A    between atoms: C2_6  and  C3_7 
REMARK    5  A    between atoms: C3_7  and  C4_8 
REMARK    6  A    between atoms: C4_8  and  S2_9 
REMARK    7  A    between atoms: N2_11  and  C5_14 
ROOT
HETATM    1  N2  LIG X 999      44.429 132.475  18.146  1.00  0.00     0.006 N 
HETATM    2  H10 LIG X 999      43.454 132.669  17.819  1.00  0.00     0.293 HD
HETATM    3  H11 LIG X 999      44.931 133.391  18.206  1.00  0.00     0.293 HD
ENDROOT
BRANCH   1   4
HETATM    4  C1  LIG X 999      44.389 131.849  19.445  1.00  0.00     0.240 C 
HETATM    5  N1  LIG X 999      43.249 131.680  20.044  1.00  0.00    -0.365 N 
HETATM    6  H2  LIG X 999      42.396 132.060  19.607  1.00  0.00     0.161 HD
BRANCH   4   7
HETATM    7  S1  LIG X 999      45.946 131.299  20.182  1.00  0.00    -0.100 SA
HETATM    8  H1  LIG X 999      46.055 130.229  19.276  1.00  0.00     0.110 HD
ENDBRANCH   4   7
BRANCH   5   9
HETATM    9  C2  LIG X 999      43.081 130.926  21.274  1.00  0.00     0.122 C 
BRANCH   9  10
HETATM   10  C3  LIG X 999      42.813 131.857  22.466  1.00  0.00     0.029 C 
BRANCH  10  11
HETATM   11  C4  LIG X 999      42.713 131.085  23.787  1.00  0.00     0.072 C 
BRANCH  11  12
HETATM   12  S2  LIG X 999      42.769 129.294  23.480  1.00  0.00    -0.182 SA
HETATM   13  H9  LIG X 999      43.274 129.009  24.764  1.00  0.00     0.101 HD
ENDBRANCH  11  12
ENDBRANCH  10  11
ENDBRANCH   9  10
ENDBRANCH   5   9
ENDBRANCH   1   4
BRANCH   1  14
HETATM   14  C5  LIG X 999      45.129 131.612  17.226  1.00  0.00     0.141 A 
HETATM   15  C6  LIG X 999      45.358 130.263  17.547  1.00  0.00     0.038 A 
HETATM   16  C7  LIG X 999      46.096 129.443  16.690  1.00  0.00     0.014 A 
HETATM   17  C8  LIG X 999      46.624 129.960  15.499  1.00  0.00    -0.026 A 
HETATM   18  C9  LIG X 999      47.376 129.148  14.636  1.00  0.00     0.012 A 
HETATM   19  C13 LIG X 999      46.401 131.318  15.166  1.00  0.00    -0.024 A 
HETATM   20  C10 LIG X 999      47.903 129.677  13.456  1.00  0.00     0.001 A 
HETATM   21  C11 LIG X 999      47.684 131.018  13.127  1.00  0.00     0.001 A 
HETATM   22  C12 LIG X 999      46.936 131.837  13.977  1.00  0.00     0.012 A 
HETATM   23  C14 LIG X 999      45.655 132.133  16.029  1.00  0.00     0.049 A 
ENDBRANCH   1  14
TORSDOF 7
ENDMDL
MODEL 3
REMARK VINA RESULT:      -7.1      2.903      6.978
REMARK  7 active torsions:
REMARK  status: ('A' for Active; 'I' for Inactive)
REMARK    1  A    between atoms: S1_2  and  C1_3 
REMARK    2  A    between atoms: C1_3  and  N2_11 
REMARK    3  A    between atoms: N1_4  and  C2_6 
REMARK    4  A    between atoms: C2_6  and  C3_7 
REMARK    5  A    between atoms: C3_7  and  C4_8 
REMARK    6  A    between atoms: C4_8  and  S2_9 
REMARK    7  A    between atoms: N2_11  and  C5_14 
ROOT
HETATM    1  N2  LIG X 999      43.634 131.709  16.841  1.00  0.00     0.006 N 
HETATM    2  H10 LIG X 999      43.364 132.689  16.588  1.00  0.00     0.293 HD
HETATM    3  H11 LIG X 999      42.813 131.093  16.639  1.00  0.00     0.293 HD
ENDROOT
BRANCH   1   4
HETATM    4  C1  LIG X 999      44.766 131.298  16.048  1.00  0.00     0.240 C 
HETATM    5  N1  LIG X 999      45.508 132.194  15.470  1.00  0.00    -0.365 N 
HETATM    6  H2  LIG X 999      45.231 133.185  15.533  1.00  0.00     0.161 HD
BRANCH   4   7
HETATM    7  S1  LIG X 999      45.122 129.530  15.910  1.00  0.00    -0.100 SA
HETATM    8  H1  LIG X 999      44.241 129.386  14.823  1.00  0.00     0.110 HD
ENDBRANCH   4   7
BRANCH   5   9
HETATM    9  C2  LIG X 999      46.752 131.898  14.783  1.00  0.00     0.122 C 
BRANCH   9  10
HETATM   10  C3  LIG X 999      46.494 131.248  13.415  1.00  0.00     0.029 C 
BRANCH  10  11
HETATM   11  C4  LIG X 999      47.791 130.775  12.749  1.00  0.00     0.072 C 
BRANCH  11  12
HETATM   12  S2  LIG X 999      48.494 129.366  13.658  1.00  0.00    -0.182 SA
HETATM   13  H9  LIG X 999      48.793 130.144  14.793  1.00  0.00     0.101 HD
ENDBRANCH  11  12
ENDBRANCH  10  11
ENDBRANCH   9  10
ENDBRANCH   5   9
ENDBRANCH   1   4
BRANCH   1  14
HETATM   14  C5  LIG X 999      43.971 131.603  18.239  1.00  0.00     0.141 A 
HETATM   15  C6  LIG X 999      45.221 131.097  18.635  1.00  0.00     0.038 A 
HETATM   16  C7  LIG X 999      45.524 130.928  19.988  1.00  0.00     0.014 A 
HETATM   17  C8  LIG X 999      44.579 131.255  20.969  1.00  0.00    -0.026 A 
HETATM   18  C9  LIG X 999      44.869 131.078  22.331  1.00  0.00     0.012 A 
HETATM   19  C13 LIG X 999      43.316 131.764  20.583  1.00  0.00    -0.024 A 
HETATM   20  C10 LIG X 999      43.916 131.402  23.300  1.00  0.00     0.001 A 
HETATM   21  C11 LIG X 999      42.668 131.904  22.919  1.00  0.00     0.001 A 
HETATM   22  C12 LIG X 999      42.367 132.086  21.566  1.00  0.00     0.012 A 
HETATM   23  C14 LIG X 999      43.021 131.936  19.222  1.00  0.00     0.049 A 
ENDBRANCH   1  14
TORSDOF 7
ENDMDL
MODEL 4
REMARK VINA RESULT:      -6.8      3.199      5.071
REMARK  7 active torsions:
REMARK  status: ('A' for Active; 'I' for Inactive)
REMARK    1  A    between atoms: S1_2  and  C1_3 
REMARK    2  A    between atoms: C1_3  and  N2_11 
REMARK    3  A    between atoms: N1_4  and  C2_6 
REMARK    4  A    between atoms: C2_6  and  C3_7 
REMARK    5  A    between atoms: C3_7  and  C4_8 
REMARK    6  A    between atoms: C4_8  and  S2_9 
REMARK    7  A    between atoms: N2_11  and  C5_14 
ROOT
HETATM    1  N2  LIG X 999      42.379 132.121  22.194  1.00  0.00     0.006 N 
HETATM    2  H10 LIG X 999      41.366 132.033  21.945  1.00  0.00     0.293 HD
HETATM    3  H11 LIG X 999      42.557 133.120  22.448  1.00  0.00     0.293 HD
ENDROOT
BRANCH   1   4
HETATM    4  C1  LIG X 999      42.678 131.267  23.317  1.00  0.00     0.240 C 
HETATM    5  N1  LIG X 999      42.194 130.062  23.359  1.00  0.00    -0.365 N 
HETATM    6  H2  LIG X 999      41.545 129.761  22.616  1.00  0.00     0.161 HD
BRANCH   4   7
HETATM    7  S1  LIG X 999      43.749 131.911  24.625  1.00  0.00    -0.100 SA
HETATM    8  H1  LIG X 999      43.023 133.114  24.696  1.00  0.00     0.110 HD
ENDBRANCH   4   7
BRANCH   5   9
HETATM    9  C2  LIG X 999      42.558 129.075  24.359  1.00  0.00     0.122 C 
BRANCH   9  10
HETATM   10  C3  LIG X 999      43.201 127.838  23.712  1.00  0.00     0.029 C 
BRANCH  10  11
HETATM   11  C4  LIG X 999      44.629 128.118  23.230  1.00  0.00     0.072 C 
BRANCH  11  12
HETATM   12  S2  LIG X 999      45.320 126.652  22.406  1.00  0.00    -0.182 SA
HETATM   13  H9  LIG X 999      45.911 127.410  21.376  1.00  0.00     0.101 HD
ENDBRANCH  11  12
ENDBRANCH  10  11
ENDBRANCH   9  10
ENDBRANCH   5   9
ENDBRANCH   1   4
BRANCH   1  14
HETATM   14  C5  LIG X 999      43.225 131.757  21.084  1.00  0.00     0.141 A 
HETATM   15  C6  LIG X 999      44.545 131.327  21.304  1.00  0.00     0.038 A 
HETATM   16  C7  LIG X 999      45.389 131.041  20.228  1.00  0.00     0.014 A 
HETATM   17  C8  LIG X 999      44.930 131.188  18.912  1.00  0.00    -0.026 A 
HETATM   18  C9  LIG X 999      45.773 130.913  17.824  1.00  0.00     0.012 A 
HETATM   19  C13 LIG X 999      43.603 131.622  18.678  1.00  0.00    -0.024 A 
HETATM   20  C10 LIG X 999      45.305 131.070  16.517  1.00  0.00     0.001 A 
HETATM   21  C11 LIG X 999      43.995 131.500  16.285  1.00  0.00     0.001 A 
HETATM   22  C12 LIG X 999      43.145 131.775  17.360  1.00  0.00     0.012 A 
HETATM   23  C14 LIG X 999      42.760 131.902  19.764  1.00  0.00     0.049 A 
ENDBRANCH   1  14
TORSDOF 7
ENDMDL
MODEL 5
REMARK VINA RESULT:      -6.7      2.682      4.718
REMARK  7 active torsions:
REMARK  status: ('A' for Active; 'I' for Inactive)
REMARK    1  A    between atoms: S1_2  and  C1_3 
REMARK    2  A    between atoms: C1_3  and  N2_11 
REMARK    3  A    between atoms: N1_4  and  C2_6 
REMARK    4  A    between atoms: C2_6  and  C3_7 
REMARK    5  A    between atoms: C3_7  and  C4_8 
REMARK    6  A    between atoms: C4_8  and  S2_9 
REMARK    7  A    between atoms: N2_11  and  C5_14 
ROOT
HETATM    1  N2  LIG X 999      45.047 131.228  21.959  1.00  0.00     0.006 N 
HETATM    2  H10 LIG X 999      44.729 132.070  22.492  1.00  0.00     0.293 HD
HETATM    3  H11 LIG X 999      46.083 131.148  22.080  1.00  0.00     0.293 HD
ENDROOT
BRANCH   1   4
HETATM    4  C1  LIG X 999      44.398 130.050  22.480  1.00  0.00     0.240 C 
HETATM    5  N1  LIG X 999      44.965 128.889  22.348  1.00  0.00    -0.365 N 
HETATM    6  H2  LIG X 999      45.841 128.822  21.808  1.00  0.00     0.161 HD
BRANCH   4   7
HETATM    7  S1  LIG X 999      42.813 130.247  23.329  1.00  0.00    -0.100 SA
HETATM    8  H1  LIG X 999      42.093 129.930  22.163  1.00  0.00     0.110 HD
ENDBRANCH   4   7
BRANCH   5   9
HETATM    9  C2  LIG X 999      44.477 127.671  22.969  1.00  0.00     0.122 C 
BRANCH   9  10
HETATM   10  C3  LIG X 999      44.963 126.425  22.211  1.00  0.00     0.029 C 
BRANCH  10  11
HETATM   11  C4  LIG X 999      44.178 125.169  22.607  1.00  0.00     0.072 C 
BRANCH  11  12
HETATM   12  S2  LIG X 999      42.699 125.621  23.564  1.00  0.00    -0.182 SA
HETATM   13  H9  LIG X 999      41.843 124.845  22.759  1.00  0.00     0.101 HD
ENDBRANCH  11  12
ENDBRANCH  10  11
ENDBRANCH   9  10
ENDBRANCH   5   9
ENDBRANCH   1   4
BRANCH   1  14
HETATM   14  C5  LIG X 999      44.745 131.352  20.553  1.00  0.00     0.141 A 
HETATM   15  C6  LIG X 999      43.542 131.943  20.132  1.00  0.00     0.038 A 
HETATM   16  C7  LIG X 999      43.215 132.002  18.775  1.00  0.00     0.014 A 
HETATM   17  C8  LIG X 999      44.083 131.464  17.816  1.00  0.00    -0.026 A 
HETATM   18  C9  LIG X 999      43.759 131.508  16.451  1.00  0.00     0.012 A 
HETATM   19  C13 LIG X 999      45.298 130.865  18.228  1.00  0.00    -0.024 A 
HETATM   20  C10 LIG X 999      44.631 130.962  15.505  1.00  0.00     0.001 A 
HETATM   21  C11 LIG X 999      45.829 130.370  15.911  1.00  0.00     0.001 A 
HETATM   22  C12 LIG X 999      46.165 130.320  17.267  1.00  0.00     0.012 A 
HETATM   23  C14 LIG X 999      45.622 130.815  19.592  1.00  0.00     0.049 A 
ENDBRANCH   1  14
TORSDOF 7
ENDMDL
MODEL 6
REMARK VINA RESULT:      -6.5      2.772      7.550
REMARK  7 active torsions:
REMARK  status: ('A' for Active; 'I' for Inactive)
REMARK    1  A    between atoms: S1_2  and  C1_3 
REMARK    2  A    between atoms: C1_3  and  N2_11 
REMARK    3  A    between atoms: N1_4  and  C2_6 
REMARK    4  A    between atoms: C2_6  and  C3_7 
REMARK    5  A    between atoms: C3_7  and  C4_8 
REMARK    6  A    between atoms: C4_8  and  S2_9 
REMARK    7  A    between atoms: N2_11  and  C5_14 
ROOT
HETATM    1  N2  LIG X 999      45.304 131.998  19.609  1.00  0.00     0.006 N 
HETATM    2  H10 LIG X 999      46.330 131.992  19.811  1.00  0.00     0.293 HD
HETATM    3  H11 LIG X 999      44.998 132.997  19.550  1.00  0.00     0.293 HD
ENDROOT
BRANCH   1   4
HETATM    4  C1  LIG X 999      45.052 131.330  18.356  1.00  0.00     0.240 C 
HETATM    5  N1  LIG X 999      45.943 130.522  17.865  1.00  0.00    -0.365 N 
HETATM    6  H2  LIG X 999      46.848 130.425  18.351  1.00  0.00     0.161 HD
BRANCH   4   7
HETATM    7  S1  LIG X 999      43.476 131.634  17.522  1.00  0.00    -0.100 SA
HETATM    8  H1  LIG X 999      43.863 132.935  17.155  1.00  0.00     0.110 HD
ENDBRANCH   4   7
BRANCH   5   9
HETATM    9  C2  LIG X 999      45.726 129.686  16.699  1.00  0.00     0.122 C 
BRANCH   9  10
HETATM   10  C3  LIG X 999      46.830 129.895  15.650  1.00  0.00     0.029 C 
BRANCH  10  11
HETATM   11  C4  LIG X 999      46.582 131.143  14.795  1.00  0.00     0.072 C 
BRANCH  11  12
HETATM   12  S2  LIG X 999      47.461 131.010  13.209  1.00  0.00    -0.182 SA
HETATM   13  H9  LIG X 999      48.726 131.182  13.804  1.00  0.00     0.101 HD
ENDBRANCH  11  12
ENDBRANCH  10  11
ENDBRANCH   9  10
ENDBRANCH   5   9
ENDBRANCH   1   4
BRANCH   1  14
HETATM   14  C5  LIG X 999      44.560 131.338  20.654  1.00  0.00     0.141 A 
HETATM   15  C6  LIG X 999      43.366 131.897  21.141  1.00  0.00     0.038 A 
HETATM   16  C7  LIG X 999      42.680 131.298  22.201  1.00  0.00     0.014 A 
HETATM   17  C8  LIG X 999      43.181 130.133  22.797  1.00  0.00    -0.026 A 
HETATM   18  C9  LIG X 999      42.506 129.529  23.869  1.00  0.00     0.012 A 
HETATM   19  C13 LIG X 999      44.383 129.561  22.316  1.00  0.00    -0.024 A 
HETATM   20  C10 LIG X 999      43.019 128.371  24.458  1.00  0.00     0.001 A 
HETATM   21  C11 LIG X 999      44.207 127.807  23.985  1.00  0.00     0.001 A 
HETATM   22  C12 LIG X 999      44.888 128.398  22.917  1.00  0.00     0.012 A 
HETATM   23  C14 LIG X 999      45.063 130.166  21.248  1.00  0.00     0.049 A 
ENDBRANCH   1  14
TORSDOF 7
ENDMDL
MODEL 7
REMARK VINA RESULT:      -6.2      2.023      3.122
REMARK  7 active torsions:
REMARK  status: ('A' for Active; 'I' for Inactive)
REMARK    1  A    between atoms: S1_2  and  C1_3 
REMARK    2  A    between atoms: C1_3  and  N2_11 
REMARK    3  A    between atoms: N1_4  and  C2_6 
REMARK    4  A    between atoms: C2_6  and  C3_7 
REMARK    5  A    between atoms: C3_7  and  C4_8 
REMARK    6  A    between atoms: C4_8  and  S2_9 
REMARK    7  A    between atoms: N2_11  and  C5_14 
ROOT
HETATM    1  N2  LIG X 999      45.679 130.111  19.962  1.00  0.00     0.006 N 
HETATM    2  H10 LIG X 999      46.679 129.990  20.244  1.00  0.00     0.293 HD
HETATM    3  H11 LIG X 999      45.202 129.187  20.080  1.00  0.00     0.293 HD
ENDROOT
BRANCH   1   4
HETATM    4  C1  LIG X 999      45.053 131.100  20.805  1.00  0.00     0.240 C 
HETATM    5  N1  LIG X 999      43.846 130.903  21.242  1.00  0.00    -0.365 N 
HETATM    6  H2  LIG X 999      43.329 130.071  20.921  1.00  0.00     0.161 HD
BRANCH   4   7
HETATM    7  S1  LIG X 999      45.998 132.579  21.241  1.00  0.00    -0.100 SA
HETATM    8  H1  LIG X 999      46.427 132.009  22.453  1.00  0.00     0.110 HD
ENDBRANCH   4   7
BRANCH   5   9
HETATM    9  C2  LIG X 999      43.187 131.754  22.217  1.00  0.00     0.122 C 
BRANCH   9  10
HETATM   10  C3  LIG X 999      43.251 131.143  23.625  1.00  0.00     0.029 C 
BRANCH  10  11
HETATM   11  C4  LIG X 999      42.934 129.644  23.617  1.00  0.00     0.072 C 
BRANCH  11  12
HETATM   12  S2  LIG X 999      44.372 128.688  24.186  1.00  0.00    -0.182 SA
HETATM   13  H9  LIG X 999      44.003 128.789  25.542  1.00  0.00     0.101 HD
ENDBRANCH  11  12
ENDBRANCH  10  11
ENDBRANCH   9  10
ENDBRANCH   5   9
ENDBRANCH   1   4
BRANCH   1  14
HETATM   14  C5  LIG X 999      45.570 130.525  18.584  1.00  0.00     0.141 A 
HETATM   15  C6  LIG X 999      44.573 131.434  18.190  1.00  0.00     0.038 A 
HETATM   16  C7  LIG X 999      44.421 131.784  16.845  1.00  0.00     0.014 A 
HETATM   17  C8  LIG X 999      45.259 131.225  15.871  1.00  0.00    -0.026 A 
HETATM   18  C9  LIG X 999      45.108 131.561  14.517  1.00  0.00     0.012 A 
HETATM   19  C13 LIG X 999      46.266 130.308  16.257  1.00  0.00    -0.024 A 
HETATM   20  C10 LIG X 999      45.946 130.992  13.555  1.00  0.00     0.001 A 
HETATM   21  C11 LIG X 999      46.939 130.085  13.934  1.00  0.00     0.001 A 
HETATM   22  C12 LIG X 999      47.101 129.743  15.280  1.00  0.00     0.012 A 
HETATM   23  C14 LIG X 999      46.416 129.966  17.609  1.00  0.00     0.049 A 
ENDBRANCH   1  14
TORSDOF 7
ENDMDL
MODEL 8
REMARK VINA RESULT:      -6.1      2.800      3.878
REMARK  7 active torsions:
REMARK  status: ('A' for Active; 'I' for Inactive)
REMARK    1  A    between atoms: S1_2  and  C1_3 
REMARK    2  A    between atoms: C1_3  and  N2_11 
REMARK    3  A    between atoms: N1_4  and  C2_6 
REMARK    4  A    between atoms: C2_6  and  C3_7 
REMARK    5  A    between atoms: C3_7  and  C4_8 
REMARK    6  A    between atoms: C4_8  and  S2_9 
REMARK    7  A    between atoms: N2_11  and  C5_14 
ROOT
HETATM    1  N2  LIG X 999      45.812 130.111  20.130  1.00  0.00     0.006 N 
HETATM    2  H10 LIG X 999      46.750 129.658  20.231  1.00  0.00     0.293 HD
HETATM    3  H11 LIG X 999      45.088 129.403  20.393  1.00  0.00     0.293 HD
ENDROOT
BRANCH   1   4
HETATM    4  C1  LIG X 999      45.728 131.252  21.009  1.00  0.00     0.240 C 
HETATM    5  N1  LIG X 999      46.706 132.105  21.052  1.00  0.00    -0.365 N 
HETATM    6  H2  LIG X 999      47.559 131.913  20.506  1.00  0.00     0.161 HD
BRANCH   4   7
HETATM    7  S1  LIG X 999      44.234 131.459  22.007  1.00  0.00    -0.100 SA
HETATM    8  H1  LIG X 999      43.559 130.449  21.298  1.00  0.00     0.110 HD
ENDBRANCH   4   7
BRANCH   5   9
HETATM    9  C2  LIG X 999      46.656 133.361  21.780  1.00  0.00     0.122 C 
BRANCH   9  10
HETATM   10  C3  LIG X 999      48.045 134.014  21.861  1.00  0.00     0.029 C 
BRANCH  10  11
HETATM   11  C4  LIG X 999      47.998 135.508  21.522  1.00  0.00     0.072 C 
BRANCH  11  12
HETATM   12  S2  LIG X 999      49.682 136.189  21.425  1.00  0.00    -0.182 SA
HETATM   13  H9  LIG X 999      49.700 136.549  22.787  1.00  0.00     0.101 HD
ENDBRANCH  11  12
ENDBRANCH  10  11
ENDBRANCH   9  10
ENDBRANCH   5   9
ENDBRANCH   1   4
BRANCH   1  14
HETATM   14  C5  LIG X 999      45.580 130.540  18.773  1.00  0.00     0.141 A 
HETATM   15  C6  LIG X 999      44.516 131.407  18.470  1.00  0.00     0.038 A 
HETATM   16  C7  LIG X 999      44.247 131.769  17.148  1.00  0.00     0.014 A 
HETATM   17  C8  LIG X 999      45.034 131.265  16.104  1.00  0.00    -0.026 A 
HETATM   18  C9  LIG X 999      44.765 131.614  14.771  1.00  0.00     0.012 A 
HETATM   19  C13 LIG X 999      46.108 130.390  16.396  1.00  0.00    -0.024 A 
HETATM   20  C10 LIG X 999      45.554 131.099  13.739  1.00  0.00     0.001 A 
HETATM   21  C11 LIG X 999      46.614 130.235  14.026  1.00  0.00     0.001 A 
HETATM   22  C12 LIG X 999      46.892 129.881  15.349  1.00  0.00     0.012 A 
HETATM   23  C14 LIG X 999      46.375 130.036  17.727  1.00  0.00     0.049 A 
ENDBRANCH   1  14
TORSDOF 7
ENDMDL
MODEL 9
REMARK VINA RESULT:      -6.0      2.697      7.554
REMARK  7 active torsions:
REMARK  status: ('A' for Active; 'I' for Inactive)
REMARK    1  A    between atoms: S1_2  and  C1_3 
REMARK    2  A    between atoms: C1_3  and  N2_11 
REMARK    3  A    between atoms: N1_4  and  C2_6 
REMARK    4  A    between atoms: C2_6  and  C3_7 
REMARK    5  A    between atoms: C3_7  and  C4_8 
REMARK    6  A    between atoms: C4_8  and  S2_9 
REMARK    7  A    between atoms: N2_11  and  C5_14 
ROOT
HETATM    1  N2  LIG X 999      45.103 132.369  19.897  1.00  0.00     0.006 N 
HETATM    2  H10 LIG X 999      46.123 132.566  19.765  1.00  0.00     0.293 HD
HETATM    3  H11 LIG X 999      44.658 133.241  20.265  1.00  0.00     0.293 HD
ENDROOT
BRANCH   1   4
HETATM    4  C1  LIG X 999      44.511 132.009  18.633  1.00  0.00     0.240 C 
HETATM    5  N1  LIG X 999      45.270 131.815  17.597  1.00  0.00    -0.365 N 
HETATM    6  H2  LIG X 999      46.283 131.991  17.682  1.00  0.00     0.161 HD
BRANCH   4   7
HETATM    7  S1  LIG X 999      42.715 131.817  18.549  1.00  0.00    -0.100 SA
HETATM    8  H1  LIG X 999      42.510 132.856  19.475  1.00  0.00     0.110 HD
ENDBRANCH   4   7
BRANCH   5   9
HETATM    9  C2  LIG X 999      44.794 131.300  16.325  1.00  0.00     0.122 C 
BRANCH   9  10
HETATM   10  C3  LIG X 999      45.735 131.694  15.176  1.00  0.00     0.029 C 
BRANCH  10  11
HETATM   11  C4  LIG X 999      46.212 130.474  14.381  1.00  0.00     0.072 C 
BRANCH  11  12
HETATM   12  S2  LIG X 999      47.472 130.963  13.164  1.00  0.00    -0.182 SA
HETATM   13  H9  LIG X 999      46.793 130.348  12.094  1.00  0.00     0.101 HD
ENDBRANCH  11  12
ENDBRANCH  10  11
ENDBRANCH   9  10
ENDBRANCH   5   9
ENDBRANCH   1   4
BRANCH   1  14
HETATM   14  C5  LIG X 999      44.894 131.298  20.841  1.00  0.00     0.141 A 
HETATM   15  C6  LIG X 999      45.589 130.084  20.706  1.00  0.00     0.038 A 
HETATM   16  C7  LIG X 999      45.338 129.020  21.577  1.00  0.00     0.014 A 
HETATM   17  C8  LIG X 999      44.381 129.150  22.592  1.00  0.00    -0.026 A 
HETATM   18  C9  LIG X 999      44.114 128.084  23.465  1.00  0.00     0.012 A 
HETATM   19  C13 LIG X 999      43.674 130.368  22.737  1.00  0.00    -0.024 A 
HETATM   20  C10 LIG X 999      43.153 128.225  24.470  1.00  0.00     0.001 A 
HETATM   21  C11 LIG X 999      42.453 129.426  24.612  1.00  0.00     0.001 A 
HETATM   22  C12 LIG X 999      42.712 130.496  23.751  1.00  0.00     0.012 A 
HETATM   23  C14 LIG X 999      43.936 131.433  21.862  1.00  0.00     0.049 A 
ENDBRANCH   1  14
TORSDOF 7
ENDMDL
