REMARK VINA RESULT:      -5.7      9.150     10.400
REMARK  2 active torsions:
REMARK  status: ('A' for Active; 'I' for Inactive)
REMARK    1  A    between atoms: N1_1  and  C1_2 
REMARK    2  A    between atoms: C2_5  and  C3_6 
ROOT
HETATM    1  C3  LIG X 999      51.510 136.846  22.894  1.00  0.00     0.030 A 
HETATM    2  C4  LIG X 999      52.376 137.711  23.586  1.00  0.00     0.017 A 
HETATM    3  C5  LIG X 999      52.357 139.084  23.350  1.00  0.00     0.002 A 
HETATM    4  C6  LIG X 999      51.478 139.625  22.416  1.00  0.00     0.012 A 
HETATM    5  C7  LIG X 999      50.619 138.791  21.688  1.00  0.00    -0.025 A 
HETATM    6  C8  LIG X 999      49.756 139.346  20.731  1.00  0.00     0.012 A 
HETATM    7  C9  LIG X 999      48.924 138.525  19.973  1.00  0.00     0.001 A 
HETATM    8  C10 LIG X 999      48.956 137.142  20.150  1.00  0.00     0.001 A 
HETATM    9  C11 LIG X 999      49.807 136.572  21.100  1.00  0.00     0.013 A 
HETATM   10  C12 LIG X 999      50.636 137.384  21.906  1.00  0.00    -0.011 A 
ENDROOT
BRANCH   1  11
HETATM   11  C2  LIG X 999      51.533 135.412  23.266  1.00  0.00     0.203 A 
HETATM   12  N3  LIG X 999      52.616 134.614  23.124  1.00  0.00    -0.145 NA
HETATM   13  N2  LIG X 999      52.254 133.433  23.593  1.00  0.00    -0.240 N 
HETATM   14  C1  LIG X 999      50.984 133.546  24.008  1.00  0.00     0.240 A 
HETATM   15  H3  LIG X 999      52.864 132.586  23.628  1.00  0.00     0.193 HD
HETATM   16  O1  LIG X 999      50.529 134.759  23.816  1.00  0.00    -0.257 OA
BRANCH  14  17
HETATM   17  N1  LIG X 999      50.228 132.484  24.583  1.00  0.00    -0.364 N 
HETATM   18  H1  LIG X 999      49.976 132.510  25.596  1.00  0.00     0.159 HD
HETATM   19  H2  LIG X 999      49.922 131.676  23.998  1.00  0.00     0.159 HD
ENDBRANCH  14  17
ENDBRANCH   1  11
TORSDOF 2
