REMARK VINA RESULT:      -8.8      0.000      0.000
REMARK  3 active torsions:
REMARK  status: ('A' for Active; 'I' for Inactive)
REMARK    1  A    between atoms: C3_3  and  S1_4 
REMARK    2  A    between atoms: S1_4  and  C4_7 
REMARK    3  A    between atoms: C12_15  and  N1_16 
ROOT
HETATM    1  C1  LIG X 999      47.667 130.919  12.955  1.00  0.00     0.013 C 
HETATM    2  C2  LIG X 999      47.059 131.391  13.883  1.00  0.00    -0.102 C 
HETATM    3  C3  LIG X 999      46.320 131.964  15.011  1.00  0.00     0.233 C 
ENDROOT
BRANCH   3   4
HETATM    4  S1  LIG X 999      45.765 130.678  16.122  1.00  0.00     0.159 S 
HETATM    5  O1  LIG X 999      46.920 129.787  16.488  1.00  0.00    -0.227 OA
HETATM    6  O2  LIG X 999      44.725 129.859  15.411  1.00  0.00    -0.227 OA
BRANCH   4   7
HETATM    7  C4  LIG X 999      45.035 131.376  17.609  1.00  0.00     0.116 C 
HETATM    8  C5  LIG X 999      45.393 130.537  18.844  1.00  0.00     0.059 C 
HETATM    9  C6  LIG X 999      44.643 130.973  20.079  1.00  0.00    -0.049 A 
HETATM   10  C7  LIG X 999      45.132 130.580  21.335  1.00  0.00     0.007 A 
HETATM   11  C11 LIG X 999      43.428 131.699  19.997  1.00  0.00    -0.019 A 
HETATM   12  C8  LIG X 999      44.458 130.940  22.503  1.00  0.00     0.001 A 
HETATM   13  C9  LIG X 999      43.288 131.694  22.430  1.00  0.00     0.001 A 
HETATM   14  C10 LIG X 999      42.780 132.079  21.189  1.00  0.00     0.010 A 
HETATM   15  C12 LIG X 999      42.883 132.186  18.665  1.00  0.00     0.252 C 
HETATM   16  C13 LIG X 999      43.511 131.452  17.463  1.00  0.00     0.060 C 
BRANCH  15  17
HETATM   17  N1  LIG X 999      41.422 132.059  18.629  1.00  0.00     0.087 N 
HETATM   18  H12 LIG X 999      41.040 132.292  19.574  1.00  0.00     0.313 HD
HETATM   19  H13 LIG X 999      41.031 132.751  17.949  1.00  0.00     0.313 HD
ENDBRANCH  15  17
ENDBRANCH   4   7
ENDBRANCH   3   4
TORSDOF 3
