REMARK VINA RESULT:      -4.8      6.743      8.760
REMARK  3 active torsions:
REMARK  status: ('A' for Active; 'I' for Inactive)
REMARK    1  A    between atoms: C6_6  and  C7_7 
REMARK    2  A    between atoms: C8_8  and  C9_9 
REMARK    3  A    between atoms: C10_12  and  N1_13 
ROOT
HETATM    1  N1  LIG X 999      41.406 124.227  22.797  1.00  0.00    -0.105 NA
HETATM    2  N2  LIG X 999      40.405 123.518  22.906  1.00  0.00    -0.167 NA
HETATM    3  N3  LIG X 999      39.405 122.810  23.016  1.00  0.00     0.068 N 
ENDROOT
BRANCH   1   4
HETATM    4  C10 LIG X 999      42.437 124.246  23.831  1.00  0.00     0.179 C 
HETATM    5  C4  LIG X 999      43.523 125.218  23.417  1.00  0.00    -0.023 A 
HETATM    6  C3  LIG X 999      44.743 124.773  22.852  1.00  0.00    -0.050 A 
HETATM    7  C5  LIG X 999      43.270 126.597  23.515  1.00  0.00     0.030 A 
HETATM    8  C2  LIG X 999      45.695 125.717  22.437  1.00  0.00     0.009 A 
HETATM    9  C13 LIG X 999      45.101 123.307  22.790  1.00  0.00     0.039 C 
HETATM   10  C1  LIG X 999      45.434 127.085  22.546  1.00  0.00     0.021 A 
HETATM   11  C6  LIG X 999      44.223 127.527  23.085  1.00  0.00     0.018 A 
HETATM   12  C12 LIG X 999      43.880 122.392  22.906  1.00  0.00     0.007 C 
HETATM   13  C11 LIG X 999      42.993 122.831  24.072  1.00  0.00     0.035 C 
BRANCH  11  14
HETATM   14  C7  LIG X 999      43.955 128.937  23.192  1.00  0.00    -0.056 C 
HETATM   15  C8  LIG X 999      43.730 130.118  23.281  1.00  0.00     0.010 C 
BRANCH  15  16
HETATM   16  C9  LIG X 999      43.461 131.524  23.387  1.00  0.00     0.258 C 
HETATM   17  O1  LIG X 999      42.699 132.083  22.557  1.00  0.00    -0.637 OA
HETATM   18  O2  LIG X 999      44.042 132.266  24.406  1.00  0.00    -0.637 OA
ENDBRANCH  15  16
ENDBRANCH  11  14
ENDBRANCH   1   4
TORSDOF 3
