REMARK VINA RESULT:      -5.5      9.918     10.688
REMARK  1 active torsions:
REMARK  status: ('A' for Active; 'I' for Inactive)
REMARK    1  A    between atoms: C5_5  and  N1_6 
ROOT
HETATM    1  N1  LIG X 999      49.479 136.050  20.857  1.00  0.00    -0.070 NA
HETATM    2  N2  LIG X 999      48.746 135.362  21.569  1.00  0.00    -0.162 NA
HETATM    3  N3  LIG X 999      48.012 134.675  22.277  1.00  0.00     0.068 N 
ENDROOT
BRANCH   1   4
HETATM    4  C5  LIG X 999      50.175 137.200  21.365  1.00  0.00     0.124 A 
HETATM    5  C4  LIG X 999      51.198 137.098  22.348  1.00  0.00     0.007 A 
HETATM    6  C3  LIG X 999      51.694 135.856  22.796  1.00  0.00     0.015 A 
HETATM    7  C10 LIG X 999      51.780 138.287  22.870  1.00  0.00    -0.024 A 
HETATM    8  C2  LIG X 999      52.690 135.795  23.774  1.00  0.00     0.001 A 
HETATM    9  C1  LIG X 999      53.222 136.968  24.310  1.00  0.00     0.001 A 
HETATM   10  C11 LIG X 999      52.777 138.209  23.856  1.00  0.00     0.012 A 
HETATM   11  C9  LIG X 999      51.374 139.537  22.387  1.00  0.00     0.014 A 
HETATM   12  C8  LIG X 999      50.414 139.625  21.381  1.00  0.00     0.026 A 
HETATM   13  C6  LIG X 999      49.821 138.469  20.865  1.00  0.00     0.077 A 
HETATM   14  C7  LIG X 999      48.813 138.603  19.841  1.00  0.00     0.102 C 
HETATM   15  N4  LIG X 999      48.004 138.710  19.020  1.00  0.00    -0.191 NA
ENDBRANCH   1   4
TORSDOF 1
