REMARK VINA RESULT:       1.1      3.032      5.389
REMARK  4 active torsions:
REMARK  status: ('A' for Active; 'I' for Inactive)
REMARK    1  A    between atoms: C5_5  and  O1_6 
REMARK    2  A    between atoms: O1_6  and  C6_7 
REMARK       I    between atoms: C6_7  and  N1_9 
REMARK    3  A    between atoms: C9_13  and  N2_14 
REMARK    4  A    between atoms: C11_19  and  N5_20 
ROOT
HETATM    1  N2  LIG X 999      44.960 129.664  22.493  1.00  0.00    -0.068 NA
HETATM    2  N3  LIG X 999      45.288 128.528  22.150  1.00  0.00    -0.162 NA
HETATM    3  N4  LIG X 999      45.611 127.391  21.811  1.00  0.00     0.068 N 
ENDROOT
BRANCH   1   4
HETATM    4  C9  LIG X 999      45.048 130.799  21.611  1.00  0.00     0.151 C 
HETATM    5  C5  LIG X 999      45.082 132.079  22.192  1.00  0.00     0.114 C 
HETATM    6  C4  LIG X 999      44.301 132.391  23.326  1.00  0.00     0.040 C 
HETATM    7  C3  LIG X 999      43.039 131.834  23.621  1.00  0.00     0.003 C 
HETATM    8  C2  LIG X 999      42.193 131.172  22.709  1.00  0.00     0.000 C 
HETATM    9  C1  LIG X 999      42.270 131.299  21.317  1.00  0.00     0.000 C 
HETATM   10  C13 LIG X 999      42.689 132.479  20.700  1.00  0.00     0.002 C 
HETATM   11  C12 LIG X 999      43.542 132.516  19.592  1.00  0.00     0.036 C 
HETATM   12  C11 LIG X 999      44.538 131.554  19.272  1.00  0.00     0.117 C 
HETATM   13  C10 LIG X 999      45.089 130.633  20.204  1.00  0.00     0.100 C 
HETATM   14 CL1  LIG X 999      45.957 129.238  19.555  1.00  0.00    -0.079 Cl
BRANCH   5  15
HETATM   15  O1  LIG X 999      45.934 133.031  21.611  1.00  0.00    -0.254 OA
BRANCH  15  16
HETATM   16  C6  LIG X 999      47.338 132.995  21.615  1.00  0.00     0.461 C 
HETATM   17  O2  LIG X 999      47.961 132.016  21.119  1.00  0.00    -0.230 OA
HETATM   18  N1  LIG X 999      48.073 134.045  22.273  1.00  0.00     0.009 N 
HETATM   19  H5  LIG X 999      49.100 133.902  22.118  1.00  0.00     0.292 HD
HETATM   20  C7  LIG X 999      47.701 135.353  21.713  1.00  0.00     0.282 C 
HETATM   21  C8  LIG X 999      47.810 134.001  23.719  1.00  0.00     0.282 C 
ENDBRANCH  15  16
ENDBRANCH   5  15
BRANCH  12  22
HETATM   22  N5  LIG X 999      45.075 131.528  17.938  1.00  0.00    -0.071 NA
HETATM   23  N6  LIG X 999      44.365 131.590  16.932  1.00  0.00    -0.162 NA
HETATM   24  N7  LIG X 999      43.658 131.652  15.928  1.00  0.00     0.068 N 
ENDBRANCH  12  22
ENDBRANCH   1   4
TORSDOF 4
