REMARK VINA RESULT:      -1.8      8.253      9.659
REMARK  4 active torsions:
REMARK  status: ('A' for Active; 'I' for Inactive)
REMARK    1  A    between atoms: C5_5  and  O1_6 
REMARK    2  A    between atoms: O1_6  and  C6_7 
REMARK       I    between atoms: C6_7  and  N1_9 
REMARK    3  A    between atoms: C9_12  and  N2_13 
REMARK    4  A    between atoms: C11_18  and  N5_19 
ROOT
HETATM    1  N2  LIG X 999      45.759 129.565  18.478  1.00  0.00    -0.068 NA
HETATM    2  N3  LIG X 999      46.369 129.769  17.428  1.00  0.00    -0.162 NA
HETATM    3  N4  LIG X 999      46.975 129.968  16.376  1.00  0.00     0.068 N 
ENDROOT
BRANCH   1   4
HETATM    4  C9  LIG X 999      45.269 130.625  19.318  1.00  0.00     0.151 C 
HETATM    5  C5  LIG X 999      44.587 131.680  18.660  1.00  0.00     0.114 C 
HETATM    6  C4  LIG X 999      43.678 132.576  19.281  1.00  0.00     0.040 C 
HETATM    7  C3  LIG X 999      43.042 132.377  20.509  1.00  0.00     0.003 C 
HETATM    8  C2  LIG X 999      42.707 131.116  21.007  1.00  0.00     0.000 C 
HETATM    9  C1  LIG X 999      42.857 130.787  22.357  1.00  0.00     0.000 C 
HETATM   10  C13 LIG X 999      43.862 131.308  23.194  1.00  0.00     0.002 C 
HETATM   11  C12 LIG X 999      45.071 131.900  22.771  1.00  0.00     0.036 C 
HETATM   12  C11 LIG X 999      45.655 131.756  21.489  1.00  0.00     0.117 C 
HETATM   13  C10 LIG X 999      45.488 130.586  20.721  1.00  0.00     0.100 C 
HETATM   14 CL1  LIG X 999      45.524 129.025  21.551  1.00  0.00    -0.079 Cl
BRANCH   5  15
HETATM   15  O1  LIG X 999      44.827 131.810  17.283  1.00  0.00    -0.259 OA
BRANCH  15  16
HETATM   16  C6  LIG X 999      43.841 131.747  16.287  1.00  0.00     0.367 C 
HETATM   17  O2  LIG X 999      42.619 131.809  16.596  1.00  0.00    -0.238 OA
HETATM   18  N1  LIG X 999      44.229 131.668  14.905  1.00  0.00    -0.336 N 
HETATM   19  C7  LIG X 999      43.204 131.624  13.860  1.00  0.00     0.154 C 
HETATM   20  C8  LIG X 999      45.653 131.626  14.563  1.00  0.00     0.154 C 
ENDBRANCH  15  16
ENDBRANCH   5  15
BRANCH  12  21
HETATM   21  N5  LIG X 999      46.462 132.810  20.941  1.00  0.00    -0.071 NA
HETATM   22  N6  LIG X 999      47.239 133.473  21.630  1.00  0.00    -0.162 NA
HETATM   23  N7  LIG X 999      48.014 134.137  22.317  1.00  0.00     0.068 N 
ENDBRANCH  12  21
ENDBRANCH   1   4
TORSDOF 4
