REMARK VINA RESULT:      -6.6      0.000      0.000
REMARK  6 active torsions:
REMARK  status: ('A' for Active; 'I' for Inactive)
REMARK    1  A    between atoms: S1_2  and  C1_3 
REMARK    2  A    between atoms: C1_3  and  N2_14 
REMARK    3  A    between atoms: N1_4  and  C2_5 
REMARK    4  A    between atoms: C3_6  and  C4_7 
REMARK    5  A    between atoms: C4_7  and  O2_9 
REMARK    6  A    between atoms: N2_14  and  C8_16 
ROOT
HETATM    1  C1  LIG X 999      43.539 131.186  23.901  1.00  0.00     0.164 C 
HETATM    2  N1  LIG X 999      43.465 130.069  24.566  1.00  0.00    -0.224 NA
ENDROOT
BRANCH   1   3
HETATM    3  S1  LIG X 999      44.426 132.557  24.624  1.00  0.00    -0.105 SA
HETATM    4  H1  LIG X 999      44.232 132.060  25.927  1.00  0.00     0.110 HD
ENDBRANCH   1   3
BRANCH   1   5
HETATM    5  N2  LIG X 999      42.956 131.347  22.599  1.00  0.00    -0.336 N 
HETATM    6  H7  LIG X 999      41.963 131.667  22.553  1.00  0.00     0.168 HD
BRANCH   5   7
HETATM    7  C8  LIG X 999      43.697 131.240  21.370  1.00  0.00     0.034 A 
HETATM    8  C9  LIG X 999      45.036 130.809  21.357  1.00  0.00     0.030 A 
HETATM    9  C10 LIG X 999      45.732 130.688  20.151  1.00  0.00     0.014 A 
HETATM   10  C11 LIG X 999      45.105 131.010  18.940  1.00  0.00    -0.026 A 
HETATM   11  C12 LIG X 999      45.792 130.888  17.723  1.00  0.00     0.012 A 
HETATM   12  C16 LIG X 999      43.764 131.464  18.945  1.00  0.00    -0.024 A 
HETATM   13  C13 LIG X 999      45.157 131.214  16.522  1.00  0.00     0.001 A 
HETATM   14  C14 LIG X 999      43.833 131.662  16.526  1.00  0.00     0.001 A 
HETATM   15  C15 LIG X 999      43.136 131.788  17.732  1.00  0.00     0.012 A 
HETATM   16  C17 LIG X 999      43.074 131.583  20.160  1.00  0.00     0.041 A 
ENDBRANCH   5   7
ENDBRANCH   1   5
BRANCH   2  17
HETATM   17  C2  LIG X 999      42.696 128.912  24.201  1.00  0.00     0.083 A 
HETATM   18  C3  LIG X 999      43.284 127.707  23.818  1.00  0.00     0.108 A 
HETATM   19  S2  LIG X 999      42.052 126.599  23.522  1.00  0.00    -0.093 SA
HETATM   20  C6  LIG X 999      40.772 127.621  23.898  1.00  0.00     0.053 A 
HETATM   21  C7  LIG X 999      41.293 128.854  24.263  1.00  0.00     0.040 A 
BRANCH  18  22
HETATM   22  C4  LIG X 999      44.719 127.437  23.646  1.00  0.00     0.302 C 
HETATM   23  O1  LIG X 999      45.503 127.589  24.622  1.00  0.00    -0.259 OA
BRANCH  22  24
HETATM   24  O2  LIG X 999      45.207 127.008  22.408  1.00  0.00    -0.322 OA
HETATM   25  C5  LIG X 999      46.200 125.998  22.283  1.00  0.00     0.213 C 
ENDBRANCH  22  24
ENDBRANCH  18  22
ENDBRANCH   2  17
TORSDOF 6
