REMARK VINA RESULT:      -5.3      3.497      5.932
REMARK  3 active torsions:
REMARK  status: ('A' for Active; 'I' for Inactive)
REMARK    1  A    between atoms: C3_3  and  S1_4 
REMARK    2  A    between atoms: S1_4  and  C4_7 
REMARK    3  A    between atoms: C6_9  and  N1_10 
ROOT
HETATM    1  C1  LIG X 999      48.941 124.593  21.782  1.00  0.00     0.013 C 
HETATM    2  C2  LIG X 999      47.789 124.861  22.018  1.00  0.00    -0.102 C 
HETATM    3  C3  LIG X 999      46.393 125.201  22.303  1.00  0.00     0.238 C 
ENDROOT
BRANCH   3   4
HETATM    4  S1  LIG X 999      45.510 123.810  22.992  1.00  0.00     0.186 S 
HETATM    5  O1  LIG X 999      46.262 123.234  24.160  1.00  0.00    -0.222 OA
HETATM    6  O2  LIG X 999      45.442 122.744  21.934  1.00  0.00    -0.222 OA
BRANCH   4   7
HETATM    7  C4  LIG X 999      43.854 124.275  23.451  1.00  0.00     0.073 A 
HETATM    8  C5  LIG X 999      42.942 123.234  23.688  1.00  0.00     0.058 A 
HETATM    9  C6  LIG X 999      41.621 123.487  24.062  1.00  0.00     0.095 A 
HETATM   10  C7  LIG X 999      41.183 124.812  24.196  1.00  0.00     0.046 A 
HETATM   11  C8  LIG X 999      42.057 125.877  23.950  1.00  0.00    -0.021 A 
HETATM   12  C9  LIG X 999      41.588 127.200  24.074  1.00  0.00     0.022 A 
HETATM   13  C13 LIG X 999      43.412 125.622  23.568  1.00  0.00    -0.004 A 
HETATM   14  C10 LIG X 999      42.461 128.250  23.803  1.00  0.00    -0.024 A 
HETATM   15  C11 LIG X 999      43.747 128.023  23.434  1.00  0.00    -0.024 A 
HETATM   16  C17 LIG X 999      42.186 129.700  23.872  1.00  0.00     0.276 C 
HETATM   17  C12 LIG X 999      44.257 126.731  23.311  1.00  0.00     0.023 A 
HETATM   18  C14 LIG X 999      44.458 129.301  23.216  1.00  0.00     0.276 C 
HETATM   19  N4  LIG X 999      43.414 130.368  23.334  1.00  0.00    -0.067 N 
HETATM   20  C15 LIG X 999      43.867 131.445  24.244  1.00  0.00     0.272 C 
HETATM   21  C16 LIG X 999      43.132 130.950  22.001  1.00  0.00     0.272 C 
BRANCH   9  22
HETATM   22  N1  LIG X 999      40.746 122.375  24.295  1.00  0.00    -0.073 NA
HETATM   23  N2  LIG X 999      39.519 122.478  24.241  1.00  0.00    -0.162 NA
HETATM   24  N3  LIG X 999      38.295 122.578  24.186  1.00  0.00     0.068 N 
ENDBRANCH   9  22
ENDBRANCH   4   7
ENDBRANCH   3   4
TORSDOF 3
