REMARK VINA RESULT:      -4.8      1.958      3.457
REMARK  3 active torsions:
REMARK  status: ('A' for Active; 'I' for Inactive)
REMARK       I    between atoms: N1_2  and  C3_4 
REMARK    1  A    between atoms: C3_4  and  O2_6 
REMARK    2  A    between atoms: O2_6  and  C4_7 
REMARK    3  A    between atoms: C7_10  and  N2_11 
ROOT
HETATM    1  C4  LIG X 999      44.179 131.470  19.812  1.00  0.00     0.092 A 
HETATM    2  C5  LIG X 999      43.230 132.484  19.998  1.00  0.00     0.040 A 
HETATM    3  C6  LIG X 999      42.491 132.558  21.175  1.00  0.00     0.033 A 
HETATM    4  C7  LIG X 999      42.681 131.632  22.208  1.00  0.00     0.037 A 
HETATM    5  C8  LIG X 999      43.670 130.622  22.064  1.00  0.00     0.003 A 
HETATM    6  C9  LIG X 999      43.957 129.697  23.093  1.00  0.00     0.014 A 
HETATM    7  C10 LIG X 999      44.931 128.713  22.917  1.00  0.00     0.001 A 
HETATM    8  C11 LIG X 999      45.644 128.633  21.723  1.00  0.00     0.001 A 
HETATM    9  C12 LIG X 999      45.393 129.543  20.697  1.00  0.00     0.015 A 
HETATM   10  C13 LIG X 999      44.417 130.547  20.851  1.00  0.00     0.010 A 
ENDROOT
BRANCH   1  11
HETATM   11  O2  LIG X 999      44.932 131.387  18.629  1.00  0.00    -0.261 OA
BRANCH  11  12
HETATM   12  C3  LIG X 999      44.407 131.374  17.328  1.00  0.00     0.367 C 
HETATM   13  N1  LIG X 999      45.109 130.678  16.285  1.00  0.00    -0.336 N 
HETATM   14  C1  LIG X 999      44.557 130.645  14.929  1.00  0.00     0.154 C 
HETATM   15  C2  LIG X 999      46.376 130.012  16.597  1.00  0.00     0.154 C 
HETATM   16  O1  LIG X 999      43.300 131.927  17.082  1.00  0.00    -0.238 OA
ENDBRANCH  11  12
ENDBRANCH   1  11
BRANCH   4  17
HETATM   17  N2  LIG X 999      41.852 131.744  23.376  1.00  0.00    -0.398 N 
HETATM   18  H9  LIG X 999      42.264 132.057  24.283  1.00  0.00     0.156 HD
HETATM   19  H10 LIG X 999      40.817 131.633  23.355  1.00  0.00     0.156 HD
ENDBRANCH   4  17
TORSDOF 3
