MODEL 1
REMARK VINA RESULT:      -8.9      0.000      0.000
REMARK  2 active torsions:
REMARK  status: ('A' for Active; 'I' for Inactive)
REMARK    1  A    between atoms: C1_2  and  C2_4 
REMARK    2  A    between atoms: C3_5  and  C4_6 
ROOT
HETATM    1  C4  LIG X 999      45.230 131.084  16.931  1.00  0.00     0.019 A 
HETATM    2  C5  LIG X 999      43.928 131.567  16.750  1.00  0.00     0.021 A 
HETATM    3  C6  LIG X 999      43.118 131.839  17.856  1.00  0.00     0.013 A 
HETATM    4  C7  LIG X 999      43.605 131.631  19.155  1.00  0.00    -0.026 A 
HETATM    5  C8  LIG X 999      42.800 131.901  20.273  1.00  0.00     0.012 A 
HETATM    6  C9  LIG X 999      43.297 131.689  21.563  1.00  0.00     0.001 A 
HETATM    7  C10 LIG X 999      44.597 131.208  21.746  1.00  0.00     0.001 A 
HETATM    8  C11 LIG X 999      45.409 130.935  20.641  1.00  0.00     0.012 A 
HETATM    9  C12 LIG X 999      44.922 131.143  19.340  1.00  0.00    -0.025 A 
HETATM   10  C13 LIG X 999      45.727 130.873  18.223  1.00  0.00     0.032 A 
ENDROOT
BRANCH   1  11
HETATM   11  C3  LIG X 999      46.059 130.806  15.786  1.00  0.00    -0.056 C 
HETATM   12  C2  LIG X 999      46.752 130.572  14.828  1.00  0.00     0.010 C 
BRANCH  12  13
HETATM   13  C1  LIG X 999      47.576 130.295  13.686  1.00  0.00     0.258 C 
HETATM   14  O1  LIG X 999      48.309 129.273  13.673  1.00  0.00    -0.637 OA
HETATM   15  O2  LIG X 999      47.566 131.156  12.598  1.00  0.00    -0.637 OA
ENDBRANCH  12  13
ENDBRANCH   1  11
TORSDOF 2
ENDMDL
MODEL 2
REMARK VINA RESULT:      -8.1      3.656      6.553
REMARK  2 active torsions:
REMARK  status: ('A' for Active; 'I' for Inactive)
REMARK    1  A    between atoms: C1_2  and  C2_4 
REMARK    2  A    between atoms: C3_5  and  C4_6 
ROOT
HETATM    1  C4  LIG X 999      45.585 131.205  17.332  1.00  0.00     0.019 A 
HETATM    2  C5  LIG X 999      45.374 132.347  16.550  1.00  0.00     0.021 A 
HETATM    3  C6  LIG X 999      45.888 132.417  15.252  1.00  0.00     0.013 A 
HETATM    4  C7  LIG X 999      46.618 131.341  14.724  1.00  0.00    -0.026 A 
HETATM    5  C8  LIG X 999      47.139 131.400  13.422  1.00  0.00     0.012 A 
HETATM    6  C9  LIG X 999      47.865 130.322  12.908  1.00  0.00     0.001 A 
HETATM    7  C10 LIG X 999      48.077 129.181  13.687  1.00  0.00     0.001 A 
HETATM    8  C11 LIG X 999      47.564 129.109  14.985  1.00  0.00     0.012 A 
HETATM    9  C12 LIG X 999      46.832 130.185  15.514  1.00  0.00    -0.025 A 
HETATM   10  C13 LIG X 999      46.312 130.126  16.816  1.00  0.00     0.032 A 
ENDROOT
BRANCH   1  11
HETATM   11  C3  LIG X 999      45.052 131.142  18.669  1.00  0.00    -0.056 C 
HETATM   12  C2  LIG X 999      44.605 131.089  19.787  1.00  0.00     0.010 C 
BRANCH  12  13
HETATM   13  C1  LIG X 999      44.073 131.025  21.118  1.00  0.00     0.258 C 
HETATM   14  O1  LIG X 999      44.621 130.290  21.980  1.00  0.00    -0.637 OA
HETATM   15  O2  LIG X 999      42.953 131.772  21.454  1.00  0.00    -0.637 OA
ENDBRANCH  12  13
ENDBRANCH   1  11
TORSDOF 2
ENDMDL
MODEL 3
REMARK VINA RESULT:      -8.0      0.825      2.165
REMARK  2 active torsions:
REMARK  status: ('A' for Active; 'I' for Inactive)
REMARK    1  A    between atoms: C1_2  and  C2_4 
REMARK    2  A    between atoms: C3_5  and  C4_6 
ROOT
HETATM    1  C4  LIG X 999      45.434 130.924  17.587  1.00  0.00     0.019 A 
HETATM    2  C5  LIG X 999      46.070 130.502  18.761  1.00  0.00     0.021 A 
HETATM    3  C6  LIG X 999      45.475 130.730  20.005  1.00  0.00     0.013 A 
HETATM    4  C7  LIG X 999      44.235 131.382  20.085  1.00  0.00    -0.026 A 
HETATM    5  C8  LIG X 999      43.627 131.617  21.329  1.00  0.00     0.012 A 
HETATM    6  C9  LIG X 999      42.392 132.267  21.395  1.00  0.00     0.001 A 
HETATM    7  C10 LIG X 999      41.756 132.689  20.224  1.00  0.00     0.001 A 
HETATM    8  C11 LIG X 999      42.349 132.462  18.979  1.00  0.00     0.012 A 
HETATM    9  C12 LIG X 999      43.590 131.809  18.898  1.00  0.00    -0.025 A 
HETATM   10  C13 LIG X 999      44.196 131.576  17.654  1.00  0.00     0.032 A 
ENDROOT
BRANCH   1  11
HETATM   11  C3  LIG X 999      46.054 130.686  16.309  1.00  0.00    -0.056 C 
HETATM   12  C2  LIG X 999      46.572 130.487  15.239  1.00  0.00     0.010 C 
BRANCH  12  13
HETATM   13  C1  LIG X 999      47.190 130.251  13.965  1.00  0.00     0.258 C 
HETATM   14  O1  LIG X 999      46.922 130.997  12.988  1.00  0.00    -0.637 OA
HETATM   15  O2  LIG X 999      48.083 129.200  13.811  1.00  0.00    -0.637 OA
ENDBRANCH  12  13
ENDBRANCH   1  11
TORSDOF 2
ENDMDL
MODEL 4
REMARK VINA RESULT:      -7.7      4.077      6.464
REMARK  2 active torsions:
REMARK  status: ('A' for Active; 'I' for Inactive)
REMARK    1  A    between atoms: C1_2  and  C2_4 
REMARK    2  A    between atoms: C3_5  and  C4_6 
ROOT
HETATM    1  C4  LIG X 999      44.370 131.258  18.450  1.00  0.00     0.019 A 
HETATM    2  C5  LIG X 999      43.445 131.832  17.569  1.00  0.00     0.021 A 
HETATM    3  C6  LIG X 999      43.672 131.803  16.190  1.00  0.00     0.013 A 
HETATM    4  C7  LIG X 999      44.830 131.196  15.680  1.00  0.00    -0.026 A 
HETATM    5  C8  LIG X 999      45.069 131.161  14.297  1.00  0.00     0.012 A 
HETATM    6  C9  LIG X 999      46.227 130.554  13.801  1.00  0.00     0.001 A 
HETATM    7  C10 LIG X 999      47.152 129.981  14.678  1.00  0.00     0.001 A 
HETATM    8  C11 LIG X 999      46.927 130.009  16.057  1.00  0.00     0.012 A 
HETATM    9  C12 LIG X 999      45.767 130.616  16.569  1.00  0.00    -0.025 A 
HETATM   10  C13 LIG X 999      45.529 130.651  17.951  1.00  0.00     0.032 A 
ENDROOT
BRANCH   1  11
HETATM   11  C3  LIG X 999      44.128 131.293  19.869  1.00  0.00    -0.056 C 
HETATM   12  C2  LIG X 999      43.925 131.323  21.057  1.00  0.00     0.010 C 
BRANCH  12  13
HETATM   13  C1  LIG X 999      43.683 131.356  22.471  1.00  0.00     0.258 C 
HETATM   14  O1  LIG X 999      44.400 130.673  23.248  1.00  0.00    -0.637 OA
HETATM   15  O2  LIG X 999      42.659 132.141  22.981  1.00  0.00    -0.637 OA
ENDBRANCH  12  13
ENDBRANCH   1  11
TORSDOF 2
ENDMDL
MODEL 5
REMARK VINA RESULT:      -7.7      3.768      6.737
REMARK  2 active torsions:
REMARK  status: ('A' for Active; 'I' for Inactive)
REMARK    1  A    between atoms: C1_2  and  C2_4 
REMARK    2  A    between atoms: C3_5  and  C4_6 
ROOT
HETATM    1  C4  LIG X 999      45.136 130.931  17.220  1.00  0.00     0.019 A 
HETATM    2  C5  LIG X 999      45.600 129.615  17.338  1.00  0.00     0.021 A 
HETATM    3  C6  LIG X 999      46.448 129.077  16.366  1.00  0.00     0.013 A 
HETATM    4  C7  LIG X 999      46.841 129.854  15.265  1.00  0.00    -0.026 A 
HETATM    5  C8  LIG X 999      47.693 129.325  14.283  1.00  0.00     0.012 A 
HETATM    6  C9  LIG X 999      48.076 130.108  13.191  1.00  0.00     0.001 A 
HETATM    7  C10 LIG X 999      47.614 131.422  13.070  1.00  0.00     0.001 A 
HETATM    8  C11 LIG X 999      46.765 131.962  14.041  1.00  0.00     0.012 A 
HETATM    9  C12 LIG X 999      46.372 131.185  15.144  1.00  0.00    -0.025 A 
HETATM   10  C13 LIG X 999      45.521 131.715  16.125  1.00  0.00     0.032 A 
ENDROOT
BRANCH   1  11
HETATM   11  C3  LIG X 999      44.262 131.477  18.226  1.00  0.00    -0.056 C 
HETATM   12  C2  LIG X 999      43.531 131.934  19.068  1.00  0.00     0.010 C 
BRANCH  12  13
HETATM   13  C1  LIG X 999      42.661 132.479  20.071  1.00  0.00     0.258 C 
HETATM   14  O1  LIG X 999      41.771 133.308  19.748  1.00  0.00    -0.637 OA
HETATM   15  O2  LIG X 999      42.803 132.093  21.396  1.00  0.00    -0.637 OA
ENDBRANCH  12  13
ENDBRANCH   1  11
TORSDOF 2
ENDMDL
MODEL 6
REMARK VINA RESULT:      -7.4      1.292      2.638
REMARK  2 active torsions:
REMARK  status: ('A' for Active; 'I' for Inactive)
REMARK    1  A    between atoms: C1_2  and  C2_4 
REMARK    2  A    between atoms: C3_5  and  C4_6 
ROOT
HETATM    1  C4  LIG X 999      45.048 131.157  18.582  1.00  0.00     0.019 A 
HETATM    2  C5  LIG X 999      45.935 130.504  19.447  1.00  0.00     0.021 A 
HETATM    3  C6  LIG X 999      45.663 130.438  20.817  1.00  0.00     0.013 A 
HETATM    4  C7  LIG X 999      44.499 131.026  21.333  1.00  0.00    -0.026 A 
HETATM    5  C8  LIG X 999      44.216 130.967  22.707  1.00  0.00     0.012 A 
HETATM    6  C9  LIG X 999      43.053 131.558  23.209  1.00  0.00     0.001 A 
HETATM    7  C10 LIG X 999      42.166 132.210  22.348  1.00  0.00     0.001 A 
HETATM    8  C11 LIG X 999      42.436 132.277  20.978  1.00  0.00     0.012 A 
HETATM    9  C12 LIG X 999      43.601 131.688  20.459  1.00  0.00    -0.025 A 
HETATM   10  C13 LIG X 999      43.883 131.748  19.087  1.00  0.00     0.032 A 
ENDROOT
BRANCH   1  11
HETATM   11  C3  LIG X 999      45.336 131.221  17.172  1.00  0.00    -0.056 C 
HETATM   12  C2  LIG X 999      45.577 131.274  15.992  1.00  0.00     0.010 C 
BRANCH  12  13
HETATM   13  C1  LIG X 999      45.865 131.338  14.588  1.00  0.00     0.258 C 
HETATM   14  O1  LIG X 999      44.948 131.138  13.749  1.00  0.00    -0.637 OA
HETATM   15  O2  LIG X 999      47.153 131.618  14.155  1.00  0.00    -0.637 OA
ENDBRANCH  12  13
ENDBRANCH   1  11
TORSDOF 2
ENDMDL
MODEL 7
REMARK VINA RESULT:      -7.0      1.449      2.206
REMARK  2 active torsions:
REMARK  status: ('A' for Active; 'I' for Inactive)
REMARK    1  A    between atoms: C1_2  and  C2_4 
REMARK    2  A    between atoms: C3_5  and  C4_6 
ROOT
HETATM    1  C4  LIG X 999      43.968 131.716  18.467  1.00  0.00     0.019 A 
HETATM    2  C5  LIG X 999      42.655 132.187  18.595  1.00  0.00     0.021 A 
HETATM    3  C6  LIG X 999      42.070 132.306  19.859  1.00  0.00     0.013 A 
HETATM    4  C7  LIG X 999      42.795 131.956  21.008  1.00  0.00    -0.026 A 
HETATM    5  C8  LIG X 999      42.218 132.071  22.282  1.00  0.00     0.012 A 
HETATM    6  C9  LIG X 999      42.951 131.718  23.419  1.00  0.00     0.001 A 
HETATM    7  C10 LIG X 999      44.262 131.248  23.293  1.00  0.00     0.001 A 
HETATM    8  C11 LIG X 999      44.849 131.128  22.030  1.00  0.00     0.012 A 
HETATM    9  C12 LIG X 999      44.123 131.479  20.879  1.00  0.00    -0.025 A 
HETATM   10  C13 LIG X 999      44.701 131.363  19.606  1.00  0.00     0.032 A 
ENDROOT
BRANCH   1  11
HETATM   11  C3  LIG X 999      44.563 131.595  17.161  1.00  0.00    -0.056 C 
HETATM   12  C2  LIG X 999      45.061 131.494  16.068  1.00  0.00     0.010 C 
BRANCH  12  13
HETATM   13  C1  LIG X 999      45.653 131.373  14.766  1.00  0.00     0.258 C 
HETATM   14  O1  LIG X 999      44.962 130.966  13.796  1.00  0.00    -0.637 OA
HETATM   15  O2  LIG X 999      46.988 131.703  14.577  1.00  0.00    -0.637 OA
ENDBRANCH  12  13
ENDBRANCH   1  11
TORSDOF 2
ENDMDL
MODEL 8
REMARK VINA RESULT:      -6.6      4.472      6.873
REMARK  2 active torsions:
REMARK  status: ('A' for Active; 'I' for Inactive)
REMARK    1  A    between atoms: C1_2  and  C2_4 
REMARK    2  A    between atoms: C3_5  and  C4_6 
ROOT
HETATM    1  C4  LIG X 999      44.604 131.182  19.410  1.00  0.00     0.019 A 
HETATM    2  C5  LIG X 999      45.820 130.514  19.220  1.00  0.00     0.021 A 
HETATM    3  C6  LIG X 999      46.298 130.276  17.928  1.00  0.00     0.013 A 
HETATM    4  C7  LIG X 999      45.562 130.707  16.813  1.00  0.00    -0.026 A 
HETATM    5  C8  LIG X 999      46.031 130.474  15.511  1.00  0.00     0.012 A 
HETATM    6  C9  LIG X 999      45.289 130.907  14.409  1.00  0.00     0.001 A 
HETATM    7  C10 LIG X 999      44.075 131.574  14.597  1.00  0.00     0.001 A 
HETATM    8  C11 LIG X 999      43.595 131.813  15.889  1.00  0.00     0.012 A 
HETATM    9  C12 LIG X 999      44.331 131.383  17.005  1.00  0.00    -0.025 A 
HETATM   10  C13 LIG X 999      43.861 131.616  18.306  1.00  0.00     0.032 A 
ENDROOT
BRANCH   1  11
HETATM   11  C3  LIG X 999      44.118 131.423  20.745  1.00  0.00    -0.056 C 
HETATM   12  C2  LIG X 999      43.711 131.623  21.862  1.00  0.00     0.010 C 
BRANCH  12  13
HETATM   13  C1  LIG X 999      43.228 131.862  23.192  1.00  0.00     0.258 C 
HETATM   14  O1  LIG X 999      41.994 131.807  23.432  1.00  0.00    -0.637 OA
HETATM   15  O2  LIG X 999      44.121 132.154  24.213  1.00  0.00    -0.637 OA
ENDBRANCH  12  13
ENDBRANCH   1  11
TORSDOF 2
ENDMDL
