REMARK VINA RESULT:      -4.8      8.190      8.950
REMARK  2 active torsions:
REMARK  status: ('A' for Active; 'I' for Inactive)
REMARK    1  A    between atoms: C9_10  and  N2_11 
REMARK       I    between atoms: N2_11  and  C10_12 
REMARK    2  A    between atoms: C10_12  and  C11_14 
ROOT
HETATM    1  C11 LIG X 999      53.077 123.861  19.882  1.00  0.00     0.280 C 
HETATM    2 CL1  LIG X 999      53.614 122.375  20.707  1.00  0.00    -0.099 Cl
HETATM    3  C12 LIG X 999      53.327 123.741  18.443  1.00  0.00     0.089 C 
HETATM    4  N3  LIG X 999      53.525 123.647  17.307  1.00  0.00    -0.195 NA
ENDROOT
BRANCH   1   5
HETATM    5  C10 LIG X 999      51.618 124.096  20.135  1.00  0.00     0.254 C 
HETATM    6  N2  LIG X 999      51.043 123.791  21.417  1.00  0.00    -0.325 N 
HETATM    7  H12 LIG X 999      51.594 123.186  22.068  1.00  0.00     0.169 HD
HETATM    8  O1  LIG X 999      50.891 124.512  19.191  1.00  0.00    -0.270 OA
BRANCH   6   9
HETATM    9  C9  LIG X 999      49.715 124.173  21.815  1.00  0.00     0.035 A 
HETATM   10  C8  LIG X 999      49.512 125.427  22.411  1.00  0.00     0.030 A 
HETATM   11  C7  LIG X 999      48.233 125.839  22.792  1.00  0.00     0.014 A 
HETATM   12  C6  LIG X 999      47.129 125.007  22.568  1.00  0.00    -0.025 A 
HETATM   13  C5  LIG X 999      45.835 125.415  22.945  1.00  0.00     0.021 A 
HETATM   14  C14 LIG X 999      47.319 123.742  21.942  1.00  0.00    -0.023 A 
HETATM   15  C4  LIG X 999      44.764 124.555  22.697  1.00  0.00    -0.024 A 
HETATM   16  C3  LIG X 999      43.331 124.784  22.983  1.00  0.00     0.276 C 
HETATM   17  C16 LIG X 999      44.944 123.346  22.095  1.00  0.00    -0.024 A 
HETATM   18  N1  LIG X 999      42.641 123.501  22.639  1.00  0.00    -0.067 N 
HETATM   19  C1  LIG X 999      41.465 123.754  21.774  1.00  0.00     0.272 C 
HETATM   20  C2  LIG X 999      42.191 122.819  23.875  1.00  0.00     0.272 C 
HETATM   21  C17 LIG X 999      43.649 122.655  21.924  1.00  0.00     0.276 C 
HETATM   22  C15 LIG X 999      46.209 122.909  21.700  1.00  0.00     0.021 A 
HETATM   23  C13 LIG X 999      48.609 123.341  21.565  1.00  0.00     0.042 A 
ENDBRANCH   6   9
ENDBRANCH   1   5
TORSDOF 2
