REMARK VINA RESULT:      -6.7      3.770      6.804
REMARK  4 active torsions:
REMARK  status: ('A' for Active; 'I' for Inactive)
REMARK    1  A    between atoms: O1_2  and  C1_3 
REMARK    2  A    between atoms: C1_3  and  C14_17 
REMARK    3  A    between atoms: N1_4  and  C2_5 
REMARK    4  A    between atoms: C2_5  and  C3_6 
ROOT
HETATM    1  C3  LIG X 999      44.165 131.240  20.824  1.00  0.00    -0.033 A 
HETATM    2  C4  LIG X 999      45.435 130.643  20.763  1.00  0.00     0.010 A 
HETATM    3  C5  LIG X 999      46.056 130.416  19.532  1.00  0.00     0.013 A 
HETATM    4  C6  LIG X 999      45.420 130.790  18.341  1.00  0.00    -0.026 A 
HETATM    5  C7  LIG X 999      46.036 130.566  17.100  1.00  0.00     0.012 A 
HETATM    6  C8  LIG X 999      45.392 130.947  15.919  1.00  0.00     0.001 A 
HETATM    7  C9  LIG X 999      44.133 131.552  15.967  1.00  0.00     0.001 A 
HETATM    8  C10 LIG X 999      43.510 131.780  17.197  1.00  0.00     0.012 A 
HETATM    9  C11 LIG X 999      44.144 131.402  18.391  1.00  0.00    -0.025 A 
HETATM   10  C12 LIG X 999      43.528 131.627  19.630  1.00  0.00     0.021 A 
ENDROOT
BRANCH   1  11
HETATM   11  C2  LIG X 999      43.513 131.502  22.164  1.00  0.00     0.139 C 
HETATM   12  C13 LIG X 999      42.231 132.320  21.976  1.00  0.00     0.039 C 
BRANCH  11  13
HETATM   13  N1  LIG X 999      43.217 130.228  22.823  1.00  0.00    -0.261 NA
HETATM   14  C1  LIG X 999      43.763 129.828  23.932  1.00  0.00     0.132 C 
BRANCH  14  15
HETATM   15  O1  LIG X 999      44.726 130.608  24.573  1.00  0.00    -0.348 OA
HETATM   16  H1  LIG X 999      44.616 130.888  25.540  1.00  0.00     0.219 HD
ENDBRANCH  14  15
BRANCH  14  17
HETATM   17  C14 LIG X 999      43.380 128.496  24.503  1.00  0.00     0.081 C 
HETATM   18  C15 LIG X 999      43.985 127.365  23.679  1.00  0.00     0.013 C 
ENDBRANCH  14  17
ENDBRANCH  11  13
ENDBRANCH   1  11
TORSDOF 4
