REMARK VINA RESULT:      -5.3      1.901      3.195
REMARK  1 active torsions:
REMARK  status: ('A' for Active; 'I' for Inactive)
REMARK    1  A    between atoms: N1_2  and  C1_3 
ROOT
HETATM    1  C1  LIG X 999      44.256 131.251  16.652  1.00  0.00     0.120 C 
HETATM    2  C2  LIG X 999      43.035 131.725  17.119  1.00  0.00     0.057 C 
HETATM    3  C3  LIG X 999      42.843 131.973  18.486  1.00  0.00    -0.045 C 
HETATM    4  C4  LIG X 999      41.613 132.768  18.850  1.00  0.00     0.049 C 
HETATM    5  C5  LIG X 999      43.866 131.596  19.414  1.00  0.00     0.008 C 
HETATM    6  C6  LIG X 999      43.723 131.588  20.843  1.00  0.00    -0.013 C 
HETATM    7  C7  LIG X 999      42.471 131.562  21.502  1.00  0.00     0.013 C 
HETATM    8  C8  LIG X 999      42.386 131.614  22.895  1.00  0.00     0.001 C 
HETATM    9  C9  LIG X 999      43.543 131.642  23.669  1.00  0.00     0.001 C 
HETATM   10  C10 LIG X 999      44.790 131.560  23.055  1.00  0.00     0.012 C 
HETATM   11  C11 LIG X 999      44.889 131.493  21.656  1.00  0.00    -0.025 C 
HETATM   12  C12 LIG X 999      46.138 131.274  21.071  1.00  0.00     0.014 C 
HETATM   13  C13 LIG X 999      46.248 131.092  19.700  1.00  0.00     0.031 C 
HETATM   14  C14 LIG X 999      45.133 131.238  18.866  1.00  0.00     0.045 C 
HETATM   15  N2  LIG X 999      45.283 131.056  17.523  1.00  0.00    -0.341 N 
HETATM   16  H12 LIG X 999      46.213 130.756  17.147  1.00  0.00     0.167 HD
ENDROOT
BRANCH   1  17
HETATM   17  N1  LIG X 999      44.417 131.040  15.383  1.00  0.00    -0.284 NA
HETATM   18  H1  LIG X 999      45.117 130.357  15.017  1.00  0.00     0.188 HD
ENDBRANCH   1  17
TORSDOF 1
