REMARK VINA RESULT:      -7.8      3.129      6.942
REMARK  5 active torsions:
REMARK  status: ('A' for Active; 'I' for Inactive)
REMARK    1  A    between atoms: O1_2  and  C1_3 
REMARK    2  A    between atoms: C1_3  and  C5_11 
REMARK       I    between atoms: N1_4  and  C2_5 
REMARK    3  A    between atoms: C2_5  and  O3_7 
REMARK    4  A    between atoms: O3_7  and  C3_8 
REMARK    5  A    between atoms: C6_12  and  O4_13 
ROOT
HETATM    1  C5  LIG X 999      44.648 131.183  18.697  1.00  0.00     0.051 A 
HETATM    2  C6  LIG X 999      43.588 131.746  17.953  1.00  0.00     0.081 A 
HETATM    3  C7  LIG X 999      43.641 131.759  16.552  1.00  0.00     0.049 A 
HETATM    4  C8  LIG X 999      44.743 131.219  15.877  1.00  0.00    -0.023 A 
HETATM    5  C9  LIG X 999      44.799 131.233  14.474  1.00  0.00     0.012 A 
HETATM    6  C10 LIG X 999      45.903 130.688  13.810  1.00  0.00     0.001 A 
HETATM    7  C11 LIG X 999      46.955 130.129  14.539  1.00  0.00     0.001 A 
HETATM    8  C12 LIG X 999      46.910 130.110  15.937  1.00  0.00     0.012 A 
HETATM    9  C13 LIG X 999      45.808 130.655  16.615  1.00  0.00    -0.025 A 
HETATM   10  C14 LIG X 999      45.752 130.639  18.016  1.00  0.00     0.031 A 
ENDROOT
BRANCH   1  11
HETATM   11  C1  LIG X 999      44.612 131.141  20.180  1.00  0.00     0.181 C 
HETATM   12  N1  LIG X 999      43.552 131.563  20.806  1.00  0.00    -0.162 NA
HETATM   13  C2  LIG X 999      43.366 131.586  22.227  1.00  0.00     0.390 C 
HETATM   14  O2  LIG X 999      42.277 132.019  22.689  1.00  0.00    -0.236 OA
BRANCH  11  15
HETATM   15  O1  LIG X 999      45.705 130.646  20.894  1.00  0.00    -0.344 OA
HETATM   16  H1  LIG X 999      46.141 131.170  21.643  1.00  0.00     0.219 HD
ENDBRANCH  11  15
BRANCH  13  17
HETATM   17  O3  LIG X 999      44.375 131.147  23.093  1.00  0.00    -0.282 OA
BRANCH  17  18
HETATM   18  C3  LIG X 999      44.242 130.017  23.953  1.00  0.00     0.225 C 
HETATM   19 CL1  LIG X 999      44.448 128.536  22.984  1.00  0.00    -0.095 Cl
HETATM   20  C4  LIG X 999      42.864 130.006  24.610  1.00  0.00     0.057 C 
ENDBRANCH  17  18
ENDBRANCH  13  17
ENDBRANCH   1  11
BRANCH   2  21
HETATM   21  O4  LIG X 999      42.490 132.310  18.604  1.00  0.00    -0.360 OA
HETATM   22  H6  LIG X 999      42.143 133.231  18.364  1.00  0.00     0.217 HD
ENDBRANCH   2  21
TORSDOF 5
