REMARK VINA RESULT:      -5.9      2.292      7.077
REMARK  1 active torsions:
REMARK  status: ('A' for Active; 'I' for Inactive)
REMARK    1  A    between atoms: C2_2  and  N1_3 
ROOT
HETATM    1  N1  LIG X 999      42.634 131.706  23.123  1.00  0.00    -0.073 NA
HETATM    2  N2  LIG X 999      42.112 130.880  23.875  1.00  0.00    -0.162 NA
HETATM    3  N3  LIG X 999      41.592 130.057  24.625  1.00  0.00     0.068 N 
ENDROOT
BRANCH   1   4
HETATM    4  C2  LIG X 999      43.486 131.323  22.035  1.00  0.00     0.094 A 
HETATM    5  C1  LIG X 999      44.633 130.533  22.237  1.00  0.00     0.035 A 
HETATM    6  C10 LIG X 999      45.446 130.173  21.159  1.00  0.00     0.014 A 
HETATM    7  C9  LIG X 999      45.127 130.597  19.862  1.00  0.00    -0.025 A 
HETATM    8  C4  LIG X 999      43.966 131.397  19.650  1.00  0.00    -0.023 A 
HETATM    9  C8  LIG X 999      45.941 130.238  18.769  1.00  0.00     0.030 A 
HETATM   10  C3  LIG X 999      43.160 131.750  20.742  1.00  0.00     0.046 A 
HETATM   11  C5  LIG X 999      43.637 131.827  18.348  1.00  0.00     0.022 A 
HETATM   12  C6  LIG X 999      44.467 131.452  17.290  1.00  0.00    -0.015 A 
HETATM   13  C7  LIG X 999      45.575 130.687  17.502  1.00  0.00     0.049 A 
HETATM   14  C14 LIG X 999      44.322 131.786  15.839  1.00  0.00     0.286 A 
HETATM   15  C11 LIG X 999      46.200 130.484  16.223  1.00  0.00     0.351 A 
HETATM   16  O1  LIG X 999      47.257 129.814  16.055  1.00  0.00    -0.259 OA
HETATM   17  N4  LIG X 999      45.484 131.132  15.150  1.00  0.00    -0.005 N 
HETATM   18  C12 LIG X 999      45.028 130.126  14.168  1.00  0.00     0.283 C 
HETATM   19  C13 LIG X 999      46.353 132.134  14.498  1.00  0.00     0.283 C 
ENDBRANCH   1   4
TORSDOF 1
