REMARK VINA RESULT:      -6.7      4.979      7.537
REMARK  6 active torsions:
REMARK  status: ('A' for Active; 'I' for Inactive)
REMARK    1  A    between atoms: O1_2  and  C1_3 
REMARK    2  A    between atoms: C1_3  and  C4_6 
REMARK    3  A    between atoms: C4_6  and  O2_7 
REMARK    4  A    between atoms: C4_6  and  O3_9 
REMARK    5  A    between atoms: O3_9  and  C5_10 
REMARK    6  A    between atoms: C10_15  and  N1_16 
ROOT
HETATM    1  N1  LIG X 999      44.946 131.292  14.904  1.00  0.00    -0.073 NA
HETATM    2  N2  LIG X 999      43.869 131.479  14.334  1.00  0.00    -0.162 NA
HETATM    3  N3  LIG X 999      42.795 131.665  13.763  1.00  0.00     0.068 N 
ENDROOT
BRANCH   1   4
HETATM    4  C10 LIG X 999      45.044 131.145  16.327  1.00  0.00     0.094 A 
HETATM    5  C9  LIG X 999      44.025 131.668  17.132  1.00  0.00     0.046 A 
HETATM    6  C8  LIG X 999      44.085 131.544  18.528  1.00  0.00    -0.024 A 
HETATM    7  C7  LIG X 999      43.068 132.070  19.336  1.00  0.00     0.015 A 
HETATM    8  C13 LIG X 999      45.183 130.886  19.128  1.00  0.00    -0.023 A 
HETATM    9  C6  LIG X 999      43.137 131.942  20.725  1.00  0.00     0.038 A 
HETATM   10  C5  LIG X 999      44.214 131.287  21.332  1.00  0.00     0.073 A 
HETATM   11  C14 LIG X 999      45.244 130.762  20.526  1.00  0.00     0.049 A 
HETATM   12  C12 LIG X 999      46.203 130.364  18.320  1.00  0.00     0.014 A 
HETATM   13  C11 LIG X 999      46.135 130.491  16.930  1.00  0.00     0.035 A 
BRANCH  10  14
HETATM   14  O3  LIG X 999      44.221 131.194  22.733  1.00  0.00    -0.314 OA
BRANCH  14  15
HETATM   15  C4  LIG X 999      44.089 129.991  23.494  1.00  0.00     0.321 C 
BRANCH  15  16
HETATM   16  C1  LIG X 999      42.630 129.674  23.661  1.00  0.00     0.094 C 
HETATM   17  C2  LIG X 999      42.219 128.395  23.711  1.00  0.00     0.006 C 
HETATM   18  C3  LIG X 999      40.783 128.001  23.876  1.00  0.00     0.038 C 
BRANCH  16  19
HETATM   19  O1  LIG X 999      41.732 130.742  23.762  1.00  0.00    -0.360 OA
HETATM   20  H1  LIG X 999      42.023 131.703  23.889  1.00  0.00     0.217 HD
ENDBRANCH  16  19
ENDBRANCH  15  16
BRANCH  15  21
HETATM   21  O2  LIG X 999      44.714 128.926  22.826  1.00  0.00    -0.365 OA
HETATM   22  H7  LIG X 999      44.126 128.670  22.070  1.00  0.00     0.213 HD
ENDBRANCH  15  21
ENDBRANCH  14  15
ENDBRANCH  10  14
ENDBRANCH   1   4
TORSDOF 6
