REMARK VINA RESULT:      -6.1      2.532      6.765
REMARK  4 active torsions:
REMARK  status: ('A' for Active; 'I' for Inactive)
REMARK    1  A    between atoms: O1_2  and  C1_3 
REMARK    2  A    between atoms: C1_3  and  C5_11 
REMARK       I    between atoms: N1_4  and  C2_5 
REMARK    3  A    between atoms: C2_5  and  O3_7 
REMARK    4  A    between atoms: O3_7  and  C3_8 
ROOT
HETATM    1  C5  LIG X 999      44.220 130.979  20.784  1.00  0.00     0.054 A 
HETATM    2  C6  LIG X 999      43.138 131.382  21.599  1.00  0.00     0.122 A 
HETATM    3  O4  LIG X 999      42.382 132.508  21.290  1.00  0.00    -0.191 OA
HETATM    4  C7  LIG X 999      42.809 130.659  22.750  1.00  0.00     0.053 A 
HETATM    5  C8  LIG X 999      43.548 129.527  23.115  1.00  0.00    -0.023 A 
HETATM    6  C9  LIG X 999      43.220 128.800  24.271  1.00  0.00     0.012 A 
HETATM    7  C10 LIG X 999      43.965 127.672  24.625  1.00  0.00     0.001 A 
HETATM    8  C11 LIG X 999      45.040 127.263  23.831  1.00  0.00     0.001 A 
HETATM    9  C12 LIG X 999      45.376 127.979  22.680  1.00  0.00     0.012 A 
HETATM   10  C13 LIG X 999      44.635 129.114  22.313  1.00  0.00    -0.025 A 
HETATM   11  C14 LIG X 999      44.962 129.839  21.159  1.00  0.00     0.031 A 
ENDROOT
BRANCH   1  12
HETATM   12  C1  LIG X 999      44.584 131.730  19.548  1.00  0.00     0.181 C 
HETATM   13  N1  LIG X 999      44.328 131.202  18.383  1.00  0.00    -0.162 NA
HETATM   14  C2  LIG X 999      44.686 131.702  17.089  1.00  0.00     0.390 C 
HETATM   15  O2  LIG X 999      45.698 132.441  16.937  1.00  0.00    -0.236 OA
BRANCH  12  16
HETATM   16  O1  LIG X 999      45.161 132.998  19.666  1.00  0.00    -0.344 OA
HETATM   17  H1  LIG X 999      46.157 133.170  19.632  1.00  0.00     0.219 HD
ENDBRANCH  12  16
BRANCH  14  18
HETATM   18  O3  LIG X 999      43.947 131.284  15.978  1.00  0.00    -0.282 OA
BRANCH  18  19
HETATM   19  C3  LIG X 999      44.488 130.476  14.936  1.00  0.00     0.225 C 
HETATM   20 CL1  LIG X 999      45.233 129.007  15.627  1.00  0.00    -0.095 Cl
HETATM   21  C4  LIG X 999      45.540 131.271  14.177  1.00  0.00     0.057 C 
ENDBRANCH  18  19
ENDBRANCH  14  18
ENDBRANCH   1  12
TORSDOF 4
