REMARK VINA RESULT:      -8.4      0.000      0.000
REMARK  3 active torsions:
REMARK  status: ('A' for Active; 'I' for Inactive)
REMARK    1  A    between atoms: C7_9  and  C8_10 
REMARK    2  A    between atoms: C9_13  and  N4_14 
REMARK    3  A    between atoms: N7_23  and  C14_24 
ROOT
HETATM    1  N4  LIG X 999      47.096 131.510  13.995  1.00  0.00    -0.023 NA
HETATM    2  N5  LIG X 999      47.737 130.501  13.701  1.00  0.00    -0.158 NA
HETATM    3  N6  LIG X 999      48.376 129.492  13.407  1.00  0.00     0.068 N 
ENDROOT
BRANCH   1   4
HETATM    4  C9  LIG X 999      45.856 131.409  14.691  1.00  0.00     0.326 A 
HETATM    5  N3  LIG X 999      44.711 131.004  14.117  1.00  0.00    -0.099 NA
HETATM    6  N2  LIG X 999      43.795 131.041  15.073  1.00  0.00    -0.119 NA
HETATM    7  C8  LIG X 999      44.423 131.460  16.191  1.00  0.00     0.205 A 
HETATM    8  O1  LIG X 999      45.692 131.698  15.959  1.00  0.00    -0.252 OA
BRANCH   7   9
HETATM    9  C7  LIG X 999      43.745 131.678  17.485  1.00  0.00     0.032 A 
HETATM   10  C6  LIG X 999      44.340 131.346  18.742  1.00  0.00     0.020 A 
HETATM   11  C1  LIG X 999      45.595 130.570  19.014  1.00  0.00     0.060 A 
HETATM   12  C5  LIG X 999      43.638 131.724  19.873  1.00  0.00     0.019 A 
HETATM   13  N1  LIG X 999      46.258 130.003  18.057  1.00  0.00    -0.299 NA
HETATM   14  C2  LIG X 999      46.024 130.363  20.441  1.00  0.00     0.034 A 
HETATM   15  H1  LIG X 999      47.113 129.431  18.237  1.00  0.00     0.187 HD
HETATM   16  C3  LIG X 999      45.268 130.800  21.468  1.00  0.00     0.033 A 
HETATM   17  C4  LIG X 999      44.012 131.503  21.162  1.00  0.00     0.048 A 
HETATM   18  N7  LIG X 999      43.055 131.975  21.999  1.00  0.00    -0.324 N 
HETATM   19  C13 LIG X 999      42.072 132.471  21.197  1.00  0.00     0.193 A 
HETATM   20  C12 LIG X 999      42.424 132.329  19.866  1.00  0.00     0.032 A 
HETATM   21  O2  LIG X 999      40.882 133.021  21.663  1.00  0.00    -0.171 OA
HETATM   22  C11 LIG X 999      41.786 132.629  18.668  1.00  0.00     0.018 A 
HETATM   23  C10 LIG X 999      42.460 132.301  17.471  1.00  0.00     0.018 A 
BRANCH  18  24
HETATM   24  C14 LIG X 999      43.024 131.868  23.457  1.00  0.00     0.127 C 
HETATM   25  C15 LIG X 999      42.476 130.510  23.876  1.00  0.00     0.027 C 
ENDBRANCH  18  24
ENDBRANCH   7   9
ENDBRANCH   1   4
TORSDOF 3
