REMARK VINA RESULT:      -6.5      1.204      1.520
REMARK  1 active torsions:
REMARK  status: ('A' for Active; 'I' for Inactive)
REMARK    1  A    between atoms: C14_14  and  N1_15 
ROOT
HETATM    1  N1  LIG X 999      42.345 132.034  22.001  1.00  0.00    -0.216 NA
HETATM    2  C15 LIG X 999      42.658 131.606  23.159  1.00  0.00     0.165 C 
HETATM    3  S1  LIG X 999      43.054 131.066  24.625  1.00  0.00    -0.055 SA
ENDROOT
BRANCH   1   4
HETATM    4  C14 LIG X 999      43.127 131.800  20.818  1.00  0.00     0.130 C 
HETATM    5  C13 LIG X 999      44.475 131.427  20.883  1.00  0.00     0.058 C 
HETATM    6  C11 LIG X 999      45.215 131.224  19.709  1.00  0.00    -0.045 C 
HETATM    7  C10 LIG X 999      44.546 131.261  18.445  1.00  0.00     0.008 C 
HETATM    8  C12 LIG X 999      46.712 131.132  19.876  1.00  0.00     0.049 C 
HETATM    9  C4  LIG X 999      45.122 130.861  17.192  1.00  0.00    -0.013 C 
HETATM   10  C9  LIG X 999      43.217 131.775  18.436  1.00  0.00     0.045 C 
HETATM   11  C3  LIG X 999      46.255 130.020  17.088  1.00  0.00     0.013 C 
HETATM   12  C5  LIG X 999      44.471 131.231  15.980  1.00  0.00    -0.025 C 
HETATM   13  C2  LIG X 999      46.810 129.705  15.846  1.00  0.00     0.001 C 
HETATM   14  C1  LIG X 999      46.225 130.179  14.675  1.00  0.00     0.001 C 
HETATM   15  C6  LIG X 999      45.049 130.921  14.738  1.00  0.00     0.012 C 
HETATM   16  C7  LIG X 999      43.223 131.856  16.015  1.00  0.00     0.014 C 
HETATM   17  C8  LIG X 999      42.582 132.073  17.225  1.00  0.00     0.031 C 
HETATM   18  N2  LIG X 999      42.553 132.003  19.605  1.00  0.00    -0.340 N 
HETATM   19  H11 LIG X 999      41.563 132.344  19.581  1.00  0.00     0.167 HD
ENDBRANCH   1   4
TORSDOF 1
