REMARK VINA RESULT:      -7.2      2.359      6.338
REMARK  5 active torsions:
REMARK  status: ('A' for Active; 'I' for Inactive)
REMARK    1  A    between atoms: N1_1  and  C1_2 
REMARK    2  A    between atoms: C1_2  and  C2_3 
REMARK    3  A    between atoms: C2_3  and  C3_4 
REMARK    4  A    between atoms: C3_4  and  O1_5 
REMARK    5  A    between atoms: O1_5  and  C4_6 
ROOT
HETATM    1  C4  LIG X 999      44.878 131.178  17.568  1.00  0.00     0.069 A 
HETATM    2  C5  LIG X 999      45.870 130.537  18.319  1.00  0.00     0.037 A 
HETATM    3  C6  LIG X 999      45.778 130.467  19.712  1.00  0.00     0.015 A 
HETATM    4  C7  LIG X 999      44.686 131.042  20.375  1.00  0.00    -0.026 A 
HETATM    5  C8  LIG X 999      44.582 130.978  21.774  1.00  0.00     0.012 A 
HETATM    6  C9  LIG X 999      43.488 131.555  22.424  1.00  0.00     0.001 A 
HETATM    7  C10 LIG X 999      42.491 132.199  21.685  1.00  0.00     0.001 A 
HETATM    8  C11 LIG X 999      42.582 132.270  20.292  1.00  0.00     0.012 A 
HETATM    9  C12 LIG X 999      43.676 131.693  19.627  1.00  0.00    -0.023 A 
HETATM   10  C13 LIG X 999      43.778 131.759  18.228  1.00  0.00     0.049 A 
ENDROOT
BRANCH   1  11
HETATM   11  O1  LIG X 999      45.024 131.215  16.173  1.00  0.00    -0.351 OA
BRANCH  11  12
HETATM   12  C3  LIG X 999      46.071 131.898  15.488  1.00  0.00     0.177 C 
BRANCH  12  13
HETATM   13  C2  LIG X 999      46.251 131.315  14.084  1.00  0.00     0.054 C 
BRANCH  13  14
HETATM   14  C1  LIG X 999      46.937 129.938  14.076  1.00  0.00     0.231 C 
BRANCH  14  15
HETATM   15  N1  LIG X 999      47.391 129.538  15.410  1.00  0.00    -0.079 N 
HETATM   16  H1  LIG X 999      47.948 130.306  15.853  1.00  0.00     0.274 HD
HETATM   17  H2  LIG X 999      46.556 129.342  16.007  1.00  0.00     0.274 HD
HETATM   18  H3  LIG X 999      47.966 128.668  15.353  1.00  0.00     0.274 HD
ENDBRANCH  14  15
ENDBRANCH  13  14
ENDBRANCH  12  13
ENDBRANCH  11  12
ENDBRANCH   1  11
TORSDOF 5
