REMARK VINA RESULT:      -7.7      3.053      6.534
REMARK  4 active torsions:
REMARK  status: ('A' for Active; 'I' for Inactive)
REMARK    1  A    between atoms: O1_2  and  C1_3 
REMARK    2  A    between atoms: C1_3  and  C14_17 
REMARK    3  A    between atoms: N1_4  and  C2_5 
REMARK    4  A    between atoms: C2_5  and  C3_6 
ROOT
HETATM    1  C3  LIG X 999      44.244 131.516  18.771  1.00  0.00    -0.033 A 
HETATM    2  C4  LIG X 999      43.242 131.915  17.870  1.00  0.00     0.010 A 
HETATM    3  C5  LIG X 999      43.408 131.732  16.495  1.00  0.00     0.013 A 
HETATM    4  C6  LIG X 999      44.576 131.139  15.998  1.00  0.00    -0.026 A 
HETATM    5  C7  LIG X 999      44.752 130.951  14.618  1.00  0.00     0.012 A 
HETATM    6  C8  LIG X 999      45.920 130.355  14.135  1.00  0.00     0.001 A 
HETATM    7  C9  LIG X 999      46.919 129.943  15.022  1.00  0.00     0.001 A 
HETATM    8  C10 LIG X 999      46.756 130.125  16.398  1.00  0.00     0.012 A 
HETATM    9  C11 LIG X 999      45.588 130.723  16.897  1.00  0.00    -0.025 A 
HETATM   10  C12 LIG X 999      45.413 130.910  18.276  1.00  0.00     0.021 A 
ENDROOT
BRANCH   1  11
HETATM   11  C2  LIG X 999      44.042 131.699  20.259  1.00  0.00     0.139 C 
HETATM   12  C13 LIG X 999      42.636 132.244  20.537  1.00  0.00     0.039 C 
BRANCH  11  13
HETATM   13  N1  LIG X 999      44.240 130.419  20.942  1.00  0.00    -0.261 NA
HETATM   14  C1  LIG X 999      44.501 130.292  22.209  1.00  0.00     0.132 C 
BRANCH  14  15
HETATM   15  O1  LIG X 999      44.642 131.417  23.022  1.00  0.00    -0.348 OA
HETATM   16  H1  LIG X 999      44.048 131.559  23.830  1.00  0.00     0.219 HD
ENDBRANCH  14  15
BRANCH  14  17
HETATM   17  C14 LIG X 999      44.690 128.923  22.788  1.00  0.00     0.081 C 
HETATM   18  C15 LIG X 999      43.467 128.511  23.599  1.00  0.00     0.013 C 
ENDBRANCH  14  17
ENDBRANCH  11  13
ENDBRANCH   1  11
TORSDOF 4
