REMARK VINA RESULT:      -5.8      8.561      9.357
REMARK  2 active torsions:
REMARK  status: ('A' for Active; 'I' for Inactive)
REMARK    1  A    between atoms: C10_12  and  N3_13 
REMARK       I    between atoms: N3_13  and  C11_14 
REMARK    2  A    between atoms: C11_14  and  C12_16 
ROOT
HETATM    1  C1  LIG X 999      40.874 123.868  22.354  1.00  0.00     0.272 C 
HETATM    2  N1  LIG X 999      42.100 123.443  23.066  1.00  0.00    -0.067 N 
HETATM    3  C2  LIG X 999      41.713 122.733  24.309  1.00  0.00     0.272 C 
HETATM    4  C3  LIG X 999      42.957 124.626  23.398  1.00  0.00     0.276 C 
HETATM    5  C4  LIG X 999      44.315 124.280  22.925  1.00  0.00    -0.024 A 
HETATM    6  C5  LIG X 999      45.489 125.017  23.085  1.00  0.00     0.021 A 
HETATM    7  C6  LIG X 999      46.682 124.511  22.531  1.00  0.00    -0.024 A 
HETATM    8  C7  LIG X 999      47.888 125.209  22.680  1.00  0.00     0.037 A 
HETATM    9  C8  LIG X 999      49.071 124.703  22.125  1.00  0.00     0.074 A 
HETATM   10  C9  LIG X 999      50.298 125.443  22.299  1.00  0.00     0.102 C 
HETATM   11  N2  LIG X 999      51.281 126.036  22.439  1.00  0.00    -0.191 NA
HETATM   12  C10 LIG X 999      49.058 123.499  21.396  1.00  0.00     0.082 A 
HETATM   13  C13 LIG X 999      47.854 122.783  21.266  1.00  0.00     0.045 A 
HETATM   14  C14 LIG X 999      46.666 123.280  21.819  1.00  0.00    -0.023 A 
HETATM   15  C15 LIG X 999      45.457 122.569  21.677  1.00  0.00     0.021 A 
HETATM   16  C16 LIG X 999      44.299 123.101  22.246  1.00  0.00    -0.024 A 
HETATM   17  C17 LIG X 999      42.930 122.544  22.201  1.00  0.00     0.276 C 
ENDROOT
BRANCH  12  18
HETATM   18  N3  LIG X 999      50.289 122.994  20.852  1.00  0.00    -0.210 NA
HETATM   19  C11 LIG X 999      50.769 123.183  19.515  1.00  0.00     0.276 C 
HETATM   20  O1  LIG X 999      50.272 124.072  18.772  1.00  0.00    -0.268 OA
BRANCH  19  21
HETATM   21  C12 LIG X 999      51.930 122.375  19.031  1.00  0.00     0.272 C 
HETATM   22 CL1  LIG X 999      52.143 122.588  17.275  1.00  0.00    -0.098 Cl
HETATM   23 CL2  LIG X 999      53.414 122.884  19.874  1.00  0.00    -0.098 Cl
ENDBRANCH  19  21
ENDBRANCH  12  18
TORSDOF 2
