REMARK VINA RESULT:      -8.1      2.035      5.543
REMARK  4 active torsions:
REMARK  status: ('A' for Active; 'I' for Inactive)
REMARK    1  A    between atoms: C3_3  and  O1_4 
REMARK    2  A    between atoms: O1_4  and  C4_5 
REMARK    3  A    between atoms: C13_14  and  C14_15 
REMARK    4  A    between atoms: C14_15  and  O2_16 
ROOT
HETATM    1  C1  LIG X 999      44.005 129.620  23.174  1.00  0.00     0.014 C 
HETATM    2  C2  LIG X 999      44.650 129.920  22.201  1.00  0.00    -0.091 C 
HETATM    3  C3  LIG X 999      45.432 130.284  21.020  1.00  0.00     0.268 C 
ENDROOT
BRANCH   3   4
HETATM    4  O1  LIG X 999      44.674 131.183  20.217  1.00  0.00    -0.339 OA
BRANCH   4   5
HETATM    5  C4  LIG X 999      44.679 131.200  18.812  1.00  0.00     0.079 A 
HETATM    6  C5  LIG X 999      45.767 130.700  18.068  1.00  0.00     0.049 A 
HETATM    7  C6  LIG X 999      45.740 130.715  16.667  1.00  0.00    -0.023 A 
HETATM    8  C7  LIG X 999      46.823 130.217  15.924  1.00  0.00     0.012 A 
HETATM    9  C11 LIG X 999      44.609 131.231  15.993  1.00  0.00    -0.025 A 
HETATM   10  C8  LIG X 999      46.782 130.231  14.528  1.00  0.00     0.001 A 
HETATM   11  C9  LIG X 999      45.665 130.741  13.862  1.00  0.00     0.001 A 
HETATM   12  C10 LIG X 999      44.580 131.239  14.589  1.00  0.00     0.012 A 
HETATM   13  C12 LIG X 999      43.528 131.729  16.731  1.00  0.00     0.024 A 
HETATM   14  C13 LIG X 999      43.561 131.730  18.135  1.00  0.00    -0.001 A 
BRANCH  14  15
HETATM   15  C14 LIG X 999      42.376 132.244  18.907  1.00  0.00     0.205 C 
BRANCH  15  16
HETATM   16  O2  LIG X 999      41.523 132.938  18.041  1.00  0.00    -0.396 OA
HETATM   17  H12 LIG X 999      41.179 133.713  18.556  1.00  0.00     0.209 HD
ENDBRANCH  15  16
ENDBRANCH  14  15
ENDBRANCH   4   5
ENDBRANCH   3   4
TORSDOF 4
