MODEL 1
REMARK VINA RESULT:      -8.1      0.000      0.000
REMARK  5 active torsions:
REMARK  status: ('A' for Active; 'I' for Inactive)
REMARK    1  A    between atoms: O1_2  and  S1_3 
REMARK    2  A    between atoms: S1_3  and  C1_4 
REMARK    3  A    between atoms: S1_3  and  C11_14 
REMARK    4  A    between atoms: C11_14  and  C12_15 
REMARK    5  A    between atoms: C12_15  and  N1_16 
ROOT
HETATM    1  N1  LIG X 999      47.472 129.325  14.376  1.00  0.00    -0.115 NA
HETATM    2  N2  LIG X 999      47.569 130.226  13.542  1.00  0.00    -0.168 NA
HETATM    3  N3  LIG X 999      47.667 131.125  12.709  1.00  0.00     0.068 N 
ENDROOT
BRANCH   1   4
HETATM    4  C12 LIG X 999      46.636 129.496  15.556  1.00  0.00     0.201 C 
BRANCH   4   5
HETATM    5  C11 LIG X 999      45.200 129.814  15.146  1.00  0.00     0.121 C 
BRANCH   5   6
HETATM    6  S1  LIG X 999      44.752 131.483  15.597  1.00  0.00    -0.056 S 
BRANCH   6   7
HETATM    7  O1  LIG X 999      46.017 132.559  15.338  1.00  0.00    -0.336 OA
HETATM    8  H1  LIG X 999      46.311 132.828  16.245  1.00  0.00     0.227 HD
ENDBRANCH   6   7
BRANCH   6   9
HETATM    9  C1  LIG X 999      44.151 131.593  17.241  1.00  0.00     0.017 A 
HETATM   10  C2  LIG X 999      42.809 131.913  17.470  1.00  0.00     0.021 A 
HETATM   11  C3  LIG X 999      42.315 131.990  18.775  1.00  0.00     0.013 A 
HETATM   12  C4  LIG X 999      43.163 131.745  19.865  1.00  0.00    -0.026 A 
HETATM   13  C5  LIG X 999      42.678 131.818  21.181  1.00  0.00     0.012 A 
HETATM   14  C9  LIG X 999      44.522 131.418  19.636  1.00  0.00    -0.025 A 
HETATM   15  C6  LIG X 999      43.534 131.569  22.258  1.00  0.00     0.001 A 
HETATM   16  C7  LIG X 999      44.876 131.247  22.032  1.00  0.00     0.001 A 
HETATM   17  C8  LIG X 999      45.371 131.171  20.727  1.00  0.00     0.012 A 
HETATM   18  C10 LIG X 999      45.007 131.344  18.322  1.00  0.00     0.032 A 
ENDBRANCH   6   9
ENDBRANCH   5   6
ENDBRANCH   4   5
ENDBRANCH   1   4
TORSDOF 5
ENDMDL
MODEL 2
REMARK VINA RESULT:      -7.9      0.762      1.819
REMARK  5 active torsions:
REMARK  status: ('A' for Active; 'I' for Inactive)
REMARK    1  A    between atoms: O1_2  and  S1_3 
REMARK    2  A    between atoms: S1_3  and  C1_4 
REMARK    3  A    between atoms: S1_3  and  C11_14 
REMARK    4  A    between atoms: C11_14  and  C12_15 
REMARK    5  A    between atoms: C12_15  and  N1_16 
ROOT
HETATM    1  N1  LIG X 999      47.161 130.009  15.043  1.00  0.00    -0.115 NA
HETATM    2  N2  LIG X 999      47.317 130.479  13.916  1.00  0.00    -0.168 NA
HETATM    3  N3  LIG X 999      47.473 130.949  12.790  1.00  0.00     0.068 N 
ENDROOT
BRANCH   1   4
HETATM    4  C12 LIG X 999      45.949 129.275  15.379  1.00  0.00     0.201 C 
BRANCH   4   5
HETATM    5  C11 LIG X 999      44.717 130.132  15.100  1.00  0.00     0.121 C 
BRANCH   5   6
HETATM    6  S1  LIG X 999      44.770 131.662  16.020  1.00  0.00    -0.056 S 
BRANCH   6   7
HETATM    7  O1  LIG X 999      46.086 132.609  15.578  1.00  0.00    -0.336 OA
HETATM    8  H1  LIG X 999      46.380 133.043  16.418  1.00  0.00     0.227 HD
ENDBRANCH   6   7
BRANCH   6   9
HETATM    9  C1  LIG X 999      44.729 131.401  17.754  1.00  0.00     0.017 A 
HETATM   10  C2  LIG X 999      45.770 130.706  18.377  1.00  0.00     0.021 A 
HETATM   11  C3  LIG X 999      45.755 130.504  19.760  1.00  0.00     0.013 A 
HETATM   12  C4  LIG X 999      44.694 130.999  20.533  1.00  0.00    -0.026 A 
HETATM   13  C5  LIG X 999      44.668 130.803  21.923  1.00  0.00     0.012 A 
HETATM   14  C9  LIG X 999      43.639 131.705  19.905  1.00  0.00    -0.025 A 
HETATM   15  C6  LIG X 999      43.605 131.303  22.682  1.00  0.00     0.001 A 
HETATM   16  C7  LIG X 999      42.564 132.000  22.061  1.00  0.00     0.001 A 
HETATM   17  C8  LIG X 999      42.578 132.202  20.678  1.00  0.00     0.012 A 
HETATM   18  C10 LIG X 999      43.664 131.901  18.515  1.00  0.00     0.032 A 
ENDBRANCH   6   9
ENDBRANCH   5   6
ENDBRANCH   4   5
ENDBRANCH   1   4
TORSDOF 5
ENDMDL
MODEL 3
REMARK VINA RESULT:      -7.9      4.426      6.888
REMARK  5 active torsions:
REMARK  status: ('A' for Active; 'I' for Inactive)
REMARK    1  A    between atoms: O1_2  and  S1_3 
REMARK    2  A    between atoms: S1_3  and  C1_4 
REMARK    3  A    between atoms: S1_3  and  C11_14 
REMARK    4  A    between atoms: C11_14  and  C12_15 
REMARK    5  A    between atoms: C12_15  and  N1_16 
ROOT
HETATM    1  N1  LIG X 999      43.988 131.367  22.076  1.00  0.00    -0.115 NA
HETATM    2  N2  LIG X 999      44.236 130.238  22.499  1.00  0.00    -0.168 NA
HETATM    3  N3  LIG X 999      44.485 129.110  22.921  1.00  0.00     0.068 N 
ENDROOT
BRANCH   1   4
HETATM    4  C12 LIG X 999      43.126 131.551  20.916  1.00  0.00     0.201 C 
BRANCH   4   5
HETATM    5  C11 LIG X 999      43.953 131.971  19.704  1.00  0.00     0.121 C 
BRANCH   5   6
HETATM    6  S1  LIG X 999      44.947 130.618  19.097  1.00  0.00    -0.056 S 
BRANCH   6   7
HETATM    7  O1  LIG X 999      46.207 130.251  20.147  1.00  0.00    -0.336 OA
HETATM    8  H1  LIG X 999      45.841 129.554  20.749  1.00  0.00     0.227 HD
ENDBRANCH   6   7
BRANCH   6   9
HETATM    9  C1  LIG X 999      45.538 130.899  17.469  1.00  0.00     0.017 A 
HETATM   10  C2  LIG X 999      45.273 132.117  16.835  1.00  0.00     0.021 A 
HETATM   11  C3  LIG X 999      45.750 132.358  15.543  1.00  0.00     0.013 A 
HETATM   12  C4  LIG X 999      46.499 131.379  14.875  1.00  0.00    -0.026 A 
HETATM   13  C5  LIG X 999      46.985 131.609  13.578  1.00  0.00     0.012 A 
HETATM   14  C9  LIG X 999      46.771 130.145  15.516  1.00  0.00    -0.025 A 
HETATM   15  C6  LIG X 999      47.733 130.625  12.924  1.00  0.00     0.001 A 
HETATM   16  C7  LIG X 999      48.001 129.408  13.557  1.00  0.00     0.001 A 
HETATM   17  C8  LIG X 999      47.524 129.166  14.848  1.00  0.00     0.012 A 
HETATM   18  C10 LIG X 999      46.287 129.914  16.813  1.00  0.00     0.032 A 
ENDBRANCH   6   9
ENDBRANCH   5   6
ENDBRANCH   4   5
ENDBRANCH   1   4
TORSDOF 5
ENDMDL
MODEL 4
REMARK VINA RESULT:      -7.3      4.618      6.659
REMARK  5 active torsions:
REMARK  status: ('A' for Active; 'I' for Inactive)
REMARK    1  A    between atoms: O1_2  and  S1_3 
REMARK    2  A    between atoms: S1_3  and  C1_4 
REMARK    3  A    between atoms: S1_3  and  C11_14 
REMARK    4  A    between atoms: C11_14  and  C12_15 
REMARK    5  A    between atoms: C12_15  and  N1_16 
ROOT
HETATM    1  N1  LIG X 999      44.201 131.229  22.876  1.00  0.00    -0.115 NA
HETATM    2  N2  LIG X 999      44.368 130.009  22.838  1.00  0.00    -0.168 NA
HETATM    3  N3  LIG X 999      44.535 128.792  22.800  1.00  0.00     0.068 N 
ENDROOT
BRANCH   1   4
HETATM    4  C12 LIG X 999      43.034 131.837  22.252  1.00  0.00     0.201 C 
BRANCH   4   5
HETATM    5  C11 LIG X 999      42.739 131.166  20.913  1.00  0.00     0.121 C 
BRANCH   5   6
HETATM    6  S1  LIG X 999      43.063 132.273  19.550  1.00  0.00    -0.056 S 
BRANCH   6   7
HETATM    7  O1  LIG X 999      41.643 132.771  18.801  1.00  0.00    -0.336 OA
HETATM    8  H1  LIG X 999      41.336 131.981  18.288  1.00  0.00     0.227 HD
ENDBRANCH   6   7
BRANCH   6   9
HETATM    9  C1  LIG X 999      44.189 131.592  18.389  1.00  0.00     0.017 A 
HETATM   10  C2  LIG X 999      45.260 130.812  18.836  1.00  0.00     0.021 A 
HETATM   11  C3  LIG X 999      46.156 130.253  17.919  1.00  0.00     0.013 A 
HETATM   12  C4  LIG X 999      45.985 130.471  16.545  1.00  0.00    -0.026 A 
HETATM   13  C5  LIG X 999      46.877 129.915  15.614  1.00  0.00     0.012 A 
HETATM   14  C9  LIG X 999      44.900 131.260  16.089  1.00  0.00    -0.025 A 
HETATM   15  C6  LIG X 999      46.694 130.139  14.246  1.00  0.00     0.001 A 
HETATM   16  C7  LIG X 999      45.623 130.917  13.797  1.00  0.00     0.001 A 
HETATM   17  C8  LIG X 999      44.727 131.477  14.713  1.00  0.00     0.012 A 
HETATM   18  C10 LIG X 999      44.007 131.816  17.018  1.00  0.00     0.032 A 
ENDBRANCH   6   9
ENDBRANCH   5   6
ENDBRANCH   4   5
ENDBRANCH   1   4
TORSDOF 5
ENDMDL
MODEL 5
REMARK VINA RESULT:      -7.2      1.463      1.660
REMARK  5 active torsions:
REMARK  status: ('A' for Active; 'I' for Inactive)
REMARK    1  A    between atoms: O1_2  and  S1_3 
REMARK    2  A    between atoms: S1_3  and  C1_4 
REMARK    3  A    between atoms: S1_3  and  C11_14 
REMARK    4  A    between atoms: C11_14  and  C12_15 
REMARK    5  A    between atoms: C12_15  and  N1_16 
ROOT
HETATM    1  N1  LIG X 999      46.498 131.210  14.593  1.00  0.00    -0.115 NA
HETATM    2  N2  LIG X 999      47.235 131.125  13.610  1.00  0.00    -0.168 NA
HETATM    3  N3  LIG X 999      47.972 131.041  12.629  1.00  0.00     0.068 N 
ENDROOT
BRANCH   1   4
HETATM    4  C12 LIG X 999      45.058 131.356  14.428  1.00  0.00     0.201 C 
BRANCH   4   5
HETATM    5  C11 LIG X 999      44.337 130.989  15.722  1.00  0.00     0.121 C 
BRANCH   5   6
HETATM    6  S1  LIG X 999      45.380 131.266  17.145  1.00  0.00    -0.056 S 
BRANCH   6   7
HETATM    7  O1  LIG X 999      46.512 130.038  17.336  1.00  0.00    -0.336 OA
HETATM    8  H1  LIG X 999      47.098 130.346  18.073  1.00  0.00     0.227 HD
ENDBRANCH   6   7
BRANCH   6   9
HETATM    9  C1  LIG X 999      44.454 131.511  18.615  1.00  0.00     0.017 A 
HETATM   10  C2  LIG X 999      43.129 131.952  18.536  1.00  0.00     0.021 A 
HETATM   11  C3  LIG X 999      42.377 132.137  19.700  1.00  0.00     0.013 A 
HETATM   12  C4  LIG X 999      42.947 131.881  20.955  1.00  0.00    -0.026 A 
HETATM   13  C5  LIG X 999      42.202 132.063  22.131  1.00  0.00     0.012 A 
HETATM   14  C9  LIG X 999      44.288 131.433  21.038  1.00  0.00    -0.025 A 
HETATM   15  C6  LIG X 999      42.782 131.802  23.376  1.00  0.00     0.001 A 
HETATM   16  C7  LIG X 999      44.106 131.359  23.458  1.00  0.00     0.001 A 
HETATM   17  C8  LIG X 999      44.859 131.174  22.295  1.00  0.00     0.012 A 
HETATM   18  C10 LIG X 999      45.034 131.250  19.863  1.00  0.00     0.032 A 
ENDBRANCH   6   9
ENDBRANCH   5   6
ENDBRANCH   4   5
ENDBRANCH   1   4
TORSDOF 5
ENDMDL
MODEL 6
REMARK VINA RESULT:      -7.2      4.691      6.623
REMARK  5 active torsions:
REMARK  status: ('A' for Active; 'I' for Inactive)
REMARK    1  A    between atoms: O1_2  and  S1_3 
REMARK    2  A    between atoms: S1_3  and  C1_4 
REMARK    3  A    between atoms: S1_3  and  C11_14 
REMARK    4  A    between atoms: C11_14  and  C12_15 
REMARK    5  A    between atoms: C12_15  and  N1_16 
ROOT
HETATM    1  N1  LIG X 999      44.424 129.958  22.916  1.00  0.00    -0.115 NA
HETATM    2  N2  LIG X 999      44.474 128.747  23.137  1.00  0.00    -0.168 NA
HETATM    3  N3  LIG X 999      44.524 127.539  23.356  1.00  0.00     0.068 N 
ENDROOT
BRANCH   1   4
HETATM    4  C12 LIG X 999      43.174 130.586  22.512  1.00  0.00     0.201 C 
BRANCH   4   5
HETATM    5  C11 LIG X 999      43.375 131.389  21.230  1.00  0.00     0.121 C 
BRANCH   5   6
HETATM    6  S1  LIG X 999      44.953 131.023  20.477  1.00  0.00    -0.056 S 
BRANCH   6   7
HETATM    7  O1  LIG X 999      46.174 132.009  21.077  1.00  0.00    -0.336 OA
HETATM    8  H1  LIG X 999      46.971 131.784  20.534  1.00  0.00     0.227 HD
ENDBRANCH   6   7
BRANCH   6   9
HETATM    9  C1  LIG X 999      44.888 131.085  18.725  1.00  0.00     0.017 A 
HETATM   10  C2  LIG X 999      43.802 131.696  18.091  1.00  0.00     0.021 A 
HETATM   11  C3  LIG X 999      43.747 131.764  16.696  1.00  0.00     0.013 A 
HETATM   12  C4  LIG X 999      44.782 131.220  15.922  1.00  0.00    -0.026 A 
HETATM   13  C5  LIG X 999      44.738 131.282  14.520  1.00  0.00     0.012 A 
HETATM   14  C9  LIG X 999      45.885 130.602  16.562  1.00  0.00    -0.025 A 
HETATM   15  C6  LIG X 999      45.778 130.738  13.761  1.00  0.00     0.001 A 
HETATM   16  C7  LIG X 999      46.867 130.128  14.393  1.00  0.00     0.001 A 
HETATM   17  C8  LIG X 999      46.923 130.059  15.788  1.00  0.00     0.012 A 
HETATM   18  C10 LIG X 999      45.930 130.539  17.963  1.00  0.00     0.032 A 
ENDBRANCH   6   9
ENDBRANCH   5   6
ENDBRANCH   4   5
ENDBRANCH   1   4
TORSDOF 5
ENDMDL
MODEL 7
REMARK VINA RESULT:      -7.2      4.555      7.125
REMARK  5 active torsions:
REMARK  status: ('A' for Active; 'I' for Inactive)
REMARK    1  A    between atoms: O1_2  and  S1_3 
REMARK    2  A    between atoms: S1_3  and  C1_4 
REMARK    3  A    between atoms: S1_3  and  C11_14 
REMARK    4  A    between atoms: C11_14  and  C12_15 
REMARK    5  A    between atoms: C12_15  and  N1_16 
ROOT
HETATM    1  N1  LIG X 999      43.696 130.861  21.985  1.00  0.00    -0.115 NA
HETATM    2  N2  LIG X 999      43.932 131.212  23.142  1.00  0.00    -0.168 NA
HETATM    3  N3  LIG X 999      44.166 131.562  24.297  1.00  0.00     0.068 N 
ENDROOT
BRANCH   1   4
HETATM    4  C12 LIG X 999      43.562 131.849  20.924  1.00  0.00     0.201 C 
BRANCH   4   5
HETATM    5  C11 LIG X 999      44.786 131.816  20.013  1.00  0.00     0.121 C 
BRANCH   5   6
HETATM    6  S1  LIG X 999      44.348 132.206  18.326  1.00  0.00    -0.056 S 
BRANCH   6   7
HETATM    7  O1  LIG X 999      42.708 131.980  18.040  1.00  0.00    -0.336 OA
HETATM    8  H1  LIG X 999      42.410 132.815  17.598  1.00  0.00     0.227 HD
ENDBRANCH   6   7
BRANCH   6   9
HETATM    9  C1  LIG X 999      45.324 131.327  17.162  1.00  0.00     0.017 A 
HETATM   10  C2  LIG X 999      45.661 129.992  17.406  1.00  0.00     0.021 A 
HETATM   11  C3  LIG X 999      46.426 129.278  16.479  1.00  0.00     0.013 A 
HETATM   12  C4  LIG X 999      46.860 129.896  15.297  1.00  0.00    -0.026 A 
HETATM   13  C5  LIG X 999      47.628 129.189  14.358  1.00  0.00     0.012 A 
HETATM   14  C9  LIG X 999      46.518 131.248  15.047  1.00  0.00    -0.025 A 
HETATM   15  C6  LIG X 999      48.052 129.817  13.184  1.00  0.00     0.001 A 
HETATM   16  C7  LIG X 999      47.714 131.151  12.937  1.00  0.00     0.001 A 
HETATM   17  C8  LIG X 999      46.950 131.866  13.863  1.00  0.00     0.012 A 
HETATM   18  C10 LIG X 999      45.750 131.955  15.985  1.00  0.00     0.032 A 
ENDBRANCH   6   9
ENDBRANCH   5   6
ENDBRANCH   4   5
ENDBRANCH   1   4
TORSDOF 5
ENDMDL
MODEL 8
REMARK VINA RESULT:      -6.9      5.120      6.956
REMARK  5 active torsions:
REMARK  status: ('A' for Active; 'I' for Inactive)
REMARK    1  A    between atoms: O1_2  and  S1_3 
REMARK    2  A    between atoms: S1_3  and  C1_4 
REMARK    3  A    between atoms: S1_3  and  C11_14 
REMARK    4  A    between atoms: C11_14  and  C12_15 
REMARK    5  A    between atoms: C12_15  and  N1_16 
ROOT
HETATM    1  N1  LIG X 999      42.835 131.811  23.361  1.00  0.00    -0.115 NA
HETATM    2  N2  LIG X 999      42.469 130.770  23.907  1.00  0.00    -0.168 NA
HETATM    3  N3  LIG X 999      42.104 129.730  24.452  1.00  0.00     0.068 N 
ENDROOT
BRANCH   1   4
HETATM    4  C12 LIG X 999      43.272 131.805  21.972  1.00  0.00     0.201 C 
BRANCH   4   5
HETATM    5  C11 LIG X 999      44.040 130.523  21.663  1.00  0.00     0.121 C 
BRANCH   5   6
HETATM    6  S1  LIG X 999      45.503 130.860  20.696  1.00  0.00    -0.056 S 
BRANCH   6   7
HETATM    7  O1  LIG X 999      46.332 132.205  21.269  1.00  0.00    -0.336 OA
HETATM    8  H1  LIG X 999      47.280 132.037  21.037  1.00  0.00     0.227 HD
ENDBRANCH   6   7
BRANCH   6   9
HETATM    9  C1  LIG X 999      45.153 131.011  18.984  1.00  0.00     0.017 A 
HETATM   10  C2  LIG X 999      43.989 131.666  18.568  1.00  0.00     0.021 A 
HETATM   11  C3  LIG X 999      43.707 131.804  17.206  1.00  0.00     0.013 A 
HETATM   12  C4  LIG X 999      44.590 131.287  16.247  1.00  0.00    -0.026 A 
HETATM   13  C5  LIG X 999      44.317 131.420  14.876  1.00  0.00     0.012 A 
HETATM   14  C9  LIG X 999      45.770 130.624  16.666  1.00  0.00    -0.025 A 
HETATM   15  C6  LIG X 999      45.207 130.901  13.931  1.00  0.00     0.001 A 
HETATM   16  C7  LIG X 999      46.372 130.248  14.344  1.00  0.00     0.001 A 
HETATM   17  C8  LIG X 999      46.655 130.108  15.706  1.00  0.00     0.012 A 
HETATM   18  C10 LIG X 999      46.043 130.491  18.036  1.00  0.00     0.032 A 
ENDBRANCH   6   9
ENDBRANCH   5   6
ENDBRANCH   4   5
ENDBRANCH   1   4
TORSDOF 5
ENDMDL
MODEL 9
REMARK VINA RESULT:      -6.4      1.757      2.624
REMARK  5 active torsions:
REMARK  status: ('A' for Active; 'I' for Inactive)
REMARK    1  A    between atoms: O1_2  and  S1_3 
REMARK    2  A    between atoms: S1_3  and  C1_4 
REMARK    3  A    between atoms: S1_3  and  C11_14 
REMARK    4  A    between atoms: C11_14  and  C12_15 
REMARK    5  A    between atoms: C12_15  and  N1_16 
ROOT
HETATM    1  N1  LIG X 999      45.513 130.998  14.186  1.00  0.00    -0.115 NA
HETATM    2  N2  LIG X 999      44.320 131.214  13.974  1.00  0.00    -0.168 NA
HETATM    3  N3  LIG X 999      43.128 131.430  13.763  1.00  0.00     0.068 N 
ENDROOT
BRANCH   1   4
HETATM    4  C12 LIG X 999      45.946 129.735  14.767  1.00  0.00     0.201 C 
BRANCH   4   5
HETATM    5  C11 LIG X 999      46.069 129.864  16.283  1.00  0.00     0.121 C 
BRANCH   5   6
HETATM    6  S1  LIG X 999      45.102 131.235  16.897  1.00  0.00    -0.056 S 
BRANCH   6   7
HETATM    7  O1  LIG X 999      45.744 132.713  16.419  1.00  0.00    -0.336 OA
HETATM    8  H1  LIG X 999      46.661 132.724  16.793  1.00  0.00     0.227 HD
ENDBRANCH   6   7
BRANCH   6   9
HETATM    9  C1  LIG X 999      44.879 131.171  18.636  1.00  0.00     0.017 A 
HETATM   10  C2  LIG X 999      45.865 130.591  19.441  1.00  0.00     0.021 A 
HETATM   11  C3  LIG X 999      45.704 130.547  20.829  1.00  0.00     0.013 A 
HETATM   12  C4  LIG X 999      44.553 131.085  21.423  1.00  0.00    -0.026 A 
HETATM   13  C5  LIG X 999      44.380 131.047  22.816  1.00  0.00     0.012 A 
HETATM   14  C9  LIG X 999      43.554 131.674  20.609  1.00  0.00    -0.025 A 
HETATM   15  C6  LIG X 999      43.229 131.588  23.395  1.00  0.00     0.001 A 
HETATM   16  C7  LIG X 999      42.243 132.170  22.591  1.00  0.00     0.001 A 
HETATM   17  C8  LIG X 999      42.402 132.214  21.204  1.00  0.00     0.012 A 
HETATM   18  C10 LIG X 999      43.725 131.712  19.217  1.00  0.00     0.032 A 
ENDBRANCH   6   9
ENDBRANCH   5   6
ENDBRANCH   4   5
ENDBRANCH   1   4
TORSDOF 5
ENDMDL
