REMARK VINA RESULT:      -6.1      2.714      5.082
REMARK  1 active torsions:
REMARK  status: ('A' for Active; 'I' for Inactive)
REMARK    1  A    between atoms: C2_5  and  C3_6 
ROOT
HETATM    1  C3  LIG X 999      44.863 131.174  17.030  1.00  0.00     0.030 A 
HETATM    2  C4  LIG X 999      43.623 131.787  16.785  1.00  0.00     0.017 A 
HETATM    3  C5  LIG X 999      43.159 131.971  15.485  1.00  0.00     0.002 A 
HETATM    4  C6  LIG X 999      43.923 131.554  14.399  1.00  0.00     0.012 A 
HETATM    5  C7  LIG X 999      45.180 130.969  14.605  1.00  0.00    -0.025 A 
HETATM    6  C8  LIG X 999      45.956 130.579  13.501  1.00  0.00     0.012 A 
HETATM    7  C9  LIG X 999      47.225 130.035  13.689  1.00  0.00     0.001 A 
HETATM    8  C10 LIG X 999      47.738 129.887  14.977  1.00  0.00     0.001 A 
HETATM    9  C11 LIG X 999      46.979 130.266  16.087  1.00  0.00     0.013 A 
HETATM   10  C12 LIG X 999      45.676 130.787  15.926  1.00  0.00    -0.011 A 
ENDROOT
BRANCH   1  11
HETATM   11  C2  LIG X 999      45.235 130.939  18.444  1.00  0.00     0.203 A 
HETATM   12  O1  LIG X 999      44.854 131.714  19.440  1.00  0.00    -0.255 OA
HETATM   13  C1  LIG X 999      45.346 131.143  20.510  1.00  0.00     0.262 A 
HETATM   14  N1  LIG X 999      45.198 131.602  21.710  1.00  0.00    -0.260 NA
HETATM   15  N3  LIG X 999      46.020 130.024  20.203  1.00  0.00    -0.238 N 
HETATM   16  H1  LIG X 999      45.610 131.109  22.532  1.00  0.00     0.190 HD
HETATM   17  N2  LIG X 999      45.950 129.882  18.891  1.00  0.00    -0.145 NA
HETATM   18  H9  LIG X 999      46.510 129.370  20.855  1.00  0.00     0.193 HD
ENDBRANCH   1  11
TORSDOF 1
