REMARK VINA RESULT:      -5.7      2.482      3.917
REMARK  4 active torsions:
REMARK  status: ('A' for Active; 'I' for Inactive)
REMARK    1  A    between atoms: C2_2  and  C3_3 
REMARK    2  A    between atoms: C3_3  and  C5_5 
REMARK       I    between atoms: C5_5  and  N1_7 
REMARK    3  A    between atoms: N1_7  and  C6_8 
REMARK    4  A    between atoms: C7_9  and  O2_10 
ROOT
HETATM    1  C6  LIG X 999      44.299 131.017  20.898  1.00  0.00     0.104 A 
HETATM    2  C7  LIG X 999      43.275 131.878  21.350  1.00  0.00     0.098 A 
HETATM    3  C9  LIG X 999      42.604 131.588  22.552  1.00  0.00     0.040 A 
HETATM    4  C10 LIG X 999      42.917 130.442  23.282  1.00  0.00     0.015 A 
HETATM    5  C11 LIG X 999      43.899 129.558  22.823  1.00  0.00    -0.024 A 
HETATM    6  C12 LIG X 999      44.199 128.395  23.551  1.00  0.00     0.012 A 
HETATM    7  C13 LIG X 999      45.179 127.512  23.093  1.00  0.00     0.001 A 
HETATM    8  C14 LIG X 999      45.867 127.781  21.910  1.00  0.00     0.001 A 
HETATM    9  C15 LIG X 999      45.582 128.935  21.176  1.00  0.00     0.014 A 
HETATM   10  C16 LIG X 999      44.594 129.838  21.619  1.00  0.00     0.006 A 
ENDROOT
BRANCH   1  11
HETATM   11  N1  LIG X 999      45.001 131.292  19.675  1.00  0.00    -0.210 NA
HETATM   12  C5  LIG X 999      44.414 131.306  18.367  1.00  0.00     0.247 C 
HETATM   13  O1  LIG X 999      43.161 131.297  18.231  1.00  0.00    -0.271 OA
BRANCH  12  14
HETATM   14  C3  LIG X 999      45.295 131.404  17.150  1.00  0.00     0.076 C 
HETATM   15  C4  LIG X 999      46.137 130.131  17.018  1.00  0.00     0.020 C 
BRANCH  14  16
HETATM   16  C2  LIG X 999      44.468 131.644  15.871  1.00  0.00     0.009 C 
HETATM   17  C1  LIG X 999      45.248 131.301  14.602  1.00  0.00     0.006 C 
ENDBRANCH  14  16
ENDBRANCH  12  14
ENDBRANCH   1  11
BRANCH   2  18
HETATM   18  O2  LIG X 999      42.928 132.992  20.568  1.00  0.00    -0.354 OA
HETATM   19  C8  LIG X 999      41.596 133.354  20.214  1.00  0.00     0.210 C 
ENDBRANCH   2  18
TORSDOF 4
