REMARK VINA RESULT:      -8.8      1.853      6.495
REMARK  3 active torsions:
REMARK  status: ('A' for Active; 'I' for Inactive)
REMARK    1  A    between atoms: C3_3  and  O1_4 
REMARK    2  A    between atoms: O1_4  and  C4_5 
REMARK    3  A    between atoms: C5_7  and  C6_8 
ROOT
HETATM    1  C1  LIG X 999      41.616 132.166  19.007  1.00  0.00     0.014 C 
HETATM    2  C2  LIG X 999      42.716 132.184  19.500  1.00  0.00    -0.091 C 
HETATM    3  C3  LIG X 999      44.053 132.205  20.097  1.00  0.00     0.270 C 
ENDROOT
BRANCH   3   4
HETATM    4  O1  LIG X 999      45.009 131.844  19.110  1.00  0.00    -0.317 OA
BRANCH   4   5
HETATM    5  C4  LIG X 999      45.634 130.594  19.093  1.00  0.00     0.217 C 
HETATM    6  O2  LIG X 999      46.027 129.992  20.284  1.00  0.00    -0.164 OA
HETATM    7  C5  LIG X 999      45.850 129.960  17.938  1.00  0.00     0.079 C 
BRANCH   7   8
HETATM    8  C6  LIG X 999      45.421 130.513  16.634  1.00  0.00    -0.020 A 
HETATM    9  C7  LIG X 999      44.170 131.148  16.581  1.00  0.00     0.012 A 
HETATM   10  C8  LIG X 999      43.719 131.736  15.400  1.00  0.00     0.002 A 
HETATM   11  C9  LIG X 999      44.502 131.693  14.248  1.00  0.00     0.012 A 
HETATM   12  C10 LIG X 999      45.740 131.036  14.260  1.00  0.00    -0.025 A 
HETATM   13  C11 LIG X 999      46.512 130.973  13.089  1.00  0.00     0.012 A 
HETATM   14  C15 LIG X 999      46.208 130.423  15.455  1.00  0.00    -0.015 A 
HETATM   15  C12 LIG X 999      47.731 130.293  13.086  1.00  0.00     0.001 A 
HETATM   16  C13 LIG X 999      48.184 129.661  14.244  1.00  0.00     0.001 A 
HETATM   17  C14 LIG X 999      47.429 129.715  15.418  1.00  0.00     0.013 A 
ENDBRANCH   7   8
ENDBRANCH   4   5
ENDBRANCH   3   4
TORSDOF 3
