REMARK VINA RESULT:      -7.2      1.952      3.277
REMARK  4 active torsions:
REMARK  status: ('A' for Active; 'I' for Inactive)
REMARK    1  A    between atoms: C1_2  and  C2_4 
REMARK    2  A    between atoms: C8_10  and  C9_11 
REMARK       I    between atoms: C9_11  and  N1_13 
REMARK    3  A    between atoms: N1_13  and  S1_14 
REMARK    4  A    between atoms: S1_14  and  C10_17 
ROOT
HETATM    1  C9  LIG X 999      44.404 131.092  21.698  1.00  0.00     0.259 C 
HETATM    2  O3  LIG X 999      45.211 132.052  21.572  1.00  0.00    -0.270 OA
HETATM    3  N1  LIG X 999      43.286 130.976  20.817  1.00  0.00    -0.122 NA
ENDROOT
BRANCH   3   4
HETATM    4  S1  LIG X 999      43.125 131.960  19.402  1.00  0.00     0.286 S 
HETATM    5  O4  LIG X 999      41.714 131.871  18.893  1.00  0.00    -0.198 OA
HETATM    6  O5  LIG X 999      43.422 133.394  19.741  1.00  0.00    -0.198 OA
BRANCH   4   7
HETATM    7  C10 LIG X 999      44.232 131.367  18.168  1.00  0.00     0.082 A 
HETATM    8  C11 LIG X 999      45.388 130.672  18.546  1.00  0.00     0.026 A 
HETATM    9  C12 LIG X 999      46.304 130.247  17.580  1.00  0.00     0.014 A 
HETATM   10  C13 LIG X 999      46.076 130.519  16.224  1.00  0.00    -0.026 A 
HETATM   11  C14 LIG X 999      46.992 130.103  15.246  1.00  0.00     0.012 A 
HETATM   12  C18 LIG X 999      44.911 131.225  15.838  1.00  0.00    -0.025 A 
HETATM   13  C15 LIG X 999      46.756 130.386  13.897  1.00  0.00     0.001 A 
HETATM   14  C16 LIG X 999      45.607 131.084  13.516  1.00  0.00     0.001 A 
HETATM   15  C17 LIG X 999      44.686 131.504  14.480  1.00  0.00     0.012 A 
HETATM   16  C19 LIG X 999      43.996 131.645  16.816  1.00  0.00     0.037 A 
ENDBRANCH   4   7
ENDBRANCH   3   4
BRANCH   1  17
HETATM   17  C8  LIG X 999      44.639 130.012  22.730  1.00  0.00     0.099 C 
HETATM   18  C2  LIG X 999      44.013 130.301  24.130  1.00  0.00     0.104 C 
HETATM   19  C3  LIG X 999      43.089 129.074  24.342  1.00  0.00     0.001 C 
HETATM   20  C4  LIG X 999      43.972 127.842  24.620  1.00  0.00     0.006 C 
HETATM   21  C7  LIG X 999      42.603 128.775  22.940  1.00  0.00     0.011 C 
HETATM   22  C5  LIG X 999      44.601 127.555  23.245  1.00  0.00     0.006 C 
HETATM   23  C6  LIG X 999      43.992 128.655  22.352  1.00  0.00    -0.000 C 
BRANCH  18  24
HETATM   24  C1  LIG X 999      43.277 131.618  24.256  1.00  0.00     0.178 C 
HETATM   25  O1  LIG X 999      42.044 131.704  24.009  1.00  0.00    -0.648 OA
HETATM   26  O2  LIG X 999      43.982 132.764  24.603  1.00  0.00    -0.648 OA
ENDBRANCH  18  24
ENDBRANCH   1  17
TORSDOF 4
