REMARK VINA RESULT:      -7.2      1.286      1.973
REMARK  1 active torsions:
REMARK  status: ('A' for Active; 'I' for Inactive)
REMARK    1  A    between atoms: N1_1  and  C1_2 
ROOT
HETATM    1  C1  LIG X 999      43.571 131.714  17.976  1.00  0.00     0.026 A 
HETATM    2  C2  LIG X 999      44.629 131.129  18.684  1.00  0.00     0.030 A 
HETATM    3  C3  LIG X 999      45.727 130.595  18.006  1.00  0.00     0.014 A 
HETATM    4  C4  LIG X 999      45.782 130.642  16.605  1.00  0.00    -0.026 A 
HETATM    5  C5  LIG X 999      46.880 130.110  15.912  1.00  0.00     0.012 A 
HETATM    6  C6  LIG X 999      46.921 130.162  14.516  1.00  0.00     0.001 A 
HETATM    7  C7  LIG X 999      45.870 130.744  13.803  1.00  0.00     0.001 A 
HETATM    8  C8  LIG X 999      44.769 131.279  14.481  1.00  0.00     0.012 A 
HETATM    9  C9  LIG X 999      44.716 131.232  15.882  1.00  0.00    -0.024 A 
HETATM   10  C10 LIG X 999      43.617 131.765  16.574  1.00  0.00     0.041 A 
ENDROOT
BRANCH   1  11
HETATM   11  N1  LIG X 999      42.450 132.258  18.677  1.00  0.00    -0.399 N 
HETATM   12  H1  LIG X 999      42.512 133.191  19.141  1.00  0.00     0.156 HD
HETATM   13  H2  LIG X 999      41.550 131.732  18.736  1.00  0.00     0.156 HD
ENDBRANCH   1  11
TORSDOF 1
