REMARK VINA RESULT:      -8.2      1.091      2.905
REMARK  2 active torsions:
REMARK  status: ('A' for Active; 'I' for Inactive)
REMARK    1  A    between atoms: N1_1  and  C1_2 
REMARK    2  A    between atoms: C2_5  and  C3_6 
ROOT
HETATM    1  C3  LIG X 999      45.320 130.829  18.348  1.00  0.00     0.028 A 
HETATM    2  C4  LIG X 999      46.232 130.471  19.356  1.00  0.00     0.017 A 
HETATM    3  C5  LIG X 999      45.961 130.741  20.697  1.00  0.00     0.002 A 
HETATM    4  C6  LIG X 999      44.775 131.374  21.059  1.00  0.00     0.012 A 
HETATM    5  C7  LIG X 999      43.835 131.727  20.083  1.00  0.00    -0.025 A 
HETATM    6  C8  LIG X 999      42.634 132.346  20.463  1.00  0.00     0.012 A 
HETATM    7  C9  LIG X 999      41.676 132.673  19.504  1.00  0.00     0.001 A 
HETATM    8  C10 LIG X 999      41.901 132.375  18.161  1.00  0.00     0.001 A 
HETATM    9  C11 LIG X 999      43.091 131.761  17.764  1.00  0.00     0.013 A 
HETATM   10  C12 LIG X 999      44.091 131.446  18.712  1.00  0.00    -0.011 A 
ENDROOT
BRANCH   1  11
HETATM   11  C2  LIG X 999      45.712 130.579  16.940  1.00  0.00     0.178 A 
HETATM   12  N3  LIG X 999      45.717 129.369  16.348  1.00  0.00    -0.252 N 
HETATM   13  N2  LIG X 999      46.148 129.527  15.108  1.00  0.00    -0.128 NA
HETATM   14  H3  LIG X 999      45.428 128.456  16.763  1.00  0.00     0.191 HD
HETATM   15  C1  LIG X 999      46.397 130.846  14.993  1.00  0.00     0.263 A 
HETATM   16  O1  LIG X 999      46.138 131.498  16.103  1.00  0.00    -0.258 OA
BRANCH  15  17
HETATM   17  N1  LIG X 999      46.885 131.459  13.804  1.00  0.00    -0.362 N 
HETATM   18  H1  LIG X 999      46.313 131.449  12.932  1.00  0.00     0.159 HD
HETATM   19  H2  LIG X 999      47.820 131.925  13.801  1.00  0.00     0.159 HD
ENDBRANCH  15  17
ENDBRANCH   1  11
TORSDOF 2
