MODEL 1
REMARK VINA RESULT:      -8.1      0.000      0.000
REMARK  1 active torsions:
REMARK  status: ('A' for Active; 'I' for Inactive)
REMARK    1  A    between atoms: C9_10  and  N2_11 
ROOT
HETATM    1  C1  LIG X 999      46.188 131.564  14.829  1.00  0.00     0.272 C 
HETATM    2  N1  LIG X 999      45.412 130.761  15.803  1.00  0.00    -0.067 N 
HETATM    3  C2  LIG X 999      44.987 129.497  15.154  1.00  0.00     0.272 C 
HETATM    4  C3  LIG X 999      44.212 131.522  16.278  1.00  0.00     0.276 C 
HETATM    5  C4  LIG X 999      44.239 131.424  17.753  1.00  0.00    -0.024 A 
HETATM    6  C5  LIG X 999      43.280 131.882  18.659  1.00  0.00     0.021 A 
HETATM    7  C6  LIG X 999      43.516 131.706  20.036  1.00  0.00    -0.025 A 
HETATM    8  C7  LIG X 999      42.580 132.146  20.983  1.00  0.00     0.014 A 
HETATM    9  C8  LIG X 999      42.824 131.969  22.348  1.00  0.00     0.030 A 
HETATM   10  C9  LIG X 999      44.004 131.351  22.785  1.00  0.00     0.026 A 
HETATM   11  C10 LIG X 999      44.947 130.906  21.848  1.00  0.00     0.041 A 
HETATM   12  C11 LIG X 999      44.716 131.077  20.475  1.00  0.00    -0.023 A 
HETATM   13  C12 LIG X 999      45.661 130.636  19.528  1.00  0.00     0.021 A 
HETATM   14  C13 LIG X 999      45.387 130.822  18.173  1.00  0.00    -0.024 A 
HETATM   15  C14 LIG X 999      46.236 130.463  17.017  1.00  0.00     0.276 C 
ENDROOT
BRANCH  10  16
HETATM   16  N2  LIG X 999      44.244 131.175  24.184  1.00  0.00    -0.399 N 
HETATM   17  H12 LIG X 999      44.406 131.997  24.807  1.00  0.00     0.156 HD
HETATM   18  H13 LIG X 999      44.261 130.220  24.607  1.00  0.00     0.156 HD
ENDBRANCH  10  16
TORSDOF 1
ENDMDL
MODEL 2
REMARK VINA RESULT:      -7.8      0.732      2.156
REMARK  1 active torsions:
REMARK  status: ('A' for Active; 'I' for Inactive)
REMARK    1  A    between atoms: C9_10  and  N2_11 
ROOT
HETATM    1  C1  LIG X 999      45.245 129.942  14.776  1.00  0.00     0.272 C 
HETATM    2  N1  LIG X 999      45.407 130.975  15.825  1.00  0.00    -0.067 N 
HETATM    3  C2  LIG X 999      46.164 132.119  15.261  1.00  0.00     0.272 C 
HETATM    4  C3  LIG X 999      46.131 130.416  17.011  1.00  0.00     0.276 C 
HETATM    5  C4  LIG X 999      45.320 130.795  18.187  1.00  0.00    -0.024 A 
HETATM    6  C5  LIG X 999      45.622 130.595  19.536  1.00  0.00     0.021 A 
HETATM    7  C6  LIG X 999      44.690 131.016  20.504  1.00  0.00    -0.025 A 
HETATM    8  C7  LIG X 999      44.951 130.840  21.871  1.00  0.00     0.014 A 
HETATM    9  C8  LIG X 999      44.020 131.258  22.824  1.00  0.00     0.030 A 
HETATM   10  C9  LIG X 999      42.815 131.857  22.428  1.00  0.00     0.026 A 
HETATM   11  C10 LIG X 999      42.542 132.037  21.064  1.00  0.00     0.041 A 
HETATM   12  C11 LIG X 999      43.468 131.623  20.096  1.00  0.00    -0.023 A 
HETATM   13  C12 LIG X 999      43.199 131.798  18.725  1.00  0.00     0.021 A 
HETATM   14  C13 LIG X 999      44.151 131.375  17.796  1.00  0.00    -0.024 A 
HETATM   15  C14 LIG X 999      44.072 131.438  16.321  1.00  0.00     0.276 C 
ENDROOT
BRANCH  10  16
HETATM   16  N2  LIG X 999      41.868 132.281  23.411  1.00  0.00    -0.399 N 
HETATM   17  H12 LIG X 999      41.159 133.016  23.191  1.00  0.00     0.156 HD
HETATM   18  H13 LIG X 999      41.868 131.863  24.369  1.00  0.00     0.156 HD
ENDBRANCH  10  16
TORSDOF 1
ENDMDL
MODEL 3
REMARK VINA RESULT:      -7.4      1.011      6.056
REMARK  1 active torsions:
REMARK  status: ('A' for Active; 'I' for Inactive)
REMARK    1  A    between atoms: C9_10  and  N2_11 
ROOT
HETATM    1  C1  LIG X 999      43.741 132.189  23.936  1.00  0.00     0.272 C 
HETATM    2  N1  LIG X 999      43.508 131.227  22.834  1.00  0.00    -0.067 N 
HETATM    3  C2  LIG X 999      42.766 130.058  23.365  1.00  0.00     0.272 C 
HETATM    4  C3  LIG X 999      44.809 130.781  22.239  1.00  0.00     0.276 C 
HETATM    5  C4  LIG X 999      44.651 130.940  20.777  1.00  0.00    -0.024 A 
HETATM    6  C5  LIG X 999      45.547 130.565  19.774  1.00  0.00     0.021 A 
HETATM    7  C6  LIG X 999      45.207 130.832  18.434  1.00  0.00    -0.025 A 
HETATM    8  C7  LIG X 999      46.073 130.470  17.392  1.00  0.00     0.014 A 
HETATM    9  C8  LIG X 999      45.729 130.741  16.065  1.00  0.00     0.030 A 
HETATM   10  C9  LIG X 999      44.516 131.375  15.760  1.00  0.00     0.026 A 
HETATM   11  C10 LIG X 999      43.642 131.742  16.793  1.00  0.00     0.041 A 
HETATM   12  C11 LIG X 999      43.975 131.476  18.130  1.00  0.00    -0.023 A 
HETATM   13  C12 LIG X 999      43.102 131.845  19.172  1.00  0.00     0.021 A 
HETATM   14  C13 LIG X 999      43.472 131.557  20.487  1.00  0.00    -0.024 A 
HETATM   15  C14 LIG X 999      42.731 131.869  21.727  1.00  0.00     0.276 C 
ENDROOT
BRANCH  10  16
HETATM   16  N2  LIG X 999      44.173 131.648  14.399  1.00  0.00    -0.399 N 
HETATM   17  H12 LIG X 999      44.873 132.061  13.743  1.00  0.00     0.156 HD
HETATM   18  H13 LIG X 999      43.216 131.439  14.036  1.00  0.00     0.156 HD
ENDBRANCH  10  16
TORSDOF 1
ENDMDL
MODEL 4
REMARK VINA RESULT:      -7.1      1.410      5.907
REMARK  1 active torsions:
REMARK  status: ('A' for Active; 'I' for Inactive)
REMARK    1  A    between atoms: C9_10  and  N2_11 
ROOT
HETATM    1  C1  LIG X 999      43.686 130.279  22.392  1.00  0.00     0.272 C 
HETATM    2  N1  LIG X 999      44.337 131.189  21.422  1.00  0.00    -0.067 N 
HETATM    3  C2  LIG X 999      44.843 132.381  22.145  1.00  0.00     0.272 C 
HETATM    4  C3  LIG X 999      43.369 131.608  20.358  1.00  0.00     0.276 C 
HETATM    5  C4  LIG X 999      44.067 131.382  19.075  1.00  0.00    -0.024 A 
HETATM    6  C5  LIG X 999      43.627 131.711  17.791  1.00  0.00     0.021 A 
HETATM    7  C6  LIG X 999      44.446 131.382  16.694  1.00  0.00    -0.025 A 
HETATM    8  C7  LIG X 999      44.048 131.696  15.386  1.00  0.00     0.014 A 
HETATM    9  C8  LIG X 999      44.866 131.364  14.303  1.00  0.00     0.030 A 
HETATM   10  C9  LIG X 999      46.091 130.715  14.510  1.00  0.00     0.026 A 
HETATM   11  C10 LIG X 999      46.500 130.395  15.812  1.00  0.00     0.041 A 
HETATM   12  C11 LIG X 999      45.690 130.723  16.909  1.00  0.00    -0.023 A 
HETATM   13  C12 LIG X 999      46.093 130.402  18.220  1.00  0.00     0.021 A 
HETATM   14  C13 LIG X 999      45.257 130.751  19.281  1.00  0.00    -0.024 A 
HETATM   15  C14 LIG X 999      45.465 130.496  20.723  1.00  0.00     0.276 C 
ENDROOT
BRANCH  10  16
HETATM   16  N2  LIG X 999      46.921 130.379  13.394  1.00  0.00    -0.399 N 
HETATM   17  H12 LIG X 999      47.594 129.582  13.448  1.00  0.00     0.156 HD
HETATM   18  H13 LIG X 999      46.868 130.924  12.505  1.00  0.00     0.156 HD
ENDBRANCH  10  16
TORSDOF 1
ENDMDL
MODEL 5
REMARK VINA RESULT:      -7.0      1.308      1.773
REMARK  1 active torsions:
REMARK  status: ('A' for Active; 'I' for Inactive)
REMARK    1  A    between atoms: C9_10  and  N2_11 
ROOT
HETATM    1  C1  LIG X 999      47.310 131.414  14.058  1.00  0.00     0.272 C 
HETATM    2  N1  LIG X 999      46.338 130.651  14.875  1.00  0.00    -0.067 N 
HETATM    3  C2  LIG X 999      46.232 129.274  14.335  1.00  0.00     0.272 C 
HETATM    4  C3  LIG X 999      44.995 131.314  14.856  1.00  0.00     0.276 C 
HETATM    5  C4  LIG X 999      44.577 131.404  16.271  1.00  0.00    -0.024 A 
HETATM    6  C5  LIG X 999      43.355 131.852  16.776  1.00  0.00     0.021 A 
HETATM    7  C6  LIG X 999      43.171 131.878  18.172  1.00  0.00    -0.025 A 
HETATM    8  C7  LIG X 999      41.959 132.317  18.725  1.00  0.00     0.014 A 
HETATM    9  C8  LIG X 999      41.786 132.341  20.111  1.00  0.00     0.030 A 
HETATM   10  C9  LIG X 999      42.820 131.929  20.964  1.00  0.00     0.026 A 
HETATM   11  C10 LIG X 999      44.037 131.489  20.423  1.00  0.00     0.041 A 
HETATM   12  C11 LIG X 999      44.224 131.459  19.033  1.00  0.00    -0.023 A 
HETATM   13  C12 LIG X 999      45.444 131.021  18.484  1.00  0.00     0.021 A 
HETATM   14  C13 LIG X 999      45.585 131.003  17.096  1.00  0.00    -0.024 A 
HETATM   15  C14 LIG X 999      46.772 130.607  16.308  1.00  0.00     0.276 C 
ENDROOT
BRANCH  10  16
HETATM   16  N2  LIG X 999      42.634 131.958  22.382  1.00  0.00    -0.399 N 
HETATM   17  H12 LIG X 999      43.199 131.344  23.009  1.00  0.00     0.156 HD
HETATM   18  H13 LIG X 999      41.929 132.595  22.815  1.00  0.00     0.156 HD
ENDBRANCH  10  16
TORSDOF 1
ENDMDL
MODEL 6
REMARK VINA RESULT:      -6.9      1.088      5.868
REMARK  1 active torsions:
REMARK  status: ('A' for Active; 'I' for Inactive)
REMARK    1  A    between atoms: C9_10  and  N2_11 
ROOT
HETATM    1  C1  LIG X 999      42.618 130.413  24.291  1.00  0.00     0.272 C 
HETATM    2  N1  LIG X 999      43.414 131.294  23.405  1.00  0.00    -0.067 N 
HETATM    3  C2  LIG X 999      43.908 132.449  24.193  1.00  0.00     0.272 C 
HETATM    4  C3  LIG X 999      42.584 131.775  22.255  1.00  0.00     0.276 C 
HETATM    5  C4  LIG X 999      43.396 131.521  21.046  1.00  0.00    -0.024 A 
HETATM    6  C5  LIG X 999      43.108 131.884  19.729  1.00  0.00     0.021 A 
HETATM    7  C6  LIG X 999      44.015 131.519  18.715  1.00  0.00    -0.025 A 
HETATM    8  C7  LIG X 999      43.770 131.866  17.379  1.00  0.00     0.014 A 
HETATM    9  C8  LIG X 999      44.675 131.498  16.380  1.00  0.00     0.030 A 
HETATM   10  C9  LIG X 999      45.836 130.779  16.701  1.00  0.00     0.026 A 
HETATM   11  C10 LIG X 999      46.091 130.426  18.033  1.00  0.00     0.041 A 
HETATM   12  C11 LIG X 999      45.192 130.790  19.047  1.00  0.00    -0.023 A 
HETATM   13  C12 LIG X 999      45.442 130.436  20.387  1.00  0.00     0.021 A 
HETATM   14  C13 LIG X 999      44.522 130.822  21.363  1.00  0.00    -0.024 A 
HETATM   15  C14 LIG X 999      44.568 130.544  22.814  1.00  0.00     0.276 C 
ENDROOT
BRANCH  10  16
HETATM   16  N2  LIG X 999      46.755 130.406  15.671  1.00  0.00    -0.399 N 
HETATM   17  H12 LIG X 999      47.748 130.174  15.897  1.00  0.00     0.156 HD
HETATM   18  H13 LIG X 999      46.450 130.360  14.673  1.00  0.00     0.156 HD
ENDBRANCH  10  16
TORSDOF 1
ENDMDL
MODEL 7
REMARK VINA RESULT:      -5.7      1.862      6.418
REMARK  1 active torsions:
REMARK  status: ('A' for Active; 'I' for Inactive)
REMARK    1  A    between atoms: C9_10  and  N2_11 
ROOT
HETATM    1  C1  LIG X 999      44.874 132.097  21.567  1.00  0.00     0.272 C 
HETATM    2  N1  LIG X 999      44.356 131.545  20.294  1.00  0.00    -0.067 N 
HETATM    3  C2  LIG X 999      42.919 131.220  20.460  1.00  0.00     0.272 C 
HETATM    4  C3  LIG X 999      45.118 130.315  19.903  1.00  0.00     0.276 C 
HETATM    5  C4  LIG X 999      45.497 130.517  18.488  1.00  0.00    -0.024 A 
HETATM    6  C5  LIG X 999      46.131 129.612  17.634  1.00  0.00     0.021 A 
HETATM    7  C6  LIG X 999      46.424 130.019  16.319  1.00  0.00    -0.025 A 
HETATM    8  C7  LIG X 999      47.057 129.144  15.424  1.00  0.00     0.014 A 
HETATM    9  C8  LIG X 999      47.345 129.557  14.121  1.00  0.00     0.030 A 
HETATM   10  C9  LIG X 999      47.007 130.849  13.693  1.00  0.00     0.026 A 
HETATM   11  C10 LIG X 999      46.375 131.733  14.578  1.00  0.00     0.041 A 
HETATM   12  C11 LIG X 999      46.078 131.332  15.889  1.00  0.00    -0.023 A 
HETATM   13  C12 LIG X 999      45.446 132.217  16.784  1.00  0.00     0.021 A 
HETATM   14  C13 LIG X 999      45.166 131.773  18.077  1.00  0.00    -0.024 A 
HETATM   15  C14 LIG X 999      44.535 132.529  19.180  1.00  0.00     0.276 C 
ENDROOT
BRANCH  10  16
HETATM   16  N2  LIG X 999      47.307 131.263  12.358  1.00  0.00    -0.399 N 
HETATM   17  H12 LIG X 999      47.357 130.567  11.580  1.00  0.00     0.156 HD
HETATM   18  H13 LIG X 999      47.483 132.268  12.136  1.00  0.00     0.156 HD
ENDBRANCH  10  16
TORSDOF 1
ENDMDL
