REMARK VINA RESULT:      -7.5      2.219      2.600
REMARK  5 active torsions:
REMARK  status: ('A' for Active; 'I' for Inactive)
REMARK    1  A    between atoms: C6_6  and  O1_7 
REMARK    2  A    between atoms: O1_7  and  C7_8 
REMARK    3  A    between atoms: C7_8  and  O3_10 
REMARK    4  A    between atoms: O3_10  and  C8_11 
REMARK    5  A    between atoms: C8_11  and  N1_12 
ROOT
HETATM    1  N1  LIG X 999      43.880 129.417  22.549  1.00  0.00    -0.089 NA
HETATM    2  N2  LIG X 999      44.564 128.500  23.003  1.00  0.00    -0.165 NA
HETATM    3  N3  LIG X 999      45.246 127.583  23.456  1.00  0.00     0.068 N 
ENDROOT
BRANCH   1   4
HETATM    4  C8  LIG X 999      44.491 130.685  22.186  1.00  0.00     0.370 C 
BRANCH   4   5
HETATM    5  O3  LIG X 999      45.328 130.494  21.051  1.00  0.00    -0.273 OA
BRANCH   5   6
HETATM    6  C7  LIG X 999      45.206 131.256  19.888  1.00  0.00     0.413 C 
HETATM    7  O2  LIG X 999      45.386 132.506  19.923  1.00  0.00    -0.229 OA
BRANCH   6   8
HETATM    8  O1  LIG X 999      44.824 130.620  18.701  1.00  0.00    -0.256 OA
BRANCH   8   9
HETATM    9  C6  LIG X 999      45.416 130.822  17.445  1.00  0.00     0.082 A 
HETATM   10  C5  LIG X 999      46.190 129.833  16.810  1.00  0.00     0.049 A 
HETATM   11  C4  LIG X 999      46.754 130.075  15.549  1.00  0.00    -0.023 A 
HETATM   12  C3  LIG X 999      47.534 129.096  14.912  1.00  0.00     0.012 A 
HETATM   13  C11 LIG X 999      46.533 131.318  14.907  1.00  0.00    -0.026 A 
HETATM   14  C2  LIG X 999      48.091 129.349  13.656  1.00  0.00     0.001 A 
HETATM   15  C1  LIG X 999      47.874 130.576  13.024  1.00  0.00     0.001 A 
HETATM   16  C12 LIG X 999      47.098 131.559  13.644  1.00  0.00     0.012 A 
HETATM   17  C10 LIG X 999      45.745 132.292  15.535  1.00  0.00     0.015 A 
HETATM   18  C9  LIG X 999      45.187 132.039  16.791  1.00  0.00     0.038 A 
ENDBRANCH   8   9
ENDBRANCH   6   8
ENDBRANCH   5   6
ENDBRANCH   4   5
ENDBRANCH   1   4
TORSDOF 5
