REMARK VINA RESULT:      -6.7      2.632      6.396
REMARK  4 active torsions:
REMARK  status: ('A' for Active; 'I' for Inactive)
REMARK    1  A    between atoms: O1_2  and  C1_3 
REMARK    2  A    between atoms: C1_3  and  C14_17 
REMARK    3  A    between atoms: N1_4  and  C2_5 
REMARK    4  A    between atoms: C2_5  and  C3_6 
ROOT
HETATM    1  C3  LIG X 999      45.069 131.396  17.435  1.00  0.00    -0.033 A 
HETATM    2  C4  LIG X 999      44.372 132.058  16.410  1.00  0.00     0.010 A 
HETATM    3  C5  LIG X 999      44.765 131.917  15.076  1.00  0.00     0.013 A 
HETATM    4  C6  LIG X 999      45.858 131.105  14.745  1.00  0.00    -0.026 A 
HETATM    5  C7  LIG X 999      46.260 130.957  13.407  1.00  0.00     0.012 A 
HETATM    6  C8  LIG X 999      47.349 130.141  13.089  1.00  0.00     0.001 A 
HETATM    7  C9  LIG X 999      48.043 129.469  14.098  1.00  0.00     0.001 A 
HETATM    8  C10 LIG X 999      47.653 129.608  15.433  1.00  0.00     0.012 A 
HETATM    9  C11 LIG X 999      46.561 130.425  15.767  1.00  0.00    -0.025 A 
HETATM   10  C12 LIG X 999      46.161 130.571  17.103  1.00  0.00     0.021 A 
ENDROOT
BRANCH   1  11
HETATM   11  C2  LIG X 999      44.620 131.538  18.872  1.00  0.00     0.139 C 
HETATM   12  C13 LIG X 999      43.109 131.795  18.928  1.00  0.00     0.039 C 
BRANCH  11  13
HETATM   13  N1  LIG X 999      44.963 130.324  19.615  1.00  0.00    -0.261 NA
HETATM   14  C1  LIG X 999      45.180 130.282  20.896  1.00  0.00     0.132 C 
BRANCH  14  15
HETATM   15  O1  LIG X 999      45.126 131.444  21.666  1.00  0.00    -0.348 OA
HETATM   16  H1  LIG X 999      44.897 131.410  22.652  1.00  0.00     0.219 HD
ENDBRANCH  14  15
BRANCH  14  17
HETATM   17  C14 LIG X 999      45.530 128.974  21.540  1.00  0.00     0.081 C 
HETATM   18  C15 LIG X 999      44.693 128.753  22.794  1.00  0.00     0.013 C 
ENDBRANCH  14  17
ENDBRANCH  11  13
ENDBRANCH   1  11
TORSDOF 4
