REMARK VINA RESULT:      -7.6      3.327      6.817
REMARK  4 active torsions:
REMARK  status: ('A' for Active; 'I' for Inactive)
REMARK    1  A    between atoms: O1_2  and  C1_3 
REMARK    2  A    between atoms: C1_3  and  C5_11 
REMARK       I    between atoms: N1_4  and  C2_5 
REMARK    3  A    between atoms: C2_5  and  O3_7 
REMARK    4  A    between atoms: O3_7  and  C3_8 
ROOT
HETATM    1  C5  LIG X 999      43.557 131.589  19.697  1.00  0.00     0.054 A 
HETATM    2  C6  LIG X 999      42.537 132.375  20.281  1.00  0.00     0.122 A 
HETATM    3  O4  LIG X 999      41.809 133.290  19.527  1.00  0.00    -0.191 OA
HETATM    4  C7  LIG X 999      42.242 132.256  21.643  1.00  0.00     0.053 A 
HETATM    5  C8  LIG X 999      42.955 131.362  22.451  1.00  0.00    -0.023 A 
HETATM    6  C9  LIG X 999      42.661 131.243  23.819  1.00  0.00     0.012 A 
HETATM    7  C10 LIG X 999      43.380 130.346  24.614  1.00  0.00     0.001 A 
HETATM    8  C11 LIG X 999      44.394 129.565  24.053  1.00  0.00     0.001 A 
HETATM    9  C12 LIG X 999      44.695 129.676  22.693  1.00  0.00     0.012 A 
HETATM   10  C13 LIG X 999      43.980 130.573  21.883  1.00  0.00    -0.025 A 
HETATM   11  C14 LIG X 999      44.273 130.692  20.517  1.00  0.00     0.031 A 
ENDROOT
BRANCH   1  12
HETATM   12  C1  LIG X 999      43.883 131.693  18.246  1.00  0.00     0.181 C 
HETATM   13  N1  LIG X 999      45.079 131.369  17.837  1.00  0.00    -0.162 NA
HETATM   14  C2  LIG X 999      45.625 131.493  16.518  1.00  0.00     0.390 C 
HETATM   15  O2  LIG X 999      45.193 132.369  15.718  1.00  0.00    -0.236 OA
BRANCH  12  16
HETATM   16  O1  LIG X 999      42.889 132.102  17.351  1.00  0.00    -0.344 OA
HETATM   17  H1  LIG X 999      42.987 132.885  16.720  1.00  0.00     0.219 HD
ENDBRANCH  12  16
BRANCH  14  18
HETATM   18  O3  LIG X 999      46.709 130.687  16.160  1.00  0.00    -0.282 OA
BRANCH  18  19
HETATM   19  C3  LIG X 999      46.634 129.672  15.162  1.00  0.00     0.225 C 
HETATM   20 CL1  LIG X 999      46.885 130.387  13.544  1.00  0.00    -0.095 Cl
HETATM   21  C4  LIG X 999      45.265 129.009  15.218  1.00  0.00     0.057 C 
ENDBRANCH  18  19
ENDBRANCH  14  18
ENDBRANCH   1  12
TORSDOF 4
