REMARK VINA RESULT:      -7.5      1.094      2.219
REMARK  1 active torsions:
REMARK  status: ('A' for Active; 'I' for Inactive)
REMARK    1  A    between atoms: N1_1  and  C1_2 
ROOT
HETATM    1  C1  LIG X 999      45.603 130.794  17.394  1.00  0.00     0.026 A 
HETATM    2  C2  LIG X 999      45.325 132.019  16.772  1.00  0.00     0.030 A 
HETATM    3  C3  LIG X 999      45.813 132.289  15.491  1.00  0.00     0.014 A 
HETATM    4  C4  LIG X 999      46.584 131.334  14.813  1.00  0.00    -0.026 A 
HETATM    5  C5  LIG X 999      47.078 131.593  13.526  1.00  0.00     0.012 A 
HETATM    6  C6  LIG X 999      47.846 130.632  12.862  1.00  0.00     0.001 A 
HETATM    7  C7  LIG X 999      48.126 129.409  13.476  1.00  0.00     0.001 A 
HETATM    8  C8  LIG X 999      47.640 129.137  14.760  1.00  0.00     0.012 A 
HETATM    9  C9  LIG X 999      46.867 130.093  15.436  1.00  0.00    -0.024 A 
HETATM   10  C10 LIG X 999      46.374 129.832  16.724  1.00  0.00     0.041 A 
ENDROOT
BRANCH   1  11
HETATM   11  N1  LIG X 999      45.102 130.525  18.706  1.00  0.00    -0.399 N 
HETATM   12  H1  LIG X 999      44.773 129.569  18.967  1.00  0.00     0.156 HD
HETATM   13  H2  LIG X 999      45.056 131.280  19.426  1.00  0.00     0.156 HD
ENDBRANCH   1  11
TORSDOF 1
