MODEL 1
REMARK VINA RESULT:      -7.7      0.000      0.000
REMARK  5 active torsions:
REMARK  status: ('A' for Active; 'I' for Inactive)
REMARK    1  A    between atoms: C6_6  and  C7_7 
REMARK       I    between atoms: C7_7  and  N1_9 
REMARK    2  A    between atoms: N1_9  and  C8_11 
REMARK    3  A    between atoms: C8_11  and  C9_12 
REMARK    4  A    between atoms: C9_12  and  N2_13 
REMARK    5  A    between atoms: C13_19  and  N5_20 
ROOT
HETATM    1  N2  LIG X 999      46.753 131.005  13.379  1.00  0.00    -0.114 NA
HETATM    2  N3  LIG X 999      47.691 130.209  13.391  1.00  0.00    -0.168 NA
HETATM    3  N4  LIG X 999      48.629 129.413  13.403  1.00  0.00     0.068 N 
ENDROOT
BRANCH   1   4
HETATM    4  C9  LIG X 999      45.703 130.929  14.383  1.00  0.00     0.208 C 
BRANCH   4   5
HETATM    5  C8  LIG X 999      45.855 132.080  15.376  1.00  0.00     0.147 C 
BRANCH   5   6
HETATM    6  N1  LIG X 999      45.794 131.594  16.755  1.00  0.00    -0.355 N 
HETATM    7  C7  LIG X 999      44.568 131.628  17.502  1.00  0.00     0.251 C 
HETATM    8  O1  LIG X 999      43.494 131.940  16.917  1.00  0.00    -0.268 OA
HETATM    9  H4  LIG X 999      46.647 131.175  17.187  1.00  0.00     0.162 HD
BRANCH   7  10
HETATM   10  C6  LIG X 999      44.537 131.286  18.945  1.00  0.00     0.032 A 
HETATM   11  C1  LIG X 999      45.533 130.483  19.520  1.00  0.00     0.017 A 
HETATM   12  C2  LIG X 999      45.491 130.165  20.878  1.00  0.00     0.011 A 
HETATM   13  C3  LIG X 999      44.447 130.632  21.695  1.00  0.00    -0.024 A 
HETATM   14  C4  LIG X 999      43.473 131.493  21.136  1.00  0.00    -0.049 A 
HETATM   15  C13 LIG X 999      44.467 130.315  23.184  1.00  0.00     0.179 C 
HETATM   16  C5  LIG X 999      43.517 131.794  19.765  1.00  0.00     0.024 A 
HETATM   17  C10 LIG X 999      42.330 132.036  21.961  1.00  0.00     0.039 C 
HETATM   18  C11 LIG X 999      42.644 132.037  23.458  1.00  0.00     0.007 C 
HETATM   19  C12 LIG X 999      43.141 130.659  23.889  1.00  0.00     0.035 C 
BRANCH  15  20
HETATM   20  N5  LIG X 999      44.807 128.912  23.422  1.00  0.00    -0.105 NA
HETATM   21  N6  LIG X 999      43.941 128.037  23.471  1.00  0.00    -0.167 NA
HETATM   22  N7  LIG X 999      43.078 127.162  23.521  1.00  0.00     0.068 N 
ENDBRANCH  15  20
ENDBRANCH   7  10
ENDBRANCH   5   6
ENDBRANCH   4   5
ENDBRANCH   1   4
TORSDOF 5
ENDMDL
MODEL 2
REMARK VINA RESULT:      -7.4      1.609      7.499
REMARK  5 active torsions:
REMARK  status: ('A' for Active; 'I' for Inactive)
REMARK    1  A    between atoms: C6_6  and  C7_7 
REMARK       I    between atoms: C7_7  and  N1_9 
REMARK    2  A    between atoms: N1_9  and  C8_11 
REMARK    3  A    between atoms: C8_11  and  C9_12 
REMARK    4  A    between atoms: C9_12  and  N2_13 
REMARK    5  A    between atoms: C13_19  and  N5_20 
ROOT
HETATM    1  N2  LIG X 999      43.665 129.257  23.154  1.00  0.00    -0.114 NA
HETATM    2  N3  LIG X 999      44.473 128.427  22.740  1.00  0.00    -0.168 NA
HETATM    3  N4  LIG X 999      45.282 127.597  22.327  1.00  0.00     0.068 N 
ENDROOT
BRANCH   1   4
HETATM    4  C9  LIG X 999      44.109 130.388  23.954  1.00  0.00     0.208 C 
BRANCH   4   5
HETATM    5  C8  LIG X 999      44.141 131.649  23.090  1.00  0.00     0.147 C 
BRANCH   5   6
HETATM    6  N1  LIG X 999      44.710 131.366  21.772  1.00  0.00    -0.355 N 
HETATM    7  C7  LIG X 999      44.001 131.700  20.569  1.00  0.00     0.251 C 
HETATM    8  O1  LIG X 999      42.941 132.382  20.642  1.00  0.00    -0.268 OA
HETATM    9  H4  LIG X 999      45.668 130.955  21.705  1.00  0.00     0.162 HD
BRANCH   7  10
HETATM   10  C6  LIG X 999      44.499 131.273  19.239  1.00  0.00     0.032 A 
HETATM   11  C1  LIG X 999      45.577 130.383  19.121  1.00  0.00     0.017 A 
HETATM   12  C2  LIG X 999      46.039 129.992  17.864  1.00  0.00     0.011 A 
HETATM   13  C3  LIG X 999      45.445 130.488  16.691  1.00  0.00    -0.024 A 
HETATM   14  C4  LIG X 999      44.318 131.338  16.802  1.00  0.00    -0.049 A 
HETATM   15  C13 LIG X 999      45.937 129.992  15.339  1.00  0.00     0.179 C 
HETATM   16  C5  LIG X 999      43.871 131.737  18.072  1.00  0.00     0.024 A 
HETATM   17  C10 LIG X 999      43.628 131.899  15.581  1.00  0.00     0.039 C 
HETATM   18  C11 LIG X 999      43.884 131.055  14.330  1.00  0.00     0.007 C 
HETATM   19  C12 LIG X 999      45.382 130.814  14.160  1.00  0.00     0.035 C 
BRANCH  15  20
HETATM   20  N5  LIG X 999      47.399 129.969  15.283  1.00  0.00    -0.105 NA
HETATM   21  N6  LIG X 999      48.001 129.689  14.246  1.00  0.00    -0.167 NA
HETATM   22  N7  LIG X 999      48.604 129.409  13.210  1.00  0.00     0.068 N 
ENDBRANCH  15  20
ENDBRANCH   7  10
ENDBRANCH   5   6
ENDBRANCH   4   5
ENDBRANCH   1   4
TORSDOF 5
ENDMDL
MODEL 3
REMARK VINA RESULT:      -6.3      2.444      7.877
REMARK  5 active torsions:
REMARK  status: ('A' for Active; 'I' for Inactive)
REMARK    1  A    between atoms: C6_6  and  C7_7 
REMARK       I    between atoms: C7_7  and  N1_9 
REMARK    2  A    between atoms: N1_9  and  C8_11 
REMARK    3  A    between atoms: C8_11  and  C9_12 
REMARK    4  A    between atoms: C9_12  and  N2_13 
REMARK    5  A    between atoms: C13_19  and  N5_20 
ROOT
HETATM    1  N2  LIG X 999      44.730 133.000  24.605  1.00  0.00    -0.114 NA
HETATM    2  N3  LIG X 999      45.842 133.527  24.615  1.00  0.00    -0.168 NA
HETATM    3  N4  LIG X 999      46.954 134.053  24.625  1.00  0.00     0.068 N 
ENDROOT
BRANCH   1   4
HETATM    4  C9  LIG X 999      44.558 131.643  24.111  1.00  0.00     0.208 C 
BRANCH   4   5
HETATM    5  C8  LIG X 999      43.541 131.634  22.970  1.00  0.00     0.147 C 
BRANCH   5   6
HETATM    6  N1  LIG X 999      44.183 131.300  21.699  1.00  0.00    -0.355 N 
HETATM    7  C7  LIG X 999      43.729 131.875  20.463  1.00  0.00     0.251 C 
HETATM    8  O1  LIG X 999      42.864 132.794  20.487  1.00  0.00    -0.268 OA
HETATM    9  H4  LIG X 999      45.014 130.667  21.696  1.00  0.00     0.162 HD
BRANCH   7  10
HETATM   10  C6  LIG X 999      44.271 131.419  19.160  1.00  0.00     0.032 A 
HETATM   11  C1  LIG X 999      45.379 130.563  19.095  1.00  0.00     0.017 A 
HETATM   12  C2  LIG X 999      45.881 130.144  17.862  1.00  0.00     0.011 A 
HETATM   13  C3  LIG X 999      45.297 130.580  16.661  1.00  0.00    -0.024 A 
HETATM   14  C4  LIG X 999      44.141 131.395  16.719  1.00  0.00    -0.049 A 
HETATM   15  C13 LIG X 999      45.834 130.056  15.337  1.00  0.00     0.179 C 
HETATM   16  C5  LIG X 999      43.653 131.822  17.964  1.00  0.00     0.024 A 
HETATM   17  C10 LIG X 999      43.460 131.891  15.465  1.00  0.00     0.039 C 
HETATM   18  C11 LIG X 999      43.770 131.015  14.250  1.00  0.00     0.007 C 
HETATM   19  C12 LIG X 999      45.278 130.818  14.119  1.00  0.00     0.035 C 
BRANCH  15  20
HETATM   20  N5  LIG X 999      47.297 130.079  15.313  1.00  0.00    -0.105 NA
HETATM   21  N6  LIG X 999      47.932 129.728  14.317  1.00  0.00    -0.167 NA
HETATM   22  N7  LIG X 999      48.567 129.378  13.324  1.00  0.00     0.068 N 
ENDBRANCH  15  20
ENDBRANCH   7  10
ENDBRANCH   5   6
ENDBRANCH   4   5
ENDBRANCH   1   4
TORSDOF 5
ENDMDL
MODEL 4
REMARK VINA RESULT:      -6.0      2.493      7.563
REMARK  5 active torsions:
REMARK  status: ('A' for Active; 'I' for Inactive)
REMARK    1  A    between atoms: C6_6  and  C7_7 
REMARK       I    between atoms: C7_7  and  N1_9 
REMARK    2  A    between atoms: N1_9  and  C8_11 
REMARK    3  A    between atoms: C8_11  and  C9_12 
REMARK    4  A    between atoms: C9_12  and  N2_13 
REMARK    5  A    between atoms: C13_19  and  N5_20 
ROOT
HETATM    1  N2  LIG X 999      42.191 131.740  22.021  1.00  0.00    -0.114 NA
HETATM    2  N3  LIG X 999      42.061 132.448  21.023  1.00  0.00    -0.168 NA
HETATM    3  N4  LIG X 999      41.931 133.156  20.025  1.00  0.00     0.068 N 
ENDROOT
BRANCH   1   4
HETATM    4  C9  LIG X 999      43.189 132.060  23.030  1.00  0.00     0.208 C 
BRANCH   4   5
HETATM    5  C8  LIG X 999      44.367 131.094  22.915  1.00  0.00     0.147 C 
BRANCH   5   6
HETATM    6  N1  LIG X 999      44.541 130.642  21.535  1.00  0.00    -0.355 N 
HETATM    7  C7  LIG X 999      45.351 131.382  20.607  1.00  0.00     0.251 C 
HETATM    8  O1  LIG X 999      46.043 132.351  21.023  1.00  0.00    -0.268 OA
HETATM    9  H4  LIG X 999      44.106 129.743  21.232  1.00  0.00     0.162 HD
BRANCH   7  10
HETATM   10  C6  LIG X 999      45.401 131.016  19.170  1.00  0.00     0.032 A 
HETATM   11  C1  LIG X 999      46.244 129.993  18.712  1.00  0.00     0.017 A 
HETATM   12  C2  LIG X 999      46.284 129.661  17.357  1.00  0.00     0.011 A 
HETATM   13  C3  LIG X 999      45.493 130.350  16.423  1.00  0.00    -0.024 A 
HETATM   14  C4  LIG X 999      44.595 131.341  16.885  1.00  0.00    -0.049 A 
HETATM   15  C13 LIG X 999      45.519 129.921  14.963  1.00  0.00     0.179 C 
HETATM   16  C5  LIG X 999      44.573 131.678  18.248  1.00  0.00     0.024 A 
HETATM   17  C10 LIG X 999      43.711 132.113  15.934  1.00  0.00     0.039 C 
HETATM   18  C11 LIG X 999      43.481 131.366  14.619  1.00  0.00     0.007 C 
HETATM   19  C12 LIG X 999      44.818 130.925  14.028  1.00  0.00     0.035 C 
BRANCH  15  20
HETATM   20  N5  LIG X 999      46.889 129.688  14.504  1.00  0.00    -0.105 NA
HETATM   21  N6  LIG X 999      47.423 130.419  13.668  1.00  0.00    -0.167 NA
HETATM   22  N7  LIG X 999      47.958 131.149  12.834  1.00  0.00     0.068 N 
ENDBRANCH  15  20
ENDBRANCH   7  10
ENDBRANCH   5   6
ENDBRANCH   4   5
ENDBRANCH   1   4
TORSDOF 5
ENDMDL
MODEL 5
REMARK VINA RESULT:      -6.0      1.899      2.754
REMARK  5 active torsions:
REMARK  status: ('A' for Active; 'I' for Inactive)
REMARK    1  A    between atoms: C6_6  and  C7_7 
REMARK       I    between atoms: C7_7  and  N1_9 
REMARK    2  A    between atoms: N1_9  and  C8_11 
REMARK    3  A    between atoms: C8_11  and  C9_12 
REMARK    4  A    between atoms: C9_12  and  N2_13 
REMARK    5  A    between atoms: C13_19  and  N5_20 
ROOT
HETATM    1  N2  LIG X 999      46.784 129.908  15.369  1.00  0.00    -0.114 NA
HETATM    2  N3  LIG X 999      47.559 129.704  14.435  1.00  0.00    -0.168 NA
HETATM    3  N4  LIG X 999      48.334 129.499  13.501  1.00  0.00     0.068 N 
ENDROOT
BRANCH   1   4
HETATM    4  C9  LIG X 999      45.592 130.719  15.177  1.00  0.00     0.208 C 
BRANCH   4   5
HETATM    5  C8  LIG X 999      45.673 131.969  16.054  1.00  0.00     0.147 C 
BRANCH   5   6
HETATM    6  N1  LIG X 999      45.447 131.637  17.461  1.00  0.00    -0.355 N 
HETATM    7  C7  LIG X 999      44.124 131.628  18.019  1.00  0.00     0.251 C 
HETATM    8  O1  LIG X 999      43.127 131.760  17.256  1.00  0.00    -0.268 OA
HETATM    9  H4  LIG X 999      46.257 131.359  18.057  1.00  0.00     0.162 HD
BRANCH   7  10
HETATM   10  C6  LIG X 999      43.906 131.449  19.475  1.00  0.00     0.032 A 
HETATM   11  C1  LIG X 999      43.043 132.295  20.188  1.00  0.00     0.017 A 
HETATM   12  C2  LIG X 999      42.849 132.118  21.559  1.00  0.00     0.011 A 
HETATM   13  C3  LIG X 999      43.521 131.100  22.256  1.00  0.00    -0.024 A 
HETATM   14  C4  LIG X 999      44.345 130.204  21.533  1.00  0.00    -0.049 A 
HETATM   15  C13 LIG X 999      43.239 130.900  23.738  1.00  0.00     0.179 C 
HETATM   16  C5  LIG X 999      44.545 130.400  20.157  1.00  0.00     0.024 A 
HETATM   17  C10 LIG X 999      45.089 129.084  22.221  1.00  0.00     0.039 C 
HETATM   18  C11 LIG X 999      44.448 128.694  23.554  1.00  0.00     0.007 C 
HETATM   19  C12 LIG X 999      44.233 129.936  24.414  1.00  0.00     0.035 C 
BRANCH  15  20
HETATM   20  N5  LIG X 999      43.222 132.177  24.451  1.00  0.00    -0.105 NA
HETATM   21  N6  LIG X 999      44.229 132.883  24.537  1.00  0.00    -0.167 NA
HETATM   22  N7  LIG X 999      45.233 133.587  24.624  1.00  0.00     0.068 N 
ENDBRANCH  15  20
ENDBRANCH   7  10
ENDBRANCH   5   6
ENDBRANCH   4   5
ENDBRANCH   1   4
TORSDOF 5
ENDMDL
MODEL 6
REMARK VINA RESULT:      -5.6      4.738      6.840
REMARK  5 active torsions:
REMARK  status: ('A' for Active; 'I' for Inactive)
REMARK    1  A    between atoms: C6_6  and  C7_7 
REMARK       I    between atoms: C7_7  and  N1_9 
REMARK    2  A    between atoms: N1_9  and  C8_11 
REMARK    3  A    between atoms: C8_11  and  C9_12 
REMARK    4  A    between atoms: C9_12  and  N2_13 
REMARK    5  A    between atoms: C13_19  and  N5_20 
ROOT
HETATM    1  N2  LIG X 999      44.143 131.975  19.841  1.00  0.00    -0.114 NA
HETATM    2  N3  LIG X 999      43.000 132.046  19.392  1.00  0.00    -0.168 NA
HETATM    3  N4  LIG X 999      41.857 132.117  18.942  1.00  0.00     0.068 N 
ENDROOT
BRANCH   1   4
HETATM    4  C9  LIG X 999      44.386 131.412  21.161  1.00  0.00     0.208 C 
BRANCH   4   5
HETATM    5  C8  LIG X 999      43.164 131.636  22.050  1.00  0.00     0.147 C 
BRANCH   5   6
HETATM    6  N1  LIG X 999      42.501 130.369  22.358  1.00  0.00    -0.355 N 
HETATM    7  C7  LIG X 999      42.853 129.610  23.525  1.00  0.00     0.251 C 
HETATM    8  O1  LIG X 999      43.638 130.110  24.377  1.00  0.00    -0.268 OA
HETATM    9  H4  LIG X 999      41.727 130.035  21.743  1.00  0.00     0.162 HD
BRANCH   7  10
HETATM   10  C6  LIG X 999      42.299 128.253  23.755  1.00  0.00     0.032 A 
HETATM   11  C1  LIG X 999      43.136 127.173  24.069  1.00  0.00     0.017 A 
HETATM   12  C2  LIG X 999      42.601 125.900  24.280  1.00  0.00     0.011 A 
HETATM   13  C3  LIG X 999      41.220 125.672  24.170  1.00  0.00    -0.024 A 
HETATM   14  C4  LIG X 999      40.363 126.769  23.914  1.00  0.00    -0.049 A 
HETATM   15  C13 LIG X 999      40.667 124.285  24.466  1.00  0.00     0.179 C 
HETATM   16  C5  LIG X 999      40.912 128.042  23.689  1.00  0.00     0.024 A 
HETATM   17  C10 LIG X 999      38.868 126.593  23.792  1.00  0.00     0.039 C 
HETATM   18  C11 LIG X 999      38.372 125.330  24.499  1.00  0.00     0.007 C 
HETATM   19  C12 LIG X 999      39.193 124.124  24.049  1.00  0.00     0.035 C 
BRANCH  15  20
HETATM   20  N5  LIG X 999      41.479 123.246  23.832  1.00  0.00    -0.105 NA
HETATM   21  N6  LIG X 999      41.746 123.278  22.630  1.00  0.00    -0.167 NA
HETATM   22  N7  LIG X 999      42.012 123.309  21.429  1.00  0.00     0.068 N 
ENDBRANCH  15  20
ENDBRANCH   7  10
ENDBRANCH   5   6
ENDBRANCH   4   5
ENDBRANCH   1   4
TORSDOF 5
ENDMDL
MODEL 7
REMARK VINA RESULT:      -4.9      5.091      7.234
REMARK  5 active torsions:
REMARK  status: ('A' for Active; 'I' for Inactive)
REMARK    1  A    between atoms: C6_6  and  C7_7 
REMARK       I    between atoms: C7_7  and  N1_9 
REMARK    2  A    between atoms: N1_9  and  C8_11 
REMARK    3  A    between atoms: C8_11  and  C9_12 
REMARK    4  A    between atoms: C9_12  and  N2_13 
REMARK    5  A    between atoms: C13_19  and  N5_20 
ROOT
HETATM    1  N2  LIG X 999      44.511 132.059  20.155  1.00  0.00    -0.114 NA
HETATM    2  N3  LIG X 999      43.366 132.083  19.704  1.00  0.00    -0.168 NA
HETATM    3  N4  LIG X 999      42.221 132.107  19.254  1.00  0.00     0.068 N 
ENDROOT
BRANCH   1   4
HETATM    4  C9  LIG X 999      44.863 131.150  21.235  1.00  0.00     0.208 C 
BRANCH   4   5
HETATM    5  C8  LIG X 999      43.953 131.400  22.437  1.00  0.00     0.147 C 
BRANCH   5   6
HETATM    6  N1  LIG X 999      42.990 130.312  22.600  1.00  0.00    -0.355 N 
HETATM    7  C7  LIG X 999      43.280 129.181  23.436  1.00  0.00     0.251 C 
HETATM    8  O1  LIG X 999      44.315 129.192  24.158  1.00  0.00    -0.268 OA
HETATM    9  H4  LIG X 999      42.056 130.381  22.137  1.00  0.00     0.162 HD
BRANCH   7  10
HETATM   10  C6  LIG X 999      42.377 128.005  23.479  1.00  0.00     0.032 A 
HETATM   11  C1  LIG X 999      40.996 128.159  23.666  1.00  0.00     0.017 A 
HETATM   12  C2  LIG X 999      40.157 127.044  23.708  1.00  0.00     0.011 A 
HETATM   13  C3  LIG X 999      40.677 125.746  23.576  1.00  0.00    -0.024 A 
HETATM   14  C4  LIG X 999      42.061 125.586  23.325  1.00  0.00    -0.049 A 
HETATM   15  C13 LIG X 999      39.725 124.558  23.567  1.00  0.00     0.179 C 
HETATM   16  C5  LIG X 999      42.898 126.713  23.300  1.00  0.00     0.024 A 
HETATM   17  C10 LIG X 999      42.683 124.218  23.166  1.00  0.00     0.039 C 
HETATM   18  C11 LIG X 999      41.659 123.160  22.750  1.00  0.00     0.007 C 
HETATM   19  C12 LIG X 999      40.452 123.205  23.684  1.00  0.00     0.035 C 
BRANCH  15  20
HETATM   20  N5  LIG X 999      38.721 124.676  24.625  1.00  0.00    -0.105 NA
HETATM   21  N6  LIG X 999      37.742 125.414  24.507  1.00  0.00    -0.167 NA
HETATM   22  N7  LIG X 999      36.764 126.151  24.390  1.00  0.00     0.068 N 
ENDBRANCH  15  20
ENDBRANCH   7  10
ENDBRANCH   5   6
ENDBRANCH   4   5
ENDBRANCH   1   4
TORSDOF 5
ENDMDL
