REMARK VINA RESULT:      -7.7      0.000      0.000
REMARK  5 active torsions:
REMARK  status: ('A' for Active; 'I' for Inactive)
REMARK    1  A    between atoms: C6_6  and  C7_7 
REMARK    2  A    between atoms: C7_7  and  N3_15 
REMARK    3  A    between atoms: N1_8  and  C8_9 
REMARK    4  A    between atoms: C8_9  and  C9_10 
REMARK    5  A    between atoms: C9_10  and  N2_11 
ROOT
HETATM    1  N3  LIG X 999      45.040 131.831  15.417  1.00  0.00    -0.052 NA
HETATM    2  N4  LIG X 999      44.098 131.681  14.637  1.00  0.00    -0.160 NA
HETATM    3  N5  LIG X 999      43.159 131.533  13.856  1.00  0.00     0.068 N 
ENDROOT
BRANCH   1   4
HETATM    4  C7  LIG X 999      45.426 130.816  16.359  1.00  0.00     0.191 C 
HETATM    5  N1  LIG X 999      46.048 129.750  15.947  1.00  0.00    -0.267 NA
BRANCH   4   6
HETATM    6  C6  LIG X 999      45.130 130.948  17.806  1.00  0.00     0.015 A 
HETATM    7  C5  LIG X 999      43.948 131.582  18.226  1.00  0.00     0.027 A 
HETATM    8  C4  LIG X 999      43.651 131.701  19.592  1.00  0.00    -0.025 A 
HETATM    9  C3  LIG X 999      42.477 132.344  20.015  1.00  0.00     0.012 A 
HETATM   10  C12 LIG X 999      44.543 131.169  20.554  1.00  0.00    -0.026 A 
HETATM   11  C2  LIG X 999      42.191 132.457  21.379  1.00  0.00     0.001 A 
HETATM   12  C1  LIG X 999      43.072 131.931  22.328  1.00  0.00     0.001 A 
HETATM   13  C13 LIG X 999      44.244 131.288  21.920  1.00  0.00     0.012 A 
HETATM   14  C11 LIG X 999      45.713 130.524  20.131  1.00  0.00     0.013 A 
HETATM   15  C10 LIG X 999      46.001 130.410  18.769  1.00  0.00     0.016 A 
ENDBRANCH   4   6
BRANCH   5  16
HETATM   16  C8  LIG X 999      46.387 129.461  14.553  1.00  0.00     0.178 C 
BRANCH  16  17
HETATM   17  C9  LIG X 999      47.655 130.212  14.121  1.00  0.00     0.251 C 
BRANCH  17  18
HETATM   18  N2  LIG X 999      47.331 131.419  13.359  1.00  0.00    -0.078 N 
HETATM   19  H9  LIG X 999      46.293 131.539  13.335  1.00  0.00     0.274 HD
HETATM   20  H10 LIG X 999      47.680 131.331  12.377  1.00  0.00     0.274 HD
HETATM   21  H11 LIG X 999      47.758 132.258  13.813  1.00  0.00     0.274 HD
ENDBRANCH  17  18
ENDBRANCH  16  17
ENDBRANCH   5  16
ENDBRANCH   1   4
TORSDOF 5
