MODEL 1
REMARK VINA RESULT:      -5.1      0.000      0.000
REMARK  5 active torsions:
REMARK  status: ('A' for Active; 'I' for Inactive)
REMARK    1  A    between atoms: C3_3  and  N1_4 
REMARK    2  A    between atoms: N1_4  and  C6_7 
REMARK    3  A    between atoms: C6_7  and  C7_8 
REMARK    4  A    between atoms: C9_10  and  C10_11 
REMARK    5  A    between atoms: C11_15  and  N4_16 
ROOT
HETATM    1  C1  LIG X 999      46.950 129.682  14.352  1.00  0.00     0.013 C 
HETATM    2  C2  LIG X 999      46.558 130.629  14.987  1.00  0.00    -0.089 C 
HETATM    3  C3  LIG X 999      46.079 131.789  15.763  1.00  0.00     0.329 C 
ENDROOT
BRANCH   3   4
HETATM    4  N1  LIG X 999      45.261 131.412  16.957  1.00  0.00    -0.061 N 
HETATM    5  C4  LIG X 999      45.737 130.095  17.450  1.00  0.00     0.273 C 
HETATM    6  C5  LIG X 999      43.840 131.252  16.556  1.00  0.00     0.273 C 
BRANCH   4   7
HETATM    7  C6  LIG X 999      45.330 132.434  18.053  1.00  0.00     0.275 C 
BRANCH   7   8
HETATM    8  C7  LIG X 999      44.603 132.042  19.325  1.00  0.00    -0.035 C 
HETATM    9  C8  LIG X 999      45.195 132.185  20.530  1.00  0.00     0.001 C 
HETATM   10  C9  LIG X 999      44.546 131.609  21.771  1.00  0.00     0.054 C 
HETATM   11  C12 LIG X 999      45.062 132.316  23.049  1.00  0.00     0.023 C 
HETATM   12  C16 LIG X 999      43.012 131.858  21.670  1.00  0.00     0.028 C 
HETATM   13  C13 LIG X 999      44.325 131.809  24.306  1.00  0.00     0.002 C 
HETATM   14  C14 LIG X 999      42.800 131.961  24.177  1.00  0.00     0.001 C 
HETATM   15  C15 LIG X 999      42.262 131.306  22.894  1.00  0.00     0.010 C 
HETATM   16  C17 LIG X 999      42.476 131.352  20.353  1.00  0.00    -0.020 C 
HETATM   17  C18 LIG X 999      43.215 131.505  19.247  1.00  0.00     0.005 C 
BRANCH  10  18
HETATM   18  C10 LIG X 999      44.908 130.132  21.804  1.00  0.00     0.182 A 
HETATM   19  N2  LIG X 999      45.745 129.537  20.924  1.00  0.00    -0.149 NA
HETATM   20  N3  LIG X 999      45.749 128.254  21.244  1.00  0.00    -0.236 N 
HETATM   21  H13 LIG X 999      46.298 127.513  20.756  1.00  0.00     0.193 HD
HETATM   22  C11 LIG X 999      44.920 128.106  22.287  1.00  0.00     0.301 A 
HETATM   23  O1  LIG X 999      44.392 129.253  22.639  1.00  0.00    -0.257 OA
BRANCH  22  24
HETATM   24  N4  LIG X 999      44.647 126.858  22.920  1.00  0.00    -0.025 NA
HETATM   25  N5  LIG X 999      45.305 125.855  22.640  1.00  0.00    -0.158 NA
HETATM   26  N6  LIG X 999      45.962 124.853  22.360  1.00  0.00     0.068 N 
ENDBRANCH  22  24
ENDBRANCH  10  18
ENDBRANCH   7   8
ENDBRANCH   4   7
ENDBRANCH   3   4
TORSDOF 5
ENDMDL
MODEL 2
REMARK VINA RESULT:      -4.2      2.993      4.698
REMARK  5 active torsions:
REMARK  status: ('A' for Active; 'I' for Inactive)
REMARK    1  A    between atoms: C3_3  and  N1_4 
REMARK    2  A    between atoms: N1_4  and  C6_7 
REMARK    3  A    between atoms: C6_7  and  C7_8 
REMARK    4  A    between atoms: C9_10  and  C10_11 
REMARK    5  A    between atoms: C11_15  and  N4_16 
ROOT
HETATM    1  C1  LIG X 999      47.998 129.599  13.799  1.00  0.00     0.013 C 
HETATM    2  C2  LIG X 999      46.986 130.253  13.841  1.00  0.00    -0.089 C 
HETATM    3  C3  LIG X 999      45.747 131.054  13.891  1.00  0.00     0.329 C 
ENDROOT
BRANCH   3   4
HETATM    4  N1  LIG X 999      45.069 131.022  15.223  1.00  0.00    -0.061 N 
HETATM    5  C4  LIG X 999      45.044 129.615  15.698  1.00  0.00     0.273 C 
HETATM    6  C5  LIG X 999      43.659 131.467  15.075  1.00  0.00     0.273 C 
BRANCH   4   7
HETATM    7  C6  LIG X 999      45.738 131.901  16.236  1.00  0.00     0.275 C 
BRANCH   7   8
HETATM    8  C7  LIG X 999      45.543 131.465  17.676  1.00  0.00    -0.035 C 
HETATM    9  C8  LIG X 999      44.748 132.170  18.509  1.00  0.00     0.001 C 
HETATM   10  C9  LIG X 999      44.717 131.848  19.988  1.00  0.00     0.054 C 
HETATM   11  C12 LIG X 999      43.412 132.362  20.644  1.00  0.00     0.023 C 
HETATM   12  C16 LIG X 999      44.755 130.298  20.142  1.00  0.00     0.028 C 
HETATM   13  C13 LIG X 999      43.325 131.940  22.125  1.00  0.00     0.002 C 
HETATM   14  C14 LIG X 999      43.458 130.418  22.297  1.00  0.00     0.001 C 
HETATM   15  C15 LIG X 999      44.725 129.870  21.619  1.00  0.00     0.010 C 
HETATM   16  C17 LIG X 999      45.909 129.713  19.366  1.00  0.00    -0.020 C 
HETATM   17  C18 LIG X 999      46.226 130.239  18.175  1.00  0.00     0.005 C 
BRANCH  10  18
HETATM   18  C10 LIG X 999      45.924 132.536  20.608  1.00  0.00     0.182 A 
HETATM   19  N2  LIG X 999      47.043 131.889  21.007  1.00  0.00    -0.149 NA
HETATM   20  N3  LIG X 999      47.819 132.814  21.543  1.00  0.00    -0.236 N 
HETATM   21  H13 LIG X 999      48.765 132.644  21.951  1.00  0.00     0.193 HD
HETATM   22  C11 LIG X 999      47.158 133.977  21.466  1.00  0.00     0.301 A 
HETATM   23  O1  LIG X 999      45.988 133.820  20.897  1.00  0.00    -0.257 OA
BRANCH  22  24
HETATM   24  N4  LIG X 999      47.665 135.219  21.951  1.00  0.00    -0.025 NA
HETATM   25  N5  LIG X 999      48.258 135.992  21.198  1.00  0.00    -0.158 NA
HETATM   26  N6  LIG X 999      48.850 136.764  20.445  1.00  0.00     0.068 N 
ENDBRANCH  22  24
ENDBRANCH  10  18
ENDBRANCH   7   8
ENDBRANCH   4   7
ENDBRANCH   3   4
TORSDOF 5
ENDMDL
MODEL 3
REMARK VINA RESULT:      -4.0      2.831      4.094
REMARK  5 active torsions:
REMARK  status: ('A' for Active; 'I' for Inactive)
REMARK    1  A    between atoms: C3_3  and  N1_4 
REMARK    2  A    between atoms: N1_4  and  C6_7 
REMARK    3  A    between atoms: C6_7  and  C7_8 
REMARK    4  A    between atoms: C9_10  and  C10_11 
REMARK    5  A    between atoms: C11_15  and  N4_16 
ROOT
HETATM    1  C1  LIG X 999      46.501 130.600  14.145  1.00  0.00     0.013 C 
HETATM    2  C2  LIG X 999      46.167 131.341  15.036  1.00  0.00    -0.089 C 
HETATM    3  C3  LIG X 999      45.757 132.248  16.126  1.00  0.00     0.329 C 
ENDROOT
BRANCH   3   4
HETATM    4  N1  LIG X 999      44.986 131.568  17.211  1.00  0.00    -0.061 N 
HETATM    5  C4  LIG X 999      45.592 130.233  17.445  1.00  0.00     0.273 C 
HETATM    6  C5  LIG X 999      43.586 131.351  16.765  1.00  0.00     0.273 C 
BRANCH   4   7
HETATM    7  C6  LIG X 999      44.959 132.358  18.485  1.00  0.00     0.275 C 
BRANCH   7   8
HETATM    8  C7  LIG X 999      44.888 131.518  19.746  1.00  0.00    -0.035 C 
HETATM    9  C8  LIG X 999      43.843 131.631  20.593  1.00  0.00     0.001 C 
HETATM   10  C9  LIG X 999      43.876 130.943  21.941  1.00  0.00     0.054 C 
HETATM   11  C12 LIG X 999      42.446 130.743  22.501  1.00  0.00     0.023 C 
HETATM   12  C16 LIG X 999      44.516 129.536  21.745  1.00  0.00     0.028 C 
HETATM   13  C13 LIG X 999      42.467 129.945  23.820  1.00  0.00     0.002 C 
HETATM   14  C14 LIG X 999      43.183 128.593  23.662  1.00  0.00     0.001 C 
HETATM   15  C15 LIG X 999      44.592 128.754  23.067  1.00  0.00     0.010 C 
HETATM   16  C17 LIG X 999      45.841 129.648  21.032  1.00  0.00    -0.020 C 
HETATM   17  C18 LIG X 999      45.977 130.547  20.048  1.00  0.00     0.005 C 
BRANCH  10  18
HETATM   18  C10 LIG X 999      44.684 131.839  22.867  1.00  0.00     0.182 A 
HETATM   19  N2  LIG X 999      44.451 131.963  24.194  1.00  0.00    -0.149 NA
HETATM   20  N3  LIG X 999      45.311 132.870  24.625  1.00  0.00    -0.236 N 
HETATM   21  H13 LIG X 999      45.394 133.199  25.611  1.00  0.00     0.193 HD
HETATM   22  C11 LIG X 999      46.024 133.272  23.564  1.00  0.00     0.301 A 
HETATM   23  O1  LIG X 999      45.646 132.649  22.475  1.00  0.00    -0.257 OA
BRANCH  22  24
HETATM   24  N4  LIG X 999      47.053 134.258  23.620  1.00  0.00    -0.025 NA
HETATM   25  N5  LIG X 999      47.821 134.418  22.670  1.00  0.00    -0.158 NA
HETATM   26  N6  LIG X 999      48.587 134.579  21.722  1.00  0.00     0.068 N 
ENDBRANCH  22  24
ENDBRANCH  10  18
ENDBRANCH   7   8
ENDBRANCH   4   7
ENDBRANCH   3   4
TORSDOF 5
ENDMDL
MODEL 4
REMARK VINA RESULT:      -3.8      4.063      6.388
REMARK  5 active torsions:
REMARK  status: ('A' for Active; 'I' for Inactive)
REMARK    1  A    between atoms: C3_3  and  N1_4 
REMARK    2  A    between atoms: N1_4  and  C6_7 
REMARK    3  A    between atoms: C6_7  and  C7_8 
REMARK    4  A    between atoms: C9_10  and  C10_11 
REMARK    5  A    between atoms: C11_15  and  N4_16 
ROOT
HETATM    1  C1  LIG X 999      50.740 125.050  21.433  1.00  0.00     0.013 C 
HETATM    2  C2  LIG X 999      49.914 125.344  22.260  1.00  0.00    -0.089 C 
HETATM    3  C3  LIG X 999      48.904 125.707  23.273  1.00  0.00     0.329 C 
ENDROOT
BRANCH   3   4
HETATM    4  N1  LIG X 999      47.879 124.642  23.501  1.00  0.00    -0.061 N 
HETATM    5  C4  LIG X 999      48.525 123.523  24.232  1.00  0.00     0.273 C 
HETATM    6  C5  LIG X 999      47.414 124.111  22.194  1.00  0.00     0.273 C 
BRANCH   4   7
HETATM    7  C6  LIG X 999      46.685 125.139  24.261  1.00  0.00     0.275 C 
BRANCH   7   8
HETATM    8  C7  LIG X 999      45.981 126.322  23.624  1.00  0.00    -0.035 C 
HETATM    9  C8  LIG X 999      45.494 127.326  24.383  1.00  0.00     0.001 C 
HETATM   10  C9  LIG X 999      44.621 128.397  23.764  1.00  0.00     0.054 C 
HETATM   11  C12 LIG X 999      44.622 129.685  24.624  1.00  0.00     0.023 C 
HETATM   12  C16 LIG X 999      45.215 128.751  22.368  1.00  0.00     0.028 C 
HETATM   13  C13 LIG X 999      43.824 130.814  23.943  1.00  0.00     0.002 C 
HETATM   14  C14 LIG X 999      44.341 131.107  22.525  1.00  0.00     0.001 C 
HETATM   15  C15 LIG X 999      44.392 129.839  21.657  1.00  0.00     0.010 C 
HETATM   16  C17 LIG X 999      45.413 127.505  21.541  1.00  0.00    -0.020 C 
HETATM   17  C18 LIG X 999      45.835 126.384  22.142  1.00  0.00     0.005 C 
BRANCH  10  18
HETATM   18  C10 LIG X 999      43.216 127.819  23.683  1.00  0.00     0.182 A 
HETATM   19  N2  LIG X 999      42.092 128.522  23.947  1.00  0.00    -0.149 NA
HETATM   20  N3  LIG X 999      41.095 127.661  23.830  1.00  0.00    -0.236 N 
HETATM   21  H13 LIG X 999      40.086 127.885  23.971  1.00  0.00     0.193 HD
HETATM   22  C11 LIG X 999      41.634 126.476  23.511  1.00  0.00     0.301 A 
HETATM   23  O1  LIG X 999      42.939 126.557  23.422  1.00  0.00    -0.257 OA
BRANCH  22  24
HETATM   24  N4  LIG X 999      40.879 125.284  23.306  1.00  0.00    -0.025 NA
HETATM   25  N5  LIG X 999      41.176 124.499  22.405  1.00  0.00    -0.158 NA
HETATM   26  N6  LIG X 999      41.474 123.716  21.505  1.00  0.00     0.068 N 
ENDBRANCH  22  24
ENDBRANCH  10  18
ENDBRANCH   7   8
ENDBRANCH   4   7
ENDBRANCH   3   4
TORSDOF 5
ENDMDL
MODEL 5
REMARK VINA RESULT:      -3.7      5.505      8.257
REMARK  5 active torsions:
REMARK  status: ('A' for Active; 'I' for Inactive)
REMARK    1  A    between atoms: C3_3  and  N1_4 
REMARK    2  A    between atoms: N1_4  and  C6_7 
REMARK    3  A    between atoms: C6_7  and  C7_8 
REMARK    4  A    between atoms: C9_10  and  C10_11 
REMARK    5  A    between atoms: C11_15  and  N4_16 
ROOT
HETATM    1  C1  LIG X 999      53.050 124.849  18.310  1.00  0.00     0.013 C 
HETATM    2  C2  LIG X 999      52.072 124.460  18.897  1.00  0.00    -0.089 C 
HETATM    3  C3  LIG X 999      50.874 123.983  19.614  1.00  0.00     0.329 C 
ENDROOT
BRANCH   3   4
HETATM    4  N1  LIG X 999      51.101 123.763  21.075  1.00  0.00    -0.061 N 
HETATM    5  C4  LIG X 999      52.565 123.673  21.310  1.00  0.00     0.273 C 
HETATM    6  C5  LIG X 999      50.504 122.464  21.482  1.00  0.00     0.273 C 
BRANCH   4   7
HETATM    7  C6  LIG X 999      50.503 124.844  21.925  1.00  0.00     0.275 C 
BRANCH   7   8
HETATM    8  C7  LIG X 999      49.186 124.475  22.580  1.00  0.00    -0.035 C 
HETATM    9  C8  LIG X 999      48.065 124.333  21.841  1.00  0.00     0.001 C 
HETATM   10  C9  LIG X 999      46.721 124.164  22.520  1.00  0.00     0.054 C 
HETATM   11  C12 LIG X 999      45.696 123.497  21.569  1.00  0.00     0.023 C 
HETATM   12  C16 LIG X 999      46.919 123.226  23.748  1.00  0.00     0.028 C 
HETATM   13  C13 LIG X 999      44.360 123.223  22.290  1.00  0.00     0.002 C 
HETATM   14  C14 LIG X 999      44.556 122.377  23.558  1.00  0.00     0.001 C 
HETATM   15  C15 LIG X 999      45.601 122.991  24.505  1.00  0.00     0.010 C 
HETATM   16  C17 LIG X 999      48.040 123.725  24.625  1.00  0.00    -0.020 C 
HETATM   17  C18 LIG X 999      49.129 124.255  24.052  1.00  0.00     0.005 C 
BRANCH  10  18
HETATM   18  C10 LIG X 999      46.252 125.558  22.907  1.00  0.00     0.182 A 
HETATM   19  N2  LIG X 999      46.351 126.072  24.154  1.00  0.00    -0.149 NA
HETATM   20  N3  LIG X 999      45.782 127.264  24.096  1.00  0.00    -0.236 N 
HETATM   21  H13 LIG X 999      45.691 127.927  24.897  1.00  0.00     0.193 HD
HETATM   22  C11 LIG X 999      45.351 127.434  22.839  1.00  0.00     0.301 A 
HETATM   23  O1  LIG X 999      45.629 126.391  22.097  1.00  0.00    -0.257 OA
BRANCH  22  24
HETATM   24  N4  LIG X 999      44.670 128.600  22.379  1.00  0.00    -0.025 NA
HETATM   25  N5  LIG X 999      43.899 129.211  23.121  1.00  0.00    -0.158 NA
HETATM   26  N6  LIG X 999      43.130 129.820  23.861  1.00  0.00     0.068 N 
ENDBRANCH  22  24
ENDBRANCH  10  18
ENDBRANCH   7   8
ENDBRANCH   4   7
ENDBRANCH   3   4
TORSDOF 5
ENDMDL
MODEL 6
REMARK VINA RESULT:      -3.3      3.104      6.518
REMARK  5 active torsions:
REMARK  status: ('A' for Active; 'I' for Inactive)
REMARK    1  A    between atoms: C3_3  and  N1_4 
REMARK    2  A    between atoms: N1_4  and  C6_7 
REMARK    3  A    between atoms: C6_7  and  C7_8 
REMARK    4  A    between atoms: C9_10  and  C10_11 
REMARK    5  A    between atoms: C11_15  and  N4_16 
ROOT
HETATM    1  C1  LIG X 999      42.678 124.036  22.298  1.00  0.00     0.013 C 
HETATM    2  C2  LIG X 999      42.894 125.130  22.753  1.00  0.00    -0.089 C 
HETATM    3  C3  LIG X 999      43.157 126.471  23.312  1.00  0.00     0.329 C 
ENDROOT
BRANCH   3   4
HETATM    4  N1  LIG X 999      44.609 126.750  23.536  1.00  0.00    -0.061 N 
HETATM    5  C4  LIG X 999      45.324 126.550  22.250  1.00  0.00     0.273 C 
HETATM    6  C5  LIG X 999      45.159 125.772  24.509  1.00  0.00     0.273 C 
BRANCH   4   7
HETATM    7  C6  LIG X 999      44.859 128.132  24.062  1.00  0.00     0.275 C 
BRANCH   7   8
HETATM    8  C7  LIG X 999      44.436 129.248  23.126  1.00  0.00    -0.035 C 
HETATM    9  C8  LIG X 999      45.091 129.461  21.965  1.00  0.00     0.001 C 
HETATM   10  C9  LIG X 999      44.795 130.694  21.138  1.00  0.00     0.054 C 
HETATM   11  C12 LIG X 999      45.215 130.489  19.661  1.00  0.00     0.023 C 
HETATM   12  C16 LIG X 999      43.256 130.935  21.171  1.00  0.00     0.028 C 
HETATM   13  C13 LIG X 999      44.816 131.699  18.792  1.00  0.00     0.002 C 
HETATM   14  C14 LIG X 999      43.312 132.006  18.892  1.00  0.00     0.001 C 
HETATM   15  C15 LIG X 999      42.854 132.172  20.351  1.00  0.00     0.010 C 
HETATM   16  C17 LIG X 999      42.750 130.960  22.591  1.00  0.00    -0.020 C 
HETATM   17  C18 LIG X 999      43.277 130.113  23.486  1.00  0.00     0.005 C 
BRANCH  10  18
HETATM   18  C10 LIG X 999      45.588 131.835  21.758  1.00  0.00     0.182 A 
HETATM   19  N2  LIG X 999      45.273 132.424  22.934  1.00  0.00    -0.149 NA
HETATM   20  N3  LIG X 999      46.152 133.399  23.092  1.00  0.00    -0.236 N 
HETATM   21  H13 LIG X 999      46.187 134.052  23.905  1.00  0.00     0.193 HD
HETATM   22  C11 LIG X 999      46.957 133.381  22.021  1.00  0.00     0.301 A 
HETATM   23  O1  LIG X 999      46.618 132.426  21.189  1.00  0.00    -0.257 OA
BRANCH  22  24
HETATM   24  N4  LIG X 999      48.034 134.292  21.816  1.00  0.00    -0.025 NA
HETATM   25  N5  LIG X 999      48.921 134.416  22.661  1.00  0.00    -0.158 NA
HETATM   26  N6  LIG X 999      49.807 134.540  23.506  1.00  0.00     0.068 N 
ENDBRANCH  22  24
ENDBRANCH  10  18
ENDBRANCH   7   8
ENDBRANCH   4   7
ENDBRANCH   3   4
TORSDOF 5
ENDMDL
