REMARK VINA RESULT:      -6.8      1.534      2.501
REMARK  7 active torsions:
REMARK  status: ('A' for Active; 'I' for Inactive)
REMARK    1  A    between atoms: N1_2  and  C2_3 
REMARK    2  A    between atoms: C2_3  and  C4_5 
REMARK    3  A    between atoms: C4_5  and  C5_6 
REMARK    4  A    between atoms: C5_6  and  C6_7 
REMARK    5  A    between atoms: C6_7  and  C7_8 
REMARK    6  A    between atoms: C7_8  and  N2_9 
REMARK    7  A    between atoms: N2_9  and  C8_10 
ROOT
HETATM    1  C8  LIG X 999      42.500 128.573  23.590  1.00  0.00     0.226 C 
HETATM    2  C9  LIG X 999      43.308 127.435  23.564  1.00  0.00     0.065 C 
HETATM    3  C10 LIG X 999      42.750 126.161  23.760  1.00  0.00    -0.045 C 
HETATM    4  C11 LIG X 999      43.728 125.042  24.016  1.00  0.00     0.049 C 
HETATM    5  C12 LIG X 999      41.326 126.026  23.844  1.00  0.00     0.010 C 
HETATM    6  C13 LIG X 999      40.577 127.230  23.984  1.00  0.00     0.070 C 
HETATM    7  C14 LIG X 999      39.219 127.196  24.299  1.00  0.00     0.033 C 
HETATM    8  C15 LIG X 999      38.564 125.985  24.469  1.00  0.00     0.014 C 
HETATM    9  C16 LIG X 999      39.230 124.782  24.217  1.00  0.00    -0.025 C 
HETATM   10  C17 LIG X 999      38.515 123.575  24.292  1.00  0.00     0.012 C 
HETATM   11  C18 LIG X 999      39.117 122.377  23.917  1.00  0.00     0.001 C 
HETATM   12  C19 LIG X 999      40.420 122.378  23.428  1.00  0.00     0.001 C 
HETATM   13  C20 LIG X 999      41.148 123.568  23.361  1.00  0.00     0.013 C 
HETATM   14  C21 LIG X 999      40.603 124.786  23.834  1.00  0.00    -0.013 C 
HETATM   15  N3  LIG X 999      41.173 128.441  23.834  1.00  0.00    -0.224 NA
ENDROOT
BRANCH   1  16
HETATM   16  N2  LIG X 999      43.064 129.884  23.389  1.00  0.00    -0.028 N 
HETATM   17  H17 LIG X 999      43.313 130.295  24.319  1.00  0.00     0.285 HD
HETATM   18  H18 LIG X 999      42.355 130.514  22.946  1.00  0.00     0.285 HD
BRANCH  16  19
HETATM   19  C7  LIG X 999      44.275 129.825  22.554  1.00  0.00     0.240 C 
BRANCH  19  20
HETATM   20  C6  LIG X 999      44.598 131.184  21.907  1.00  0.00     0.028 C 
BRANCH  20  21
HETATM   21  C5  LIG X 999      45.124 131.003  20.478  1.00  0.00     0.004 C 
BRANCH  21  22
HETATM   22  C4  LIG X 999      44.256 131.779  19.470  1.00  0.00     0.035 C 
BRANCH  22  23
HETATM   23  C2  LIG X 999      44.778 131.702  18.016  1.00  0.00     0.216 C 
HETATM   24  C3  LIG X 999      45.666 130.461  17.811  1.00  0.00     0.042 C 
BRANCH  23  25
HETATM   25  N1  LIG X 999      43.652 131.711  17.059  1.00  0.00     0.083 N 
HETATM   26  C1  LIG X 999      44.096 131.466  15.684  1.00  0.00     0.307 C 
HETATM   27  H4  LIG X 999      43.223 132.666  17.063  1.00  0.00     0.315 HD
ENDBRANCH  23  25
ENDBRANCH  22  23
ENDBRANCH  21  22
ENDBRANCH  20  21
ENDBRANCH  19  20
ENDBRANCH  16  19
ENDBRANCH   1  16
TORSDOF 7
