REMARK VINA RESULT:      -5.1      3.059      6.906
REMARK  6 active torsions:
REMARK  status: ('A' for Active; 'I' for Inactive)
REMARK    1  A    between atoms: S1_2  and  C1_3 
REMARK    2  A    between atoms: C1_3  and  N2_15 
REMARK    3  A    between atoms: N1_4  and  C2_5 
REMARK    4  A    between atoms: N2_15  and  C12_18 
REMARK    5  A    between atoms: C13_19  and  C14_20 
REMARK    6  A    between atoms: C14_20  and  O2_22 
ROOT
HETATM    1  C1  LIG X 999      44.249 130.583  23.768  1.00  0.00     0.266 C 
HETATM    2  N1  LIG X 999      43.838 129.529  24.414  1.00  0.00    -0.219 NA
ENDROOT
BRANCH   1   3
HETATM    3  S1  LIG X 999      44.250 132.156  24.625  1.00  0.00    -0.098 SA
HETATM    4  H1  LIG X 999      44.989 131.627  25.699  1.00  0.00     0.110 HD
ENDBRANCH   1   3
BRANCH   1   5
HETATM    5  N2  LIG X 999      44.738 130.512  22.410  1.00  0.00     0.010 N 
HETATM    6  H9  LIG X 999      44.758 129.513  22.100  1.00  0.00     0.293 HD
HETATM    7  H10 LIG X 999      45.716 130.863  22.394  1.00  0.00     0.293 HD
BRANCH   5   8
HETATM    8  C12 LIG X 999      43.866 131.236  21.513  1.00  0.00     0.164 A 
HETATM    9  C13 LIG X 999      44.135 131.497  20.157  1.00  0.00     0.114 A 
HETATM   10  S2  LIG X 999      42.879 132.440  19.557  1.00  0.00    -0.094 SA
HETATM   11  C16 LIG X 999      41.968 132.501  20.964  1.00  0.00     0.053 A 
HETATM   12  C17 LIG X 999      42.639 131.783  21.942  1.00  0.00     0.046 A 
BRANCH   9  13
HETATM   13  C14 LIG X 999      45.261 131.045  19.320  1.00  0.00     0.302 C 
HETATM   14  O1  LIG X 999      46.126 130.247  19.772  1.00  0.00    -0.259 OA
BRANCH  13  15
HETATM   15  O2  LIG X 999      45.334 131.479  17.993  1.00  0.00    -0.322 OA
HETATM   16  C15 LIG X 999      45.666 130.609  16.917  1.00  0.00     0.213 C 
ENDBRANCH  13  15
ENDBRANCH   9  13
ENDBRANCH   5   8
ENDBRANCH   1   5
BRANCH   2  17
HETATM   17  C2  LIG X 999      43.741 128.211  23.863  1.00  0.00     0.060 A 
HETATM   18  C3  LIG X 999      44.888 127.586  23.361  1.00  0.00     0.032 A 
HETATM   19  C4  LIG X 999      44.811 126.304  22.811  1.00  0.00     0.014 A 
HETATM   20  C5  LIG X 999      43.586 125.624  22.781  1.00  0.00    -0.026 A 
HETATM   21  C6  LIG X 999      43.495 124.335  22.232  1.00  0.00     0.012 A 
HETATM   22  C10 LIG X 999      42.427 126.241  23.315  1.00  0.00    -0.024 A 
HETATM   23  C7  LIG X 999      42.269 123.661  22.222  1.00  0.00     0.001 A 
HETATM   24  C8  LIG X 999      41.129 124.268  22.755  1.00  0.00     0.001 A 
HETATM   25  C9  LIG X 999      41.203 125.554  23.298  1.00  0.00     0.012 A 
HETATM   26  C11 LIG X 999      42.515 127.533  23.854  1.00  0.00     0.044 A 
ENDBRANCH   2  17
TORSDOF 6
