MODEL 1
REMARK VINA RESULT:      -8.2      0.000      0.000
REMARK  5 active torsions:
REMARK  status: ('A' for Active; 'I' for Inactive)
REMARK    1  A    between atoms: N1_1  and  C1_2 
REMARK    2  A    between atoms: C1_2  and  C2_3 
REMARK    3  A    between atoms: C2_3  and  C3_4 
REMARK    4  A    between atoms: C3_4  and  O1_5 
REMARK    5  A    between atoms: O1_5  and  C4_6 
ROOT
HETATM    1  C4  LIG X 999      45.237 131.415  17.254  1.00  0.00     0.069 A 
HETATM    2  C5  LIG X 999      45.566 130.070  17.511  1.00  0.00     0.037 A 
HETATM    3  C6  LIG X 999      46.323 129.338  16.592  1.00  0.00     0.015 A 
HETATM    4  C7  LIG X 999      46.765 129.936  15.405  1.00  0.00    -0.026 A 
HETATM    5  C8  LIG X 999      47.526 129.210  14.476  1.00  0.00     0.012 A 
HETATM    6  C9  LIG X 999      47.961 129.820  13.295  1.00  0.00     0.001 A 
HETATM    7  C10 LIG X 999      47.638 131.154  13.033  1.00  0.00     0.001 A 
HETATM    8  C11 LIG X 999      46.881 131.888  13.949  1.00  0.00     0.012 A 
HETATM    9  C12 LIG X 999      46.438 131.288  15.139  1.00  0.00    -0.023 A 
HETATM   10  C13 LIG X 999      45.678 132.015  16.067  1.00  0.00     0.049 A 
ENDROOT
BRANCH   1  11
HETATM   11  O1  LIG X 999      44.480 132.187  18.146  1.00  0.00    -0.351 OA
BRANCH  11  12
HETATM   12  C3  LIG X 999      44.527 132.059  19.566  1.00  0.00     0.177 C 
BRANCH  12  13
HETATM   13  C2  LIG X 999      43.146 131.681  20.106  1.00  0.00     0.056 C 
BRANCH  13  14
HETATM   14  C1  LIG X 999      42.081 132.755  19.850  1.00  0.00     0.269 C 
BRANCH  14  15
HETATM   15  N1  LIG X 999      41.636 132.731  18.459  1.00  0.00     0.078 N 
HETATM   16  H1  LIG X 999      42.159 131.975  17.959  1.00  0.00     0.312 HD
HETATM   17  H2  LIG X 999      40.632 132.441  18.450  1.00  0.00     0.312 HD
ENDBRANCH  14  15
ENDBRANCH  13  14
ENDBRANCH  12  13
ENDBRANCH  11  12
ENDBRANCH   1  11
TORSDOF 5
ENDMDL
MODEL 2
REMARK VINA RESULT:      -8.1      0.705      1.816
REMARK  5 active torsions:
REMARK  status: ('A' for Active; 'I' for Inactive)
REMARK    1  A    between atoms: N1_1  and  C1_2 
REMARK    2  A    between atoms: C1_2  and  C2_3 
REMARK    3  A    between atoms: C2_3  and  C3_4 
REMARK    4  A    between atoms: C3_4  and  O1_5 
REMARK    5  A    between atoms: O1_5  and  C4_6 
ROOT
HETATM    1  C4  LIG X 999      45.468 130.979  17.287  1.00  0.00     0.069 A 
HETATM    2  C5  LIG X 999      45.302 132.187  16.582  1.00  0.00     0.037 A 
HETATM    3  C6  LIG X 999      45.881 132.356  15.321  1.00  0.00     0.015 A 
HETATM    4  C7  LIG X 999      46.632 131.323  14.744  1.00  0.00    -0.026 A 
HETATM    5  C8  LIG X 999      47.217 131.483  13.478  1.00  0.00     0.012 A 
HETATM    6  C9  LIG X 999      47.965 130.444  12.915  1.00  0.00     0.001 A 
HETATM    7  C10 LIG X 999      48.133 129.243  13.609  1.00  0.00     0.001 A 
HETATM    8  C11 LIG X 999      47.556 129.071  14.869  1.00  0.00     0.012 A 
HETATM    9  C12 LIG X 999      46.803 130.106  15.447  1.00  0.00    -0.023 A 
HETATM   10  C13 LIG X 999      46.218 129.946  16.712  1.00  0.00     0.049 A 
ENDROOT
BRANCH   1  11
HETATM   11  O1  LIG X 999      44.905 130.765  18.553  1.00  0.00    -0.351 OA
BRANCH  11  12
HETATM   12  C3  LIG X 999      44.876 131.735  19.598  1.00  0.00     0.177 C 
BRANCH  12  13
HETATM   13  C2  LIG X 999      43.584 131.595  20.409  1.00  0.00     0.056 C 
BRANCH  13  14
HETATM   14  C1  LIG X 999      42.446 132.483  19.891  1.00  0.00     0.269 C 
BRANCH  14  15
HETATM   15  N1  LIG X 999      42.222 132.268  18.463  1.00  0.00     0.078 N 
HETATM   16  H1  LIG X 999      41.498 132.948  18.138  1.00  0.00     0.312 HD
HETATM   17  H2  LIG X 999      43.103 132.522  17.960  1.00  0.00     0.312 HD
ENDBRANCH  14  15
ENDBRANCH  13  14
ENDBRANCH  12  13
ENDBRANCH  11  12
ENDBRANCH   1  11
TORSDOF 5
ENDMDL
MODEL 3
REMARK VINA RESULT:      -8.0      2.638      6.405
REMARK  5 active torsions:
REMARK  status: ('A' for Active; 'I' for Inactive)
REMARK    1  A    between atoms: N1_1  and  C1_2 
REMARK    2  A    between atoms: C1_2  and  C2_3 
REMARK    3  A    between atoms: C2_3  and  C3_4 
REMARK    4  A    between atoms: C3_4  and  O1_5 
REMARK    5  A    between atoms: O1_5  and  C4_6 
ROOT
HETATM    1  C4  LIG X 999      45.262 131.064  16.954  1.00  0.00     0.069 A 
HETATM    2  C5  LIG X 999      43.957 131.553  16.749  1.00  0.00     0.037 A 
HETATM    3  C6  LIG X 999      43.127 131.833  17.837  1.00  0.00     0.015 A 
HETATM    4  C7  LIG X 999      43.585 131.632  19.145  1.00  0.00    -0.026 A 
HETATM    5  C8  LIG X 999      42.759 131.911  20.246  1.00  0.00     0.012 A 
HETATM    6  C9  LIG X 999      43.229 131.705  21.546  1.00  0.00     0.001 A 
HETATM    7  C10 LIG X 999      44.523 131.221  21.758  1.00  0.00     0.001 A 
HETATM    8  C11 LIG X 999      45.355 130.939  20.671  1.00  0.00     0.012 A 
HETATM    9  C12 LIG X 999      44.896 131.141  19.360  1.00  0.00    -0.023 A 
HETATM   10  C13 LIG X 999      45.722 130.862  18.261  1.00  0.00     0.049 A 
ENDROOT
BRANCH   1  11
HETATM   11  O1  LIG X 999      46.130 130.770  15.893  1.00  0.00    -0.351 OA
BRANCH  11  12
HETATM   12  C3  LIG X 999      46.481 131.686  14.858  1.00  0.00     0.177 C 
BRANCH  12  13
HETATM   13  C2  LIG X 999      46.605 130.949  13.522  1.00  0.00     0.056 C 
BRANCH  13  14
HETATM   14  C1  LIG X 999      47.933 130.197  13.367  1.00  0.00     0.269 C 
BRANCH  14  15
HETATM   15  N1  LIG X 999      47.933 128.968  14.156  1.00  0.00     0.078 N 
HETATM   16  H1  LIG X 999      47.195 129.048  14.892  1.00  0.00     0.312 HD
HETATM   17  H2  LIG X 999      47.632 128.187  13.530  1.00  0.00     0.312 HD
ENDBRANCH  14  15
ENDBRANCH  13  14
ENDBRANCH  12  13
ENDBRANCH  11  12
ENDBRANCH   1  11
TORSDOF 5
ENDMDL
MODEL 4
REMARK VINA RESULT:      -7.6      2.237      6.247
REMARK  5 active torsions:
REMARK  status: ('A' for Active; 'I' for Inactive)
REMARK    1  A    between atoms: N1_1  and  C1_2 
REMARK    2  A    between atoms: C1_2  and  C2_3 
REMARK    3  A    between atoms: C2_3  and  C3_4 
REMARK    4  A    between atoms: C3_4  and  O1_5 
REMARK    5  A    between atoms: O1_5  and  C4_6 
ROOT
HETATM    1  C4  LIG X 999      44.758 131.367  17.527  1.00  0.00     0.069 A 
HETATM    2  C5  LIG X 999      45.802 130.718  18.216  1.00  0.00     0.037 A 
HETATM    3  C6  LIG X 999      45.757 130.584  19.606  1.00  0.00     0.015 A 
HETATM    4  C7  LIG X 999      44.670 131.091  20.330  1.00  0.00    -0.026 A 
HETATM    5  C8  LIG X 999      44.615 130.960  21.727  1.00  0.00     0.012 A 
HETATM    6  C9  LIG X 999      43.525 131.472  22.437  1.00  0.00     0.001 A 
HETATM    7  C10 LIG X 999      42.485 132.117  21.760  1.00  0.00     0.001 A 
HETATM    8  C11 LIG X 999      42.528 132.254  20.371  1.00  0.00     0.012 A 
HETATM    9  C12 LIG X 999      43.617 131.745  19.645  1.00  0.00    -0.023 A 
HETATM   10  C13 LIG X 999      43.671 131.875  18.250  1.00  0.00     0.049 A 
ENDROOT
BRANCH   1  11
HETATM   11  O1  LIG X 999      44.761 131.525  16.134  1.00  0.00    -0.351 OA
BRANCH  11  12
HETATM   12  C3  LIG X 999      45.906 131.889  15.365  1.00  0.00     0.177 C 
BRANCH  12  13
HETATM   13  C2  LIG X 999      46.047 130.956  14.159  1.00  0.00     0.056 C 
BRANCH  13  14
HETATM   14  C1  LIG X 999      46.714 129.619  14.505  1.00  0.00     0.269 C 
BRANCH  14  15
HETATM   15  N1  LIG X 999      45.803 128.758  15.256  1.00  0.00     0.078 N 
HETATM   16  H1  LIG X 999      46.272 127.835  15.407  1.00  0.00     0.312 HD
HETATM   17  H2  LIG X 999      45.679 129.176  16.205  1.00  0.00     0.312 HD
ENDBRANCH  14  15
ENDBRANCH  13  14
ENDBRANCH  12  13
ENDBRANCH  11  12
ENDBRANCH   1  11
TORSDOF 5
ENDMDL
MODEL 5
REMARK VINA RESULT:      -6.8      2.227      2.911
REMARK  5 active torsions:
REMARK  status: ('A' for Active; 'I' for Inactive)
REMARK    1  A    between atoms: N1_1  and  C1_2 
REMARK    2  A    between atoms: C1_2  and  C2_3 
REMARK    3  A    between atoms: C2_3  and  C3_4 
REMARK    4  A    between atoms: C3_4  and  O1_5 
REMARK    5  A    between atoms: O1_5  and  C4_6 
ROOT
HETATM    1  C4  LIG X 999      44.677 131.154  18.711  1.00  0.00     0.069 A 
HETATM    2  C5  LIG X 999      43.616 131.732  17.987  1.00  0.00     0.037 A 
HETATM    3  C6  LIG X 999      43.645 131.762  16.591  1.00  0.00     0.015 A 
HETATM    4  C7  LIG X 999      44.732 131.215  15.895  1.00  0.00    -0.026 A 
HETATM    5  C8  LIG X 999      44.771 131.240  14.492  1.00  0.00     0.012 A 
HETATM    6  C9  LIG X 999      45.862 130.691  13.811  1.00  0.00     0.001 A 
HETATM    7  C10 LIG X 999      46.918 130.117  14.523  1.00  0.00     0.001 A 
HETATM    8  C11 LIG X 999      46.892 130.086  15.919  1.00  0.00     0.012 A 
HETATM    9  C12 LIG X 999      45.803 130.633  16.616  1.00  0.00    -0.023 A 
HETATM   10  C13 LIG X 999      45.764 130.608  18.018  1.00  0.00     0.049 A 
ENDROOT
BRANCH   1  11
HETATM   11  O1  LIG X 999      44.690 131.102  20.113  1.00  0.00    -0.351 OA
BRANCH  11  12
HETATM   12  C3  LIG X 999      43.619 131.539  20.947  1.00  0.00     0.177 C 
BRANCH  12  13
HETATM   13  C2  LIG X 999      43.937 131.235  22.414  1.00  0.00     0.056 C 
BRANCH  13  14
HETATM   14  C1  LIG X 999      42.798 131.612  23.370  1.00  0.00     0.269 C 
BRANCH  14  15
HETATM   15  N1  LIG X 999      42.020 130.434  23.748  1.00  0.00     0.078 N 
HETATM   16  H1  LIG X 999      41.552 130.629  24.663  1.00  0.00     0.312 HD
HETATM   17  H2  LIG X 999      41.250 130.323  23.049  1.00  0.00     0.312 HD
ENDBRANCH  14  15
ENDBRANCH  13  14
ENDBRANCH  12  13
ENDBRANCH  11  12
ENDBRANCH   1  11
TORSDOF 5
ENDMDL
MODEL 6
REMARK VINA RESULT:      -6.1      1.908      2.685
REMARK  5 active torsions:
REMARK  status: ('A' for Active; 'I' for Inactive)
REMARK    1  A    between atoms: N1_1  and  C1_2 
REMARK    2  A    between atoms: C1_2  and  C2_3 
REMARK    3  A    between atoms: C2_3  and  C3_4 
REMARK    4  A    between atoms: C3_4  and  O1_5 
REMARK    5  A    between atoms: O1_5  and  C4_6 
ROOT
HETATM    1  C4  LIG X 999      44.074 131.124  16.437  1.00  0.00     0.069 A 
HETATM    2  C5  LIG X 999      43.761 131.843  15.267  1.00  0.00     0.037 A 
HETATM    3  C6  LIG X 999      44.616 131.804  14.162  1.00  0.00     0.015 A 
HETATM    4  C7  LIG X 999      45.794 131.047  14.207  1.00  0.00    -0.026 A 
HETATM    5  C8  LIG X 999      46.659 131.002  13.102  1.00  0.00     0.012 A 
HETATM    6  C9  LIG X 999      47.832 130.242  13.160  1.00  0.00     0.001 A 
HETATM    7  C10 LIG X 999      48.149 129.527  14.318  1.00  0.00     0.001 A 
HETATM    8  C11 LIG X 999      47.296 129.564  15.425  1.00  0.00     0.012 A 
HETATM    9  C12 LIG X 999      46.116 130.322  15.379  1.00  0.00    -0.023 A 
HETATM   10  C13 LIG X 999      45.251 130.367  16.483  1.00  0.00     0.049 A 
ENDROOT
BRANCH   1  11
HETATM   11  O1  LIG X 999      43.246 131.133  17.569  1.00  0.00    -0.351 OA
BRANCH  11  12
HETATM   12  C3  LIG X 999      43.549 131.813  18.785  1.00  0.00     0.177 C 
BRANCH  12  13
HETATM   13  C2  LIG X 999      45.055 131.766  19.054  1.00  0.00     0.056 C 
BRANCH  13  14
HETATM   14  C1  LIG X 999      45.399 131.464  20.518  1.00  0.00     0.269 C 
BRANCH  14  15
HETATM   15  N1  LIG X 999      46.088 130.181  20.640  1.00  0.00     0.078 N 
HETATM   16  H1  LIG X 999      45.406 129.419  20.423  1.00  0.00     0.312 HD
HETATM   17  H2  LIG X 999      46.817 130.138  19.893  1.00  0.00     0.312 HD
ENDBRANCH  14  15
ENDBRANCH  13  14
ENDBRANCH  12  13
ENDBRANCH  11  12
ENDBRANCH   1  11
TORSDOF 5
ENDMDL
MODEL 7
REMARK VINA RESULT:      -6.0      2.649      6.983
REMARK  5 active torsions:
REMARK  status: ('A' for Active; 'I' for Inactive)
REMARK    1  A    between atoms: N1_1  and  C1_2 
REMARK    2  A    between atoms: C1_2  and  C2_3 
REMARK    3  A    between atoms: C2_3  and  C3_4 
REMARK    4  A    between atoms: C3_4  and  O1_5 
REMARK    5  A    between atoms: O1_5  and  C4_6 
ROOT
HETATM    1  C4  LIG X 999      43.506 131.759  18.492  1.00  0.00     0.069 A 
HETATM    2  C5  LIG X 999      42.315 132.439  18.811  1.00  0.00     0.037 A 
HETATM    3  C6  LIG X 999      41.911 132.571  20.142  1.00  0.00     0.015 A 
HETATM    4  C7  LIG X 999      42.688 132.029  21.174  1.00  0.00    -0.026 A 
HETATM    5  C8  LIG X 999      42.290 132.156  22.514  1.00  0.00     0.012 A 
HETATM    6  C9  LIG X 999      43.075 131.609  23.534  1.00  0.00     0.001 A 
HETATM    7  C10 LIG X 999      44.258 130.933  23.224  1.00  0.00     0.001 A 
HETATM    8  C11 LIG X 999      44.665 130.799  21.894  1.00  0.00     0.012 A 
HETATM    9  C12 LIG X 999      43.886 131.343  20.861  1.00  0.00    -0.023 A 
HETATM   10  C13 LIG X 999      44.284 131.215  19.521  1.00  0.00     0.049 A 
ENDROOT
BRANCH   1  11
HETATM   11  O1  LIG X 999      43.951 131.602  17.171  1.00  0.00    -0.351 OA
BRANCH  11  12
HETATM   12  C3  LIG X 999      45.292 131.822  16.739  1.00  0.00     0.177 C 
BRANCH  12  13
HETATM   13  C2  LIG X 999      45.930 130.498  16.308  1.00  0.00     0.056 C 
BRANCH  13  14
HETATM   14  C1  LIG X 999      46.706 130.602  14.990  1.00  0.00     0.269 C 
BRANCH  14  15
HETATM   15  N1  LIG X 999      47.146 129.285  14.536  1.00  0.00     0.078 N 
HETATM   16  H1  LIG X 999      46.331 128.631  14.582  1.00  0.00     0.312 HD
HETATM   17  H2  LIG X 999      47.396 129.363  13.524  1.00  0.00     0.312 HD
ENDBRANCH  14  15
ENDBRANCH  13  14
ENDBRANCH  12  13
ENDBRANCH  11  12
ENDBRANCH   1  11
TORSDOF 5
ENDMDL
MODEL 8
REMARK VINA RESULT:      -5.7      3.031      4.662
REMARK  5 active torsions:
REMARK  status: ('A' for Active; 'I' for Inactive)
REMARK    1  A    between atoms: N1_1  and  C1_2 
REMARK    2  A    between atoms: C1_2  and  C2_3 
REMARK    3  A    between atoms: C2_3  and  C3_4 
REMARK    4  A    between atoms: C3_4  and  O1_5 
REMARK    5  A    between atoms: O1_5  and  C4_6 
ROOT
HETATM    1  C4  LIG X 999      43.892 131.599  20.882  1.00  0.00     0.069 A 
HETATM    2  C5  LIG X 999      42.713 132.047  20.255  1.00  0.00     0.037 A 
HETATM    3  C6  LIG X 999      42.612 132.053  18.861  1.00  0.00     0.015 A 
HETATM    4  C7  LIG X 999      43.682 131.610  18.073  1.00  0.00    -0.026 A 
HETATM    5  C8  LIG X 999      43.590 131.611  16.672  1.00  0.00     0.012 A 
HETATM    6  C9  LIG X 999      44.667 131.167  15.898  1.00  0.00     0.001 A 
HETATM    7  C10 LIG X 999      45.839 130.721  16.514  1.00  0.00     0.001 A 
HETATM    8  C11 LIG X 999      45.944 130.715  17.907  1.00  0.00     0.012 A 
HETATM    9  C12 LIG X 999      44.871 131.158  18.697  1.00  0.00    -0.023 A 
HETATM   10  C13 LIG X 999      44.963 131.156  20.096  1.00  0.00     0.049 A 
ENDROOT
BRANCH   1  11
HETATM   11  O1  LIG X 999      44.038 131.576  22.277  1.00  0.00    -0.351 OA
BRANCH  11  12
HETATM   12  C3  LIG X 999      42.956 131.641  23.204  1.00  0.00     0.177 C 
BRANCH  12  13
HETATM   13  C2  LIG X 999      42.977 130.418  24.124  1.00  0.00     0.056 C 
BRANCH  13  14
HETATM   14  C1  LIG X 999      42.353 129.170  23.486  1.00  0.00     0.269 C 
BRANCH  14  15
HETATM   15  N1  LIG X 999      42.803 127.955  24.161  1.00  0.00     0.078 N 
HETATM   16  H1  LIG X 999      42.255 127.847  25.044  1.00  0.00     0.312 HD
HETATM   17  H2  LIG X 999      42.544 127.141  23.559  1.00  0.00     0.312 HD
ENDBRANCH  14  15
ENDBRANCH  13  14
ENDBRANCH  12  13
ENDBRANCH  11  12
ENDBRANCH   1  11
TORSDOF 5
ENDMDL
