REMARK VINA RESULT:      -4.3      6.433      8.504
REMARK  5 active torsions:
REMARK  status: ('A' for Active; 'I' for Inactive)
REMARK    1  A    between atoms: C3_3  and  C4_4 
REMARK    2  A    between atoms: C4_4  and  S1_5 
REMARK    3  A    between atoms: S1_5  and  C5_6 
REMARK    4  A    between atoms: C6_7  and  N1_8 
REMARK    5  A    between atoms: C10_12  and  N2_13 
ROOT
HETATM    1  C1  LIG X 999      42.373 132.108  22.556  1.00  0.00     0.112 C 
HETATM    2  C2  LIG X 999      43.208 130.911  22.652  1.00  0.00    -0.110 C 
HETATM    3  C3  LIG X 999      43.909 129.933  22.716  1.00  0.00    -0.097 C 
ENDROOT
BRANCH   3   4
HETATM    4  C4  LIG X 999      44.776 128.753  22.773  1.00  0.00     0.173 C 
BRANCH   4   5
HETATM    5  S1  LIG X 999      44.458 127.800  24.299  1.00  0.00    -0.115 SA
BRANCH   5   6
HETATM    6  C5  LIG X 999      44.388 126.187  23.470  1.00  0.00     0.038 A 
HETATM    7  C6  LIG X 999      43.134 125.631  23.134  1.00  0.00     0.043 A 
HETATM    8  C7  LIG X 999      43.077 124.407  22.463  1.00  0.00     0.031 A 
HETATM    9  C8  LIG X 999      44.237 123.729  22.104  1.00  0.00     0.017 A 
HETATM   10  C9  LIG X 999      45.505 124.253  22.415  1.00  0.00     0.002 A 
HETATM   11  C10 LIG X 999      46.707 123.579  22.042  1.00  0.00     0.045 A 
HETATM   12  C14 LIG X 999      45.579 125.483  23.147  1.00  0.00    -0.004 A 
HETATM   13  C11 LIG X 999      47.930 124.133  22.445  1.00  0.00     0.003 A 
HETATM   14  C12 LIG X 999      47.991 125.283  23.166  1.00  0.00    -0.021 A 
HETATM   15  C18 LIG X 999      49.301 123.628  22.181  1.00  0.00     0.278 C 
HETATM   16  C13 LIG X 999      46.846 125.975  23.536  1.00  0.00     0.023 A 
HETATM   17  C15 LIG X 999      49.391 125.653  23.462  1.00  0.00     0.276 C 
HETATM   18  N3  LIG X 999      50.236 124.668  22.717  1.00  0.00    -0.067 N 
HETATM   19  C16 LIG X 999      51.238 124.054  23.617  1.00  0.00     0.272 C 
HETATM   20  C17 LIG X 999      50.941 125.344  21.601  1.00  0.00     0.272 C 
BRANCH   7  21
HETATM   21  N1  LIG X 999      41.903 126.290  23.465  1.00  0.00    -0.398 N 
HETATM   22  H6  LIG X 999      41.878 127.325  23.605  1.00  0.00     0.156 HD
HETATM   23  H7  LIG X 999      41.002 125.777  23.573  1.00  0.00     0.156 HD
ENDBRANCH   7  21
BRANCH  11  24
HETATM   24  N2  LIG X 999      46.706 122.375  21.256  1.00  0.00    -0.398 N 
HETATM   25  H10 LIG X 999      47.341 121.574  21.453  1.00  0.00     0.156 HD
HETATM   26  H11 LIG X 999      45.980 122.218  20.523  1.00  0.00     0.156 HD
ENDBRANCH  11  24
ENDBRANCH   5   6
ENDBRANCH   4   5
ENDBRANCH   3   4
TORSDOF 5
