REMARK VINA RESULT:      -5.3      7.275     10.706
REMARK  3 active torsions:
REMARK  status: ('A' for Active; 'I' for Inactive)
REMARK    1  A    between atoms: C7_9  and  C8_10 
REMARK    2  A    between atoms: C9_13  and  N4_14 
REMARK    3  A    between atoms: N7_23  and  C14_24 
ROOT
HETATM    1  N4  LIG X 999      45.117 127.529  24.240  1.00  0.00    -0.023 NA
HETATM    2  N5  LIG X 999      44.866 128.385  23.393  1.00  0.00    -0.158 NA
HETATM    3  N6  LIG X 999      44.615 129.240  22.545  1.00  0.00     0.068 N 
ENDROOT
BRANCH   1   4
HETATM    4  C9  LIG X 999      45.882 126.373  23.905  1.00  0.00     0.326 A 
HETATM    5  N3  LIG X 999      45.788 125.203  24.558  1.00  0.00    -0.099 NA
HETATM    6  N2  LIG X 999      46.644 124.387  23.960  1.00  0.00    -0.119 NA
HETATM    7  C8  LIG X 999      47.228 125.097  22.974  1.00  0.00     0.205 A 
HETATM    8  O1  LIG X 999      46.756 126.320  22.929  1.00  0.00    -0.252 OA
BRANCH   7   9
HETATM    9  C7  LIG X 999      48.225 124.541  22.037  1.00  0.00     0.032 A 
HETATM   10  C6  LIG X 999      49.598 124.940  22.030  1.00  0.00     0.020 A 
HETATM   11  C1  LIG X 999      50.330 125.814  23.006  1.00  0.00     0.060 A 
HETATM   12  C5  LIG X 999      50.384 124.422  21.018  1.00  0.00     0.019 A 
HETATM   13  N1  LIG X 999      49.776 126.205  24.109  1.00  0.00    -0.299 NA
HETATM   14  C2  LIG X 999      51.771 126.151  22.735  1.00  0.00     0.034 A 
HETATM   15  H1  LIG X 999      50.287 126.784  24.811  1.00  0.00     0.187 HD
HETATM   16  C3  LIG X 999      52.429 125.614  21.687  1.00  0.00     0.033 A 
HETATM   17  C4  LIG X 999      51.700 124.689  20.804  1.00  0.00     0.048 A 
HETATM   18  N7  LIG X 999      52.133 124.000  19.719  1.00  0.00    -0.324 N 
HETATM   19  C13 LIG X 999      51.052 123.310  19.261  1.00  0.00     0.193 A 
HETATM   20  C12 LIG X 999      49.953 123.557  20.066  1.00  0.00     0.032 A 
HETATM   21  O2  LIG X 999      51.065 122.488  18.140  1.00  0.00    -0.171 OA
HETATM   22  C11 LIG X 999      48.637 123.111  20.054  1.00  0.00     0.018 A 
HETATM   23  C10 LIG X 999      47.771 123.608  21.053  1.00  0.00     0.018 A 
BRANCH  18  24
HETATM   24  C14 LIG X 999      53.462 124.052  19.111  1.00  0.00     0.127 C 
HETATM   25  C15 LIG X 999      53.396 124.746  17.756  1.00  0.00     0.027 C 
ENDBRANCH  18  24
ENDBRANCH   7   9
ENDBRANCH   1   4
TORSDOF 3
