REMARK VINA RESULT:      -7.9      2.745      5.331
REMARK  1 active torsions:
REMARK  status: ('A' for Active; 'I' for Inactive)
REMARK    1  A    between atoms: C11_13  and  O1_14 
ROOT
HETATM    1  H1  LIG X 999      42.281 132.521  19.239  1.00  0.00     0.187 HD
HETATM    2  N1  LIG X 999      42.551 132.342  18.245  1.00  0.00    -0.300 NA
HETATM    3  C1  LIG X 999      43.642 131.714  17.939  1.00  0.00     0.059 A 
HETATM    4  C2  LIG X 999      44.575 131.214  19.010  1.00  0.00     0.034 A 
HETATM    5  C3  LIG X 999      45.716 130.558  18.690  1.00  0.00     0.033 A 
HETATM    6  C4  LIG X 999      46.023 130.346  17.264  1.00  0.00     0.046 A 
HETATM    7  C5  LIG X 999      45.182 130.797  16.303  1.00  0.00     0.018 A 
HETATM    8  C6  LIG X 999      44.003 131.472  16.517  1.00  0.00     0.005 A 
HETATM    9  C7  LIG X 999      43.271 131.856  15.374  1.00  0.00     0.015 A 
HETATM   10  C8  LIG X 999      43.770 131.538  14.080  1.00  0.00     0.002 A 
HETATM   11  C9  LIG X 999      44.995 130.840  13.925  1.00  0.00     0.017 A 
HETATM   12  C10 LIG X 999      45.681 130.481  15.085  1.00  0.00     0.028 A 
HETATM   13  C11 LIG X 999      46.869 129.814  15.347  1.00  0.00     0.151 A 
HETATM   14  N2  LIG X 999      47.082 129.731  16.691  1.00  0.00    -0.336 N 
HETATM   15  H8  LIG X 999      47.891 129.284  17.176  1.00  0.00     0.168 HD
ENDROOT
BRANCH  13  16
HETATM   16  O1  LIG X 999      47.731 129.299  14.386  1.00  0.00    -0.345 OA
HETATM   17  H7  LIG X 999      47.368 128.879  13.539  1.00  0.00     0.219 HD
ENDBRANCH  13  16
TORSDOF 1
