REMARK VINA RESULT:      -6.9      1.937      7.141
REMARK  4 active torsions:
REMARK  status: ('A' for Active; 'I' for Inactive)
REMARK    1  A    between atoms: C3_3  and  O1_4 
REMARK    2  A    between atoms: O1_4  and  C4_5 
REMARK    3  A    between atoms: C4_5  and  O2_6 
REMARK    4  A    between atoms: C5_8  and  C6_9 
ROOT
HETATM    1  C1  LIG X 999      47.616 130.956  13.103  1.00  0.00     0.014 C 
HETATM    2  C2  LIG X 999      46.555 130.910  13.672  1.00  0.00    -0.091 C 
HETATM    3  C3  LIG X 999      45.267 130.854  14.364  1.00  0.00     0.270 C 
ENDROOT
BRANCH   3   4
HETATM    4  O1  LIG X 999      45.480 131.011  15.760  1.00  0.00    -0.319 OA
BRANCH   4   5
HETATM    5  C4  LIG X 999      46.443 130.279  16.460  1.00  0.00     0.179 C 
HETATM    6  C5  LIG X 999      46.347 130.120  17.788  1.00  0.00     0.075 C 
BRANCH   5   7
HETATM    7  O2  LIG X 999      47.497 129.686  15.762  1.00  0.00    -0.341 OA
HETATM    8  H4  LIG X 999      47.340 129.019  15.015  1.00  0.00     0.220 HD
ENDBRANCH   5   7
BRANCH   6   9
HETATM    9  C6  LIG X 999      45.275 130.711  18.620  1.00  0.00    -0.031 A 
HETATM   10  C7  LIG X 999      44.274 131.534  18.068  1.00  0.00     0.012 A 
HETATM   11  C8  LIG X 999      43.289 132.097  18.883  1.00  0.00     0.013 A 
HETATM   12  C9  LIG X 999      43.296 131.862  20.265  1.00  0.00    -0.026 A 
HETATM   13  C10 LIG X 999      42.309 132.423  21.091  1.00  0.00     0.012 A 
HETATM   14  C14 LIG X 999      44.312 131.059  20.833  1.00  0.00    -0.025 A 
HETATM   15  C11 LIG X 999      42.332 132.187  22.469  1.00  0.00     0.001 A 
HETATM   16  C12 LIG X 999      43.336 131.394  23.030  1.00  0.00     0.001 A 
HETATM   17  C13 LIG X 999      44.324 130.831  22.219  1.00  0.00     0.012 A 
HETATM   18  C15 LIG X 999      45.299 130.497  20.007  1.00  0.00     0.024 A 
ENDBRANCH   6   9
ENDBRANCH   4   5
ENDBRANCH   3   4
TORSDOF 4
