REMARK VINA RESULT:      -5.4      3.241      5.142
REMARK  2 active torsions:
REMARK  status: ('A' for Active; 'I' for Inactive)
REMARK    1  A    between atoms: N1_1  and  C1_2 
REMARK    2  A    between atoms: C2_5  and  C3_6 
ROOT
HETATM    1  C3  LIG X 999      44.361 131.281  17.976  1.00  0.00     0.030 A 
HETATM    2  C4  LIG X 999      45.323 130.737  18.844  1.00  0.00     0.017 A 
HETATM    3  C5  LIG X 999      46.433 130.056  18.349  1.00  0.00     0.002 A 
HETATM    4  C6  LIG X 999      46.609 129.904  16.976  1.00  0.00     0.012 A 
HETATM    5  C7  LIG X 999      45.684 130.456  16.080  1.00  0.00    -0.025 A 
HETATM    6  C8  LIG X 999      45.887 130.317  14.698  1.00  0.00     0.012 A 
HETATM    7  C9  LIG X 999      44.996 130.894  13.794  1.00  0.00     0.001 A 
HETATM    8  C10 LIG X 999      43.904 131.624  14.259  1.00  0.00     0.001 A 
HETATM    9  C11 LIG X 999      43.684 131.770  15.632  1.00  0.00     0.013 A 
HETATM   10  C12 LIG X 999      44.553 131.169  16.570  1.00  0.00    -0.011 A 
ENDROOT
BRANCH   1  11
HETATM   11  C2  LIG X 999      43.167 131.915  18.585  1.00  0.00     0.203 A 
HETATM   12  N3  LIG X 999      42.096 132.338  17.876  1.00  0.00    -0.145 NA
HETATM   13  N2  LIG X 999      41.268 132.869  18.761  1.00  0.00    -0.240 N 
HETATM   14  C1  LIG X 999      41.856 132.762  19.962  1.00  0.00     0.240 A 
HETATM   15  H3  LIG X 999      40.339 133.291  18.539  1.00  0.00     0.193 HD
HETATM   16  O1  LIG X 999      43.025 132.181  19.867  1.00  0.00    -0.257 OA
BRANCH  14  17
HETATM   17  N1  LIG X 999      41.281 133.223  21.182  1.00  0.00    -0.364 N 
HETATM   18  H1  LIG X 999      40.697 132.582  21.760  1.00  0.00     0.159 HD
HETATM   19  H2  LIG X 999      41.440 134.204  21.503  1.00  0.00     0.159 HD
ENDBRANCH  14  17
ENDBRANCH   1  11
TORSDOF 2
