REMARK VINA RESULT:      -5.6      2.154      7.921
REMARK  5 active torsions:
REMARK  status: ('A' for Active; 'I' for Inactive)
REMARK    1  A    between atoms: C6_6  and  C7_7 
REMARK       I    between atoms: C7_7  and  N1_9 
REMARK    2  A    between atoms: N1_9  and  C8_11 
REMARK    3  A    between atoms: C8_11  and  C9_12 
REMARK    4  A    between atoms: C9_12  and  N2_13 
REMARK    5  A    between atoms: C13_19  and  N5_20 
ROOT
HETATM    1  N2  LIG X 999      45.609 130.637  14.046  1.00  0.00    -0.114 NA
HETATM    2  N3  LIG X 999      46.661 130.830  13.435  1.00  0.00    -0.168 NA
HETATM    3  N4  LIG X 999      47.712 131.024  12.826  1.00  0.00     0.068 N 
ENDROOT
BRANCH   1   4
HETATM    4  C9  LIG X 999      45.563 129.754  15.204  1.00  0.00     0.208 C 
BRANCH   4   5
HETATM    5  C8  LIG X 999      46.559 130.234  16.259  1.00  0.00     0.147 C 
BRANCH   5   6
HETATM    6  N1  LIG X 999      46.029 130.036  17.609  1.00  0.00    -0.355 N 
HETATM    7  C7  LIG X 999      45.329 131.085  18.294  1.00  0.00     0.251 C 
HETATM    8  O1  LIG X 999      45.031 132.143  17.673  1.00  0.00    -0.268 OA
HETATM    9  H4  LIG X 999      46.124 129.099  18.063  1.00  0.00     0.162 HD
BRANCH   7  10
HETATM   10  C6  LIG X 999      44.931 130.943  19.716  1.00  0.00     0.032 A 
HETATM   11  C1  LIG X 999      44.239 131.968  20.382  1.00  0.00     0.017 A 
HETATM   12  C2  LIG X 999      43.871 131.822  21.720  1.00  0.00     0.011 A 
HETATM   13  C3  LIG X 999      44.183 130.650  22.425  1.00  0.00    -0.024 A 
HETATM   14  C4  LIG X 999      44.849 129.596  21.755  1.00  0.00    -0.049 A 
HETATM   15  C13 LIG X 999      43.703 130.509  23.854  1.00  0.00     0.179 C 
HETATM   16  C5  LIG X 999      45.226 129.759  20.413  1.00  0.00     0.024 A 
HETATM   17  C10 LIG X 999      45.272 128.339  22.479  1.00  0.00     0.039 C 
HETATM   18  C11 LIG X 999      44.500 128.114  23.782  1.00  0.00     0.007 C 
HETATM   19  C12 LIG X 999      44.460 129.400  24.607  1.00  0.00     0.035 C 
BRANCH  15  20
HETATM   20  N5  LIG X 999      42.268 130.236  23.842  1.00  0.00    -0.105 NA
HETATM   21  N6  LIG X 999      41.820 129.158  24.234  1.00  0.00    -0.167 NA
HETATM   22  N7  LIG X 999      41.372 128.081  24.625  1.00  0.00     0.068 N 
ENDBRANCH  15  20
ENDBRANCH   7  10
ENDBRANCH   5   6
ENDBRANCH   4   5
ENDBRANCH   1   4
TORSDOF 5
