REMARK VINA RESULT:      -7.3      4.618      6.659
REMARK  5 active torsions:
REMARK  status: ('A' for Active; 'I' for Inactive)
REMARK    1  A    between atoms: O1_2  and  S1_3 
REMARK    2  A    between atoms: S1_3  and  C1_4 
REMARK    3  A    between atoms: S1_3  and  C11_14 
REMARK    4  A    between atoms: C11_14  and  C12_15 
REMARK    5  A    between atoms: C12_15  and  N1_16 
ROOT
HETATM    1  N1  LIG X 999      44.201 131.229  22.876  1.00  0.00    -0.115 NA
HETATM    2  N2  LIG X 999      44.368 130.009  22.838  1.00  0.00    -0.168 NA
HETATM    3  N3  LIG X 999      44.535 128.792  22.800  1.00  0.00     0.068 N 
ENDROOT
BRANCH   1   4
HETATM    4  C12 LIG X 999      43.034 131.837  22.252  1.00  0.00     0.201 C 
BRANCH   4   5
HETATM    5  C11 LIG X 999      42.739 131.166  20.913  1.00  0.00     0.121 C 
BRANCH   5   6
HETATM    6  S1  LIG X 999      43.063 132.273  19.550  1.00  0.00    -0.056 S 
BRANCH   6   7
HETATM    7  O1  LIG X 999      41.643 132.771  18.801  1.00  0.00    -0.336 OA
HETATM    8  H1  LIG X 999      41.336 131.981  18.288  1.00  0.00     0.227 HD
ENDBRANCH   6   7
BRANCH   6   9
HETATM    9  C1  LIG X 999      44.189 131.592  18.389  1.00  0.00     0.017 A 
HETATM   10  C2  LIG X 999      45.260 130.812  18.836  1.00  0.00     0.021 A 
HETATM   11  C3  LIG X 999      46.156 130.253  17.919  1.00  0.00     0.013 A 
HETATM   12  C4  LIG X 999      45.985 130.471  16.545  1.00  0.00    -0.026 A 
HETATM   13  C5  LIG X 999      46.877 129.915  15.614  1.00  0.00     0.012 A 
HETATM   14  C9  LIG X 999      44.900 131.260  16.089  1.00  0.00    -0.025 A 
HETATM   15  C6  LIG X 999      46.694 130.139  14.246  1.00  0.00     0.001 A 
HETATM   16  C7  LIG X 999      45.623 130.917  13.797  1.00  0.00     0.001 A 
HETATM   17  C8  LIG X 999      44.727 131.477  14.713  1.00  0.00     0.012 A 
HETATM   18  C10 LIG X 999      44.007 131.816  17.018  1.00  0.00     0.032 A 
ENDBRANCH   6   9
ENDBRANCH   5   6
ENDBRANCH   4   5
ENDBRANCH   1   4
TORSDOF 5
