REMARK VINA RESULT:      -7.4      1.485      5.258
REMARK  1 active torsions:
REMARK  status: ('A' for Active; 'I' for Inactive)
REMARK    1  A    between atoms: C12_13  and  N2_14 
ROOT
HETATM    1  C1  LIG X 999      44.162 130.240  22.318  1.00  0.00     0.272 C 
HETATM    2  N1  LIG X 999      44.714 131.154  21.291  1.00  0.00    -0.067 N 
HETATM    3  C2  LIG X 999      45.282 132.347  21.964  1.00  0.00     0.272 C 
HETATM    4  C3  LIG X 999      45.772 130.468  20.486  1.00  0.00     0.276 C 
HETATM    5  C4  LIG X 999      45.426 130.725  19.072  1.00  0.00    -0.021 A 
HETATM    6  C5  LIG X 999      46.175 130.391  17.950  1.00  0.00     0.022 A 
HETATM    7  C6  LIG X 999      45.665 130.702  16.678  1.00  0.00    -0.023 A 
HETATM    8  C7  LIG X 999      46.406 130.369  15.533  1.00  0.00     0.012 A 
HETATM    9  C8  LIG X 999      45.904 130.653  14.264  1.00  0.00     0.001 A 
HETATM   10  C9  LIG X 999      44.660 131.265  14.122  1.00  0.00     0.001 A 
HETATM   11  C10 LIG X 999      43.906 131.606  15.249  1.00  0.00     0.014 A 
HETATM   12  C11 LIG X 999      44.394 131.345  16.548  1.00  0.00     0.001 A 
HETATM   13  C12 LIG X 999      43.659 131.680  17.725  1.00  0.00     0.045 A 
HETATM   14  C13 LIG X 999      44.218 131.344  18.970  1.00  0.00     0.003 A 
HETATM   15  C14 LIG X 999      43.649 131.568  20.324  1.00  0.00     0.278 C 
ENDROOT
BRANCH  13  16
HETATM   16  N2  LIG X 999      42.387 132.349  17.680  1.00  0.00    -0.398 N 
HETATM   17  H14 LIG X 999      42.267 133.295  18.106  1.00  0.00     0.156 HD
HETATM   18  H15 LIG X 999      41.565 131.972  17.166  1.00  0.00     0.156 HD
ENDBRANCH  13  16
TORSDOF 1
