REMARK VINA RESULT:      -6.2      3.488      6.418
REMARK  1 active torsions:
REMARK  status: ('A' for Active; 'I' for Inactive)
REMARK    1  A    between atoms: C10_11  and  N2_12 
ROOT
HETATM    1  N2  LIG X 999      44.048 131.972  22.588  1.00  0.00    -0.214 NA
HETATM    2  C11 LIG X 999      43.525 131.182  23.439  1.00  0.00     0.165 C 
HETATM    3  S1  LIG X 999      42.863 130.182  24.516  1.00  0.00    -0.055 SA
ENDROOT
BRANCH   1   4
HETATM    4  C10 LIG X 999      44.036 131.746  21.171  1.00  0.00     0.152 C 
HETATM    5  N1  LIG X 999      45.083 131.096  20.610  1.00  0.00    -0.229 NA
HETATM    6  C9  LIG X 999      45.172 130.862  19.275  1.00  0.00     0.070 C 
HETATM    7  C8  LIG X 999      46.258 130.126  18.803  1.00  0.00     0.033 C 
HETATM    8  C15 LIG X 999      44.168 131.336  18.385  1.00  0.00     0.010 C 
HETATM    9  C7  LIG X 999      46.392 129.853  17.450  1.00  0.00     0.014 C 
HETATM   10  C5  LIG X 999      45.498 130.407  16.527  1.00  0.00    -0.025 C 
HETATM   11  C4  LIG X 999      44.411 131.213  16.976  1.00  0.00    -0.013 C 
HETATM   12  C6  LIG X 999      45.716 130.205  15.156  1.00  0.00     0.012 C 
HETATM   13  C3  LIG X 999      43.693 131.937  15.993  1.00  0.00     0.013 C 
HETATM   14  C2  LIG X 999      43.932 131.737  14.632  1.00  0.00     0.001 C 
HETATM   15  C1  LIG X 999      44.922 130.852  14.214  1.00  0.00     0.001 C 
HETATM   16  C13 LIG X 999      42.977 131.863  18.982  1.00  0.00    -0.045 C 
HETATM   17  C12 LIG X 999      42.957 132.124  20.361  1.00  0.00     0.060 C 
HETATM   18  C14 LIG X 999      41.664 132.026  18.257  1.00  0.00     0.049 C 
ENDBRANCH   1   4
TORSDOF 1
