REMARK VINA RESULT:      -4.7      1.869      6.386
REMARK  5 active torsions:
REMARK  status: ('A' for Active; 'I' for Inactive)
REMARK    1  A    between atoms: O1_2  and  C1_3 
REMARK    2  A    between atoms: C1_3  and  C15_22 
REMARK    3  A    between atoms: N1_4  and  C2_5 
REMARK    4  A    between atoms: C3_6  and  O2_7 
REMARK    5  A    between atoms: O2_7  and  C4_8 
REMARK       I    between atoms: C4_8  and  N2_10 
ROOT
HETATM    1  C2  LIG X 999      44.481 125.265  22.712  1.00  0.00     0.104 A 
HETATM    2  C3  LIG X 999      45.729 124.620  22.709  1.00  0.00     0.110 A 
HETATM    3  C7  LIG X 999      45.815 123.267  23.082  1.00  0.00     0.041 A 
HETATM    4  C8  LIG X 999      44.668 122.550  23.417  1.00  0.00     0.015 A 
HETATM    5  C9  LIG X 999      43.411 123.166  23.378  1.00  0.00    -0.024 A 
HETATM    6  C10 LIG X 999      42.257 122.431  23.692  1.00  0.00     0.012 A 
HETATM    7  C11 LIG X 999      41.001 123.038  23.632  1.00  0.00     0.001 A 
HETATM    8  C12 LIG X 999      40.885 124.376  23.254  1.00  0.00     0.001 A 
HETATM    9  C13 LIG X 999      42.025 125.121  22.942  1.00  0.00     0.014 A 
HETATM   10  C14 LIG X 999      43.305 124.534  23.015  1.00  0.00     0.006 A 
ENDROOT
BRANCH   1  11
HETATM   11  N1  LIG X 999      44.433 126.657  22.365  1.00  0.00    -0.221 NA
HETATM   12  C1  LIG X 999      44.770 127.616  23.176  1.00  0.00     0.176 C 
BRANCH  12  13
HETATM   13  O1  LIG X 999      45.232 127.316  24.459  1.00  0.00    -0.344 OA
HETATM   14  H1  LIG X 999      44.609 127.219  25.249  1.00  0.00     0.219 HD
ENDBRANCH  12  13
BRANCH  12  15
HETATM   15  C15 LIG X 999      44.665 129.013  22.717  1.00  0.00     0.053 A 
HETATM   16  C16 LIG X 999      44.092 130.073  23.400  1.00  0.00     0.156 A 
HETATM   17  N3  LIG X 999      44.178 131.187  22.647  1.00  0.00    -0.185 NA
HETATM   18  N4  LIG X 999      44.798 130.862  21.523  1.00  0.00    -0.285 N 
HETATM   19  C17 LIG X 999      45.023 131.788  20.423  1.00  0.00     0.179 C 
HETATM   20  C18 LIG X 999      45.099 129.551  21.521  1.00  0.00     0.129 A 
ENDBRANCH  12  15
ENDBRANCH   1  11
BRANCH   2  21
HETATM   21  O2  LIG X 999      46.870 125.369  22.382  1.00  0.00    -0.254 OA
BRANCH  21  22
HETATM   22  C4  LIG X 999      48.021 125.479  23.175  1.00  0.00     0.461 C 
HETATM   23  O3  LIG X 999      47.989 126.112  24.268  1.00  0.00    -0.230 OA
HETATM   24  N2  LIG X 999      49.224 124.796  22.767  1.00  0.00     0.009 N 
HETATM   25  H2  LIG X 999      49.070 124.386  21.816  1.00  0.00     0.292 HD
HETATM   26  C5  LIG X 999      49.525 123.698  23.699  1.00  0.00     0.282 C 
HETATM   27  C6  LIG X 999      50.350 125.739  22.684  1.00  0.00     0.282 C 
ENDBRANCH  21  22
ENDBRANCH   2  21
TORSDOF 5
