REMARK VINA RESULT:      -7.5      1.596      2.391
REMARK  3 active torsions:
REMARK  status: ('A' for Active; 'I' for Inactive)
REMARK    1  A    between atoms: C3_3  and  S1_4 
REMARK    2  A    between atoms: S1_4  and  C4_7 
REMARK    3  A    between atoms: C13_16  and  N1_17 
ROOT
HETATM    1  C1  LIG X 999      47.813 130.999  12.777  1.00  0.00     0.013 C 
HETATM    2  C2  LIG X 999      47.139 131.372  13.705  1.00  0.00    -0.102 C 
HETATM    3  C3  LIG X 999      46.316 131.823  14.831  1.00  0.00     0.238 C 
ENDROOT
BRANCH   3   4
HETATM    4  S1  LIG X 999      45.879 130.437  15.862  1.00  0.00     0.185 S 
HETATM    5  O1  LIG X 999      47.128 129.830  16.436  1.00  0.00    -0.222 OA
HETATM    6  O2  LIG X 999      45.174 129.395  15.039  1.00  0.00    -0.222 OA
BRANCH   4   7
HETATM    7  C4  LIG X 999      44.829 130.975  17.171  1.00  0.00     0.060 A 
HETATM    8  C5  LIG X 999      43.523 131.391  16.895  1.00  0.00     0.024 A 
HETATM    9  C6  LIG X 999      42.680 131.792  17.933  1.00  0.00     0.011 A 
HETATM   10  C7  LIG X 999      43.125 131.774  19.265  1.00  0.00    -0.019 A 
HETATM   11  C8  LIG X 999      44.450 131.359  19.547  1.00  0.00    -0.048 A 
HETATM   12  C13 LIG X 999      42.200 132.283  20.355  1.00  0.00     0.251 C 
HETATM   13  C9  LIG X 999      45.284 130.949  18.496  1.00  0.00     0.031 A 
HETATM   14  C10 LIG X 999      44.953 131.219  20.965  1.00  0.00     0.039 C 
HETATM   15  C11 LIG X 999      44.114 132.005  21.978  1.00  0.00     0.007 C 
HETATM   16  C12 LIG X 999      42.623 131.761  21.740  1.00  0.00     0.040 C 
BRANCH  12  17
HETATM   17  N1  LIG X 999      42.191 133.749  20.350  1.00  0.00     0.087 N 
HETATM   18  H14 LIG X 999      41.370 134.079  20.907  1.00  0.00     0.313 HD
HETATM   19  H15 LIG X 999      43.035 134.087  20.864  1.00  0.00     0.313 HD
ENDBRANCH  12  17
ENDBRANCH   4   7
ENDBRANCH   3   4
TORSDOF 3
