REMARK VINA RESULT:      -7.6      1.046      5.796
REMARK  1 active torsions:
REMARK  status: ('A' for Active; 'I' for Inactive)
REMARK    1  A    between atoms: C9_10  and  N2_11 
ROOT
HETATM    1  C1  LIG X 999      43.871 132.132  23.322  1.00  0.00     0.272 C 
HETATM    2  N1  LIG X 999      43.638 131.178  22.212  1.00  0.00    -0.067 N 
HETATM    3  C2  LIG X 999      42.889 130.009  22.731  1.00  0.00     0.272 C 
HETATM    4  C3  LIG X 999      42.867 131.831  21.107  1.00  0.00     0.276 C 
HETATM    5  C4  LIG X 999      43.611 131.525  19.867  1.00  0.00    -0.024 A 
HETATM    6  C5  LIG X 999      43.247 131.825  18.554  1.00  0.00     0.021 A 
HETATM    7  C6  LIG X 999      44.122 131.460  17.511  1.00  0.00    -0.025 A 
HETATM    8  C7  LIG X 999      43.795 131.737  16.176  1.00  0.00     0.014 A 
HETATM    9  C8  LIG X 999      44.671 131.373  15.149  1.00  0.00     0.030 A 
HETATM   10  C9  LIG X 999      45.883 130.729  15.441  1.00  0.00     0.026 A 
HETATM   11  C10 LIG X 999      46.220 130.448  16.773  1.00  0.00     0.041 A 
HETATM   12  C11 LIG X 999      45.350 130.806  17.814  1.00  0.00    -0.023 A 
HETATM   13  C12 LIG X 999      45.683 130.529  19.155  1.00  0.00     0.021 A 
HETATM   14  C13 LIG X 999      44.786 130.900  20.157  1.00  0.00    -0.024 A 
HETATM   15  C14 LIG X 999      44.938 130.731  21.618  1.00  0.00     0.276 C 
ENDROOT
BRANCH  10  16
HETATM   16  N2  LIG X 999      46.772 130.361  14.383  1.00  0.00    -0.399 N 
HETATM   17  H12 LIG X 999      46.418 130.227  13.410  1.00  0.00     0.156 HD
HETATM   18  H13 LIG X 999      47.791 130.220  14.566  1.00  0.00     0.156 HD
ENDBRANCH  10  16
TORSDOF 1
