REMARK VINA RESULT:      -5.5      4.560      6.616
REMARK  3 active torsions:
REMARK  status: ('A' for Active; 'I' for Inactive)
REMARK    1  A    between atoms: C3_3  and  S1_4 
REMARK    2  A    between atoms: S1_4  and  C4_5 
REMARK    3  A    between atoms: C8_9  and  N1_10 
ROOT
HETATM    1  C1  LIG X 999      42.036 123.877  21.115  1.00  0.00     0.013 C 
HETATM    2  C2  LIG X 999      43.092 123.716  21.671  1.00  0.00    -0.107 C 
HETATM    3  C3  LIG X 999      44.378 123.516  22.347  1.00  0.00     0.172 C 
ENDROOT
BRANCH   3   4
HETATM    4  S1  LIG X 999      44.271 124.011  24.101  1.00  0.00    -0.117 SA
BRANCH   4   5
HETATM    5  C4  LIG X 999      44.009 125.759  23.759  1.00  0.00     0.015 A 
HETATM    6  C5  LIG X 999      45.114 126.526  23.286  1.00  0.00     0.020 A 
HETATM    7  C6  LIG X 999      44.985 127.910  23.024  1.00  0.00     0.018 A 
HETATM    8  C7  LIG X 999      43.739 128.491  23.243  1.00  0.00     0.026 A 
HETATM    9  C8  LIG X 999      43.237 129.775  23.102  1.00  0.00     0.175 A 
HETATM   10  C10 LIG X 999      42.697 127.745  23.681  1.00  0.00     0.019 A 
HETATM   11  N4  LIG X 999      41.918 129.809  23.446  1.00  0.00    -0.337 N 
HETATM   12  H6  LIG X 999      41.278 130.635  23.439  1.00  0.00     0.167 HD
HETATM   13  C9  LIG X 999      41.606 128.543  23.800  1.00  0.00     0.046 A 
HETATM   14  C14 LIG X 999      40.318 127.994  24.252  1.00  0.00     0.033 A 
HETATM   15  C13 LIG X 999      40.249 126.674  24.533  1.00  0.00     0.034 A 
HETATM   16  C12 LIG X 999      41.453 125.782  24.387  1.00  0.00     0.060 A 
HETATM   17  C11 LIG X 999      42.749 126.392  23.948  1.00  0.00     0.022 A 
HETATM   18  N5  LIG X 999      41.352 124.512  24.616  1.00  0.00    -0.299 NA
HETATM   19  H7  LIG X 999      40.452 124.074  24.915  1.00  0.00     0.187 HD
BRANCH   9  20
HETATM   20  N1  LIG X 999      43.988 130.907  22.655  1.00  0.00    -0.053 NA
HETATM   21  N2  LIG X 999      43.996 131.240  21.470  1.00  0.00    -0.160 NA
HETATM   22  N3  LIG X 999      44.004 131.572  20.287  1.00  0.00     0.068 N 
ENDBRANCH   9  20
ENDBRANCH   4   5
ENDBRANCH   3   4
TORSDOF 3
