REMARK VINA RESULT:      -6.0      2.650      4.344
REMARK  6 active torsions:
REMARK  status: ('A' for Active; 'I' for Inactive)
REMARK    1  A    between atoms: C2_2  and  C3_3 
REMARK    2  A    between atoms: C3_3  and  O1_4 
REMARK    3  A    between atoms: O1_4  and  C4_5 
REMARK    4  A    between atoms: C4_5  and  C6_7 
REMARK    5  A    between atoms: C6_7  and  C7_8 
REMARK       I    between atoms: N1_10  and  C9_11 
REMARK    6  A    between atoms: C9_11  and  C10_13 
ROOT
HETATM    1  C7  LIG X 999      43.903 131.543  20.896  1.00  0.00     0.076 A 
HETATM    2  C8  LIG X 999      44.230 131.054  19.648  1.00  0.00     0.150 A 
HETATM    3  N1  LIG X 999      43.524 131.782  18.762  1.00  0.00    -0.213 N 
HETATM    4  C9  LIG X 999      43.501 131.640  17.333  1.00  0.00     0.277 C 
HETATM    5  O2  LIG X 999      42.486 132.027  16.693  1.00  0.00    -0.265 OA
HETATM    6  N2  LIG X 999      42.798 132.653  19.445  1.00  0.00    -0.210 N 
HETATM    7  N3  LIG X 999      43.012 132.545  20.747  1.00  0.00    -0.162 NA
HETATM    8  H20 LIG X 999      42.146 133.350  19.018  1.00  0.00     0.211 HD
ENDROOT
BRANCH   4   9
HETATM    9  C10 LIG X 999      44.641 131.052  16.591  1.00  0.00     0.035 A 
HETATM   10  C11 LIG X 999      45.216 129.847  17.029  1.00  0.00     0.018 A 
HETATM   11  C12 LIG X 999      46.286 129.276  16.334  1.00  0.00     0.013 A 
HETATM   12  C13 LIG X 999      46.791 129.896  15.183  1.00  0.00    -0.026 A 
HETATM   13  C14 LIG X 999      47.866 129.332  14.479  1.00  0.00     0.012 A 
HETATM   14  C18 LIG X 999      46.206 131.100  14.722  1.00  0.00    -0.025 A 
HETATM   15  C15 LIG X 999      48.356 129.957  13.328  1.00  0.00     0.001 A 
HETATM   16  C16 LIG X 999      47.778 131.145  12.872  1.00  0.00     0.001 A 
HETATM   17  C17 LIG X 999      46.707 131.717  13.565  1.00  0.00     0.012 A 
HETATM   18  C19 LIG X 999      45.131 131.664  15.425  1.00  0.00     0.029 A 
ENDBRANCH   4   9
BRANCH   1  19
HETATM   19  C6  LIG X 999      44.486 131.109  22.208  1.00  0.00     0.094 C 
BRANCH  19  20
HETATM   20  C4  LIG X 999      43.763 131.738  23.412  1.00  0.00     0.123 C 
HETATM   21  C5  LIG X 999      42.884 130.712  24.142  1.00  0.00     0.040 C 
BRANCH  20  22
HETATM   22  O1  LIG X 999      44.727 132.266  24.310  1.00  0.00    -0.382 OA
BRANCH  22  23
HETATM   23  C3  LIG X 999      45.634 133.114  23.637  1.00  0.00     0.194 C 
BRANCH  23  24
HETATM   24  C2  LIG X 999      46.183 134.117  24.606  1.00  0.00    -0.011 C 
HETATM   25  C1  LIG X 999      47.482 134.429  24.622  1.00  0.00     0.009 C 
ENDBRANCH  23  24
ENDBRANCH  22  23
ENDBRANCH  20  22
ENDBRANCH  19  20
ENDBRANCH   1  19
TORSDOF 6
