REMARK VINA RESULT:      -4.8      5.074      7.027
REMARK  3 active torsions:
REMARK  status: ('A' for Active; 'I' for Inactive)
REMARK    1  A    between atoms: C3_3  and  S1_4 
REMARK    2  A    between atoms: S1_4  and  N1_7 
REMARK    3  A    between atoms: C10_16  and  N4_17 
ROOT
HETATM    1  N1  LIG X 999      45.773 130.643  19.093  1.00  0.00     0.026 NA
HETATM    2  N2  LIG X 999      45.308 130.961  17.999  1.00  0.00    -0.150 NA
HETATM    3  N3  LIG X 999      44.844 131.280  16.906  1.00  0.00     0.069 N 
ENDROOT
BRANCH   1   4
HETATM    4  S1  LIG X 999      45.165 131.367  20.538  1.00  0.00     0.311 S 
HETATM    5  O1  LIG X 999      43.899 132.112  20.221  1.00  0.00    -0.196 OA
HETATM    6  O2  LIG X 999      46.172 132.345  21.077  1.00  0.00    -0.196 OA
BRANCH   4   7
HETATM    7  C3  LIG X 999      44.834 130.117  21.733  1.00  0.00     0.084 A 
HETATM    8  C2  LIG X 999      44.193 130.438  22.934  1.00  0.00     0.026 A 
HETATM    9  C1  LIG X 999      43.917 129.442  23.872  1.00  0.00     0.009 A 
HETATM   10  C6  LIG X 999      44.288 128.110  23.629  1.00  0.00    -0.050 A 
HETATM   11  C5  LIG X 999      44.923 127.776  22.408  1.00  0.00    -0.023 A 
HETATM   12  C7  LIG X 999      43.876 127.052  24.625  1.00  0.00     0.039 C 
HETATM   13  C4  LIG X 999      45.190 128.789  21.471  1.00  0.00     0.035 A 
HETATM   14  C10 LIG X 999      45.395 126.363  22.118  1.00  0.00     0.179 C 
HETATM   15  C9  LIG X 999      44.628 125.327  22.954  1.00  0.00     0.035 C 
HETATM   16  C8  LIG X 999      44.617 125.725  24.431  1.00  0.00     0.007 C 
BRANCH  14  17
HETATM   17  N4  LIG X 999      46.824 126.242  22.395  1.00  0.00    -0.105 NA
HETATM   18  N5  LIG X 999      47.472 125.266  22.015  1.00  0.00    -0.167 NA
HETATM   19  N6  LIG X 999      48.119 124.292  21.634  1.00  0.00     0.068 N 
ENDBRANCH  14  17
ENDBRANCH   4   7
ENDBRANCH   1   4
TORSDOF 3
