REMARK VINA RESULT:      -5.0      3.307      7.588
REMARK  3 active torsions:
REMARK  status: ('A' for Active; 'I' for Inactive)
REMARK    1  A    between atoms: C2_2  and  O1_3 
REMARK    2  A    between atoms: O1_3  and  C3_4 
REMARK       I    between atoms: C3_4  and  N1_6 
REMARK    3  A    between atoms: N1_6  and  C4_7 
ROOT
HETATM    1  C4  LIG X 999      43.274 131.998  21.113  1.00  0.00     0.063 A 
HETATM    2  C5  LIG X 999      42.172 132.343  20.321  1.00  0.00     0.032 A 
HETATM    3  C6  LIG X 999      42.229 132.230  18.929  1.00  0.00     0.014 A 
HETATM    4  C7  LIG X 999      43.389 131.753  18.308  1.00  0.00    -0.025 A 
HETATM    5  C8  LIG X 999      43.456 131.633  16.906  1.00  0.00     0.021 A 
HETATM    6  C9  LIG X 999      44.631 131.146  16.332  1.00  0.00    -0.024 A 
HETATM    7  C10 LIG X 999      45.699 130.781  17.094  1.00  0.00    -0.024 A 
HETATM    8  C11 LIG X 999      45.671 130.876  18.486  1.00  0.00     0.021 A 
HETATM    9  C12 LIG X 999      44.507 131.373  19.105  1.00  0.00    -0.023 A 
HETATM   10  C13 LIG X 999      44.435 131.490  20.501  1.00  0.00     0.044 A 
HETATM   11  C14 LIG X 999      46.795 130.272  16.242  1.00  0.00     0.276 C 
HETATM   12  N2  LIG X 999      46.355 130.513  14.831  1.00  0.00    -0.067 N 
HETATM   13  C15 LIG X 999      47.158 131.603  14.227  1.00  0.00     0.272 C 
HETATM   14  C16 LIG X 999      46.517 129.288  14.016  1.00  0.00     0.272 C 
HETATM   15  C17 LIG X 999      44.913 130.916  14.899  1.00  0.00     0.276 C 
ENDROOT
BRANCH   1  16
HETATM   16  N1  LIG X 999      43.161 132.120  22.538  1.00  0.00    -0.188 NA
HETATM   17  C3  LIG X 999      42.733 131.090  23.435  1.00  0.00     0.387 C 
HETATM   18  O2  LIG X 999      42.448 131.394  24.625  1.00  0.00    -0.236 OA
BRANCH  17  19
HETATM   19  O1  LIG X 999      42.682 129.758  23.016  1.00  0.00    -0.303 OA
BRANCH  19  20
HETATM   20  C2  LIG X 999      43.478 128.733  23.600  1.00  0.00     0.176 C 
HETATM   21  C1  LIG X 999      44.695 128.476  22.727  1.00  0.00     0.034 C 
ENDBRANCH  19  20
ENDBRANCH  17  19
ENDBRANCH   1  16
TORSDOF 3
