REMARK VINA RESULT:      -7.2      1.727      7.845
REMARK  6 active torsions:
REMARK  status: ('A' for Active; 'I' for Inactive)
REMARK    1  A    between atoms: C2_2  and  C3_3 
REMARK    2  A    between atoms: C3_3  and  O1_4 
REMARK    3  A    between atoms: O1_4  and  C4_5 
REMARK    4  A    between atoms: C4_5  and  C6_7 
REMARK    5  A    between atoms: C6_7  and  C7_8 
REMARK       I    between atoms: N1_10  and  C9_11 
REMARK    6  A    between atoms: C9_11  and  C10_13 
ROOT
HETATM    1  C7  LIG X 999      45.464 131.427  17.101  1.00  0.00     0.043 A 
HETATM    2  C8  LIG X 999      44.647 131.950  18.081  1.00  0.00     0.144 A 
HETATM    3  N1  LIG X 999      44.863 131.212  19.189  1.00  0.00    -0.213 N 
HETATM    4  C9  LIG X 999      44.275 131.424  20.482  1.00  0.00     0.274 C 
HETATM    5  O2  LIG X 999      43.678 132.510  20.717  1.00  0.00    -0.266 OA
HETATM    6  N2  LIG X 999      45.778 130.294  18.911  1.00  0.00    -0.013 NA
HETATM    7  N3  LIG X 999      46.151 130.405  17.646  1.00  0.00    -0.286 N 
HETATM    8  H20 LIG X 999      46.857 129.797  17.176  1.00  0.00     0.184 HD
ENDROOT
BRANCH   4   9
HETATM    9  C10 LIG X 999      44.369 130.407  21.554  1.00  0.00     0.034 A 
HETATM   10  C11 LIG X 999      43.743 130.634  22.790  1.00  0.00     0.018 A 
HETATM   11  C12 LIG X 999      43.813 129.682  23.810  1.00  0.00     0.013 A 
HETATM   12  C13 LIG X 999      44.502 128.479  23.607  1.00  0.00    -0.026 A 
HETATM   13  C14 LIG X 999      44.578 127.516  24.624  1.00  0.00     0.012 A 
HETATM   14  C18 LIG X 999      45.124 128.232  22.359  1.00  0.00    -0.025 A 
HETATM   15  C15 LIG X 999      45.264 126.318  24.407  1.00  0.00     0.001 A 
HETATM   16  C16 LIG X 999      45.877 126.073  23.175  1.00  0.00     0.001 A 
HETATM   17  C17 LIG X 999      45.808 127.023  22.153  1.00  0.00     0.012 A 
HETATM   18  C19 LIG X 999      45.049 129.194  21.341  1.00  0.00     0.029 A 
ENDBRANCH   4   9
BRANCH   1  19
HETATM   19  C6  LIG X 999      45.627 131.922  15.693  1.00  0.00     0.091 C 
BRANCH  19  20
HETATM   20  C4  LIG X 999      44.974 130.991  14.651  1.00  0.00     0.123 C 
HETATM   21  C5  LIG X 999      43.534 131.411  14.347  1.00  0.00     0.040 C 
BRANCH  20  22
HETATM   22  O1  LIG X 999      45.712 131.001  13.437  1.00  0.00    -0.382 OA
BRANCH  22  23
HETATM   23  C3  LIG X 999      47.055 131.377  13.667  1.00  0.00     0.194 C 
BRANCH  23  24
HETATM   24  C2  LIG X 999      47.957 130.228  13.330  1.00  0.00    -0.011 C 
HETATM   25  C1  LIG X 999      47.965 129.106  14.056  1.00  0.00     0.009 C 
ENDBRANCH  23  24
ENDBRANCH  22  23
ENDBRANCH  20  22
ENDBRANCH  19  20
ENDBRANCH   1  19
TORSDOF 6
