REMARK VINA RESULT:      -6.2      2.425      6.593
REMARK  4 active torsions:
REMARK  status: ('A' for Active; 'I' for Inactive)
REMARK    1  A    between atoms: C3_3  and  O1_4 
REMARK    2  A    between atoms: O1_4  and  C4_5 
REMARK    3  A    between atoms: C4_5  and  O2_6 
REMARK    4  A    between atoms: C5_8  and  C6_9 
ROOT
HETATM    1  C1  LIG X 999      45.703 131.270  14.157  1.00  0.00     0.014 C 
HETATM    2  C2  LIG X 999      44.932 131.243  15.084  1.00  0.00    -0.091 C 
HETATM    3  C3  LIG X 999      43.999 131.212  16.210  1.00  0.00     0.270 C 
ENDROOT
BRANCH   3   4
HETATM    4  O1  LIG X 999      44.695 131.567  17.398  1.00  0.00    -0.319 OA
BRANCH   4   5
HETATM    5  C4  LIG X 999      45.623 130.732  18.036  1.00  0.00     0.179 C 
HETATM    6  C5  LIG X 999      45.501 130.478  19.342  1.00  0.00     0.075 C 
BRANCH   5   7
HETATM    7  O2  LIG X 999      46.688 130.161  17.337  1.00  0.00    -0.341 OA
HETATM    8  H4  LIG X 999      46.655 129.219  16.971  1.00  0.00     0.220 HD
ENDBRANCH   5   7
BRANCH   6   9
HETATM    9  C6  LIG X 999      44.432 131.070  20.174  1.00  0.00    -0.021 A 
HETATM   10  C7  LIG X 999      43.708 132.142  19.632  1.00  0.00     0.012 A 
HETATM   11  C8  LIG X 999      42.652 132.721  20.337  1.00  0.00     0.002 A 
HETATM   12  C9  LIG X 999      42.307 132.244  21.600  1.00  0.00     0.012 A 
HETATM   13  C10 LIG X 999      43.033 131.197  22.184  1.00  0.00    -0.025 A 
HETATM   14  C11 LIG X 999      42.696 130.740  23.468  1.00  0.00     0.012 A 
HETATM   15  C15 LIG X 999      44.117 130.606  21.481  1.00  0.00    -0.015 A 
HETATM   16  C12 LIG X 999      43.434 129.720  24.068  1.00  0.00     0.001 A 
HETATM   17  C13 LIG X 999      44.520 129.155  23.400  1.00  0.00     0.001 A 
HETATM   18  C14 LIG X 999      44.867 129.595  22.121  1.00  0.00     0.013 A 
ENDBRANCH   6   9
ENDBRANCH   4   5
ENDBRANCH   3   4
TORSDOF 4
