REMARK VINA RESULT:      -7.1      1.694      5.790
REMARK  4 active torsions:
REMARK  status: ('A' for Active; 'I' for Inactive)
REMARK    1  A    between atoms: C3_3  and  O1_4 
REMARK    2  A    between atoms: O1_4  and  C4_5 
REMARK    3  A    between atoms: C13_14  and  C14_15 
REMARK    4  A    between atoms: C14_15  and  O2_16 
ROOT
HETATM    1  C1  LIG X 999      44.484 131.337  21.765  1.00  0.00     0.014 C 
HETATM    2  C2  LIG X 999      45.175 130.893  20.883  1.00  0.00    -0.091 C 
HETATM    3  C3  LIG X 999      46.013 130.353  19.812  1.00  0.00     0.268 C 
ENDROOT
BRANCH   3   4
HETATM    4  O1  LIG X 999      45.191 130.028  18.695  1.00  0.00    -0.339 OA
BRANCH   4   5
HETATM    5  C4  LIG X 999      45.497 130.338  17.359  1.00  0.00     0.079 A 
HETATM    6  C5  LIG X 999      46.634 129.810  16.717  1.00  0.00     0.049 A 
HETATM    7  C6  LIG X 999      46.908 130.123  15.378  1.00  0.00    -0.023 A 
HETATM    8  C7  LIG X 999      48.040 129.597  14.737  1.00  0.00     0.012 A 
HETATM    9  C11 LIG X 999      46.031 130.972  14.664  1.00  0.00    -0.025 A 
HETATM   10  C8  LIG X 999      48.300 129.911  13.401  1.00  0.00     0.001 A 
HETATM   11  C9  LIG X 999      47.434 130.750  12.694  1.00  0.00     0.001 A 
HETATM   12  C10 LIG X 999      46.303 131.280  13.321  1.00  0.00     0.012 A 
HETATM   13  C12 LIG X 999      44.902 131.499  15.302  1.00  0.00     0.024 A 
HETATM   14  C13 LIG X 999      44.636 131.199  16.648  1.00  0.00    -0.001 A 
BRANCH  14  15
HETATM   15  C14 LIG X 999      43.400 131.754  17.304  1.00  0.00     0.205 C 
BRANCH  15  16
HETATM   16  O2  LIG X 999      43.763 132.449  18.464  1.00  0.00    -0.396 OA
HETATM   17  H12 LIG X 999      43.319 131.979  19.217  1.00  0.00     0.209 HD
ENDBRANCH  15  16
ENDBRANCH  14  15
ENDBRANCH   4   5
ENDBRANCH   3   4
TORSDOF 4
