MODEL 1
REMARK VINA RESULT:      -6.3      0.000      0.000
REMARK  4 active torsions:
REMARK  status: ('A' for Active; 'I' for Inactive)
REMARK    1  A    between atoms: C4_4  and  N1_5 
REMARK    2  A    between atoms: C7_10  and  S1_11 
REMARK    3  A    between atoms: S1_11  and  C8_12 
REMARK    4  A    between atoms: C8_12  and  C9_13 
ROOT
HETATM    1  N1  LIG X 999      41.471 127.786  24.429  1.00  0.00    -0.071 NA
HETATM    2  N2  LIG X 999      40.422 127.509  23.845  1.00  0.00    -0.162 NA
HETATM    3  N3  LIG X 999      39.372 127.227  23.269  1.00  0.00     0.068 N 
ENDROOT
BRANCH   1   4
HETATM    4  C4  LIG X 999      42.728 127.958  23.752  1.00  0.00     0.108 A 
HETATM    5  C3  LIG X 999      43.552 126.837  23.608  1.00  0.00     0.008 A 
HETATM    6  C2  LIG X 999      44.743 126.899  22.959  1.00  0.00    -0.021 A 
HETATM    7  C15 LIG X 999      43.313 125.462  24.109  1.00  0.00     0.278 C 
HETATM    8  C1  LIG X 999      45.204 128.083  22.398  1.00  0.00     0.018 A 
HETATM    9  C18 LIG X 999      45.419 125.584  22.972  1.00  0.00     0.276 C 
HETATM   10  C6  LIG X 999      44.416 129.247  22.498  1.00  0.00    -0.035 A 
HETATM   11  C5  LIG X 999      43.192 129.208  23.239  1.00  0.00    -0.018 A 
HETATM   12  C7  LIG X 999      44.956 130.542  21.903  1.00  0.00     0.081 C 
HETATM   13  C14 LIG X 999      42.407 130.483  23.478  1.00  0.00     0.042 C 
HETATM   14  C13 LIG X 999      43.257 131.743  23.314  1.00  0.00     0.006 C 
HETATM   15  C12 LIG X 999      43.964 131.714  21.965  1.00  0.00     0.020 C 
HETATM   16  N4  LIG X 999      44.427 124.628  23.556  1.00  0.00    -0.067 N 
HETATM   17  C16 LIG X 999      43.910 123.724  22.500  1.00  0.00     0.272 C 
HETATM   18  C17 LIG X 999      45.052 123.814  24.625  1.00  0.00     0.272 C 
BRANCH  12  19
HETATM   19  S1  LIG X 999      45.577 130.324  20.183  1.00  0.00    -0.147 SA
BRANCH  19  20
HETATM   20  C8  LIG X 999      44.540 131.571  19.335  1.00  0.00     0.168 C 
BRANCH  20  21
HETATM   21  C9  LIG X 999      44.952 131.674  17.934  1.00  0.00    -0.097 C 
HETATM   22  C10 LIG X 999      45.287 131.756  16.779  1.00  0.00    -0.110 C 
HETATM   23  C11 LIG X 999      45.691 131.855  15.376  1.00  0.00     0.112 C 
ENDBRANCH  20  21
ENDBRANCH  19  20
ENDBRANCH  12  19
ENDBRANCH   1   4
TORSDOF 4
ENDMDL
MODEL 2
REMARK VINA RESULT:      -4.8      5.386      6.848
REMARK  4 active torsions:
REMARK  status: ('A' for Active; 'I' for Inactive)
REMARK    1  A    between atoms: C4_4  and  N1_5 
REMARK    2  A    between atoms: C7_10  and  S1_11 
REMARK    3  A    between atoms: S1_11  and  C8_12 
REMARK    4  A    between atoms: C8_12  and  C9_13 
ROOT
HETATM    1  N1  LIG X 999      45.589 126.639  23.829  1.00  0.00    -0.071 NA
HETATM    2  N2  LIG X 999      45.112 127.626  23.268  1.00  0.00    -0.162 NA
HETATM    3  N3  LIG X 999      44.630 128.613  22.714  1.00  0.00     0.068 N 
ENDROOT
BRANCH   1   4
HETATM    4  C4  LIG X 999      46.005 125.456  23.126  1.00  0.00     0.108 A 
HETATM    5  C3  LIG X 999      45.024 124.519  22.784  1.00  0.00     0.008 A 
HETATM    6  C2  LIG X 999      45.321 123.388  22.096  1.00  0.00    -0.021 A 
HETATM    7  C15 LIG X 999      43.575 124.565  23.094  1.00  0.00     0.278 C 
HETATM    8  C1  LIG X 999      46.618 123.103  21.688  1.00  0.00     0.018 A 
HETATM    9  C18 LIG X 999      44.110 122.564  21.889  1.00  0.00     0.276 C 
HETATM   10  C6  LIG X 999      47.652 124.013  21.990  1.00  0.00    -0.035 A 
HETATM   11  C5  LIG X 999      47.361 125.174  22.775  1.00  0.00    -0.018 A 
HETATM   12  C7  LIG X 999      49.072 123.666  21.561  1.00  0.00     0.081 C 
HETATM   13  C14 LIG X 999      48.485 126.084  23.230  1.00  0.00     0.042 C 
HETATM   14  C13 LIG X 999      49.851 125.398  23.207  1.00  0.00     0.006 C 
HETATM   15  C12 LIG X 999      50.093 124.780  21.836  1.00  0.00     0.020 C 
HETATM   16  N4  LIG X 999      42.968 123.399  22.377  1.00  0.00    -0.067 N 
HETATM   17  C16 LIG X 999      42.159 123.874  21.227  1.00  0.00     0.272 C 
HETATM   18  C17 LIG X 999      42.100 122.617  23.288  1.00  0.00     0.272 C 
BRANCH  12  19
HETATM   19  S1  LIG X 999      49.168 123.135  19.800  1.00  0.00    -0.147 SA
BRANCH  19  20
HETATM   20  C8  LIG X 999      50.833 122.375  19.813  1.00  0.00     0.168 C 
BRANCH  20  21
HETATM   21  C9  LIG X 999      51.700 123.089  18.874  1.00  0.00    -0.097 C 
HETATM   22  C10 LIG X 999      52.417 123.678  18.104  1.00  0.00    -0.110 C 
HETATM   23  C11 LIG X 999      53.291 124.391  17.172  1.00  0.00     0.112 C 
ENDBRANCH  20  21
ENDBRANCH  19  20
ENDBRANCH  12  19
ENDBRANCH   1   4
TORSDOF 4
ENDMDL
MODEL 3
REMARK VINA RESULT:      -4.5      2.908      4.997
REMARK  4 active torsions:
REMARK  status: ('A' for Active; 'I' for Inactive)
REMARK    1  A    between atoms: C4_4  and  N1_5 
REMARK    2  A    between atoms: C7_10  and  S1_11 
REMARK    3  A    between atoms: S1_11  and  C8_12 
REMARK    4  A    between atoms: C8_12  and  C9_13 
ROOT
HETATM    1  N1  LIG X 999      44.446 123.366  22.553  1.00  0.00    -0.071 NA
HETATM    2  N2  LIG X 999      45.133 122.877  23.451  1.00  0.00    -0.162 NA
HETATM    3  N3  LIG X 999      45.818 122.380  24.344  1.00  0.00     0.068 N 
ENDROOT
BRANCH   1   4
HETATM    4  C4  LIG X 999      43.537 124.460  22.763  1.00  0.00     0.108 A 
HETATM    5  C3  LIG X 999      42.181 124.161  22.932  1.00  0.00     0.008 A 
HETATM    6  C2  LIG X 999      41.257 125.127  23.163  1.00  0.00    -0.021 A 
HETATM    7  C15 LIG X 999      41.530 122.830  22.884  1.00  0.00     0.278 C 
HETATM    8  C1  LIG X 999      41.611 126.467  23.249  1.00  0.00     0.018 A 
HETATM    9  C18 LIG X 999      39.903 124.544  23.279  1.00  0.00     0.276 C 
HETATM   10  C6  LIG X 999      42.964 126.835  23.100  1.00  0.00    -0.035 A 
HETATM   11  C5  LIG X 999      43.936 125.832  22.787  1.00  0.00    -0.018 A 
HETATM   12  C7  LIG X 999      43.325 128.314  23.166  1.00  0.00     0.081 C 
HETATM   13  C14 LIG X 999      45.366 126.229  22.481  1.00  0.00     0.042 C 
HETATM   14  C13 LIG X 999      45.500 127.695  22.067  1.00  0.00     0.006 C 
HETATM   15  C12 LIG X 999      44.836 128.586  23.109  1.00  0.00     0.020 C 
HETATM   16  N4  LIG X 999      40.103 123.061  23.272  1.00  0.00    -0.067 N 
HETATM   17  C16 LIG X 999      39.848 122.507  24.625  1.00  0.00     0.272 C 
HETATM   18  C17 LIG X 999      39.186 122.414  22.305  1.00  0.00     0.272 C 
BRANCH  12  19
HETATM   19  S1  LIG X 999      42.580 129.159  24.623  1.00  0.00    -0.147 SA
BRANCH  19  20
HETATM   20  C8  LIG X 999      43.334 130.814  24.420  1.00  0.00     0.168 C 
BRANCH  20  21
HETATM   21  C9  LIG X 999      43.091 131.294  23.058  1.00  0.00    -0.097 C 
HETATM   22  C10 LIG X 999      42.896 131.689  21.936  1.00  0.00    -0.110 C 
HETATM   23  C11 LIG X 999      42.663 132.168  20.573  1.00  0.00     0.112 C 
ENDBRANCH  20  21
ENDBRANCH  19  20
ENDBRANCH  12  19
ENDBRANCH   1   4
TORSDOF 4
ENDMDL
MODEL 4
REMARK VINA RESULT:      -4.3      4.804      6.024
REMARK  4 active torsions:
REMARK  status: ('A' for Active; 'I' for Inactive)
REMARK    1  A    between atoms: C4_4  and  N1_5 
REMARK    2  A    between atoms: C7_10  and  S1_11 
REMARK    3  A    between atoms: S1_11  and  C8_12 
REMARK    4  A    between atoms: C8_12  and  C9_13 
ROOT
HETATM    1  N1  LIG X 999      42.733 127.092  24.536  1.00  0.00    -0.071 NA
HETATM    2  N2  LIG X 999      42.796 128.118  23.857  1.00  0.00    -0.162 NA
HETATM    3  N3  LIG X 999      42.850 129.144  23.181  1.00  0.00     0.068 N 
ENDROOT
BRANCH   1   4
HETATM    4  C4  LIG X 999      43.298 125.836  24.122  1.00  0.00     0.108 A 
HETATM    5  C3  LIG X 999      42.427 124.761  23.922  1.00  0.00     0.008 A 
HETATM    6  C2  LIG X 999      42.868 123.548  23.505  1.00  0.00    -0.021 A 
HETATM    7  C15 LIG X 999      40.958 124.731  24.124  1.00  0.00     0.278 C 
HETATM    8  C1  LIG X 999      44.212 123.311  23.247  1.00  0.00     0.018 A 
HETATM    9  C18 LIG X 999      41.747 122.588  23.398  1.00  0.00     0.276 C 
HETATM   10  C6  LIG X 999      45.142 124.357  23.418  1.00  0.00    -0.035 A 
HETATM   11  C5  LIG X 999      44.697 125.619  23.924  1.00  0.00    -0.018 A 
HETATM   12  C7  LIG X 999      46.615 124.067  23.162  1.00  0.00     0.081 C 
HETATM   13  C14 LIG X 999      45.703 126.705  24.250  1.00  0.00     0.042 C 
HETATM   14  C13 LIG X 999      47.117 126.161  24.457  1.00  0.00     0.006 C 
HETATM   15  C12 LIG X 999      47.519 125.305  23.263  1.00  0.00     0.020 C 
HETATM   16  N4  LIG X 999      40.506 123.392  23.628  1.00  0.00    -0.067 N 
HETATM   17  C16 LIG X 999      39.758 123.547  22.356  1.00  0.00     0.272 C 
HETATM   18  C17 LIG X 999      39.632 122.732  24.625  1.00  0.00     0.272 C 
BRANCH  12  19
HETATM   19  S1  LIG X 999      46.897 123.203  21.559  1.00  0.00    -0.147 SA
BRANCH  19  20
HETATM   20  C8  LIG X 999      48.667 122.784  21.758  1.00  0.00     0.168 C 
BRANCH  20  21
HETATM   21  C9  LIG X 999      49.389 123.133  20.532  1.00  0.00    -0.097 C 
HETATM   22  C10 LIG X 999      49.979 123.423  19.522  1.00  0.00    -0.110 C 
HETATM   23  C11 LIG X 999      50.694 123.778  18.296  1.00  0.00     0.112 C 
ENDBRANCH  20  21
ENDBRANCH  19  20
ENDBRANCH  12  19
ENDBRANCH   1   4
TORSDOF 4
ENDMDL
MODEL 5
REMARK VINA RESULT:      -4.3      1.856      2.421
REMARK  4 active torsions:
REMARK  status: ('A' for Active; 'I' for Inactive)
REMARK    1  A    between atoms: C4_4  and  N1_5 
REMARK    2  A    between atoms: C7_10  and  S1_11 
REMARK    3  A    between atoms: S1_11  and  C8_12 
REMARK    4  A    between atoms: C8_12  and  C9_13 
ROOT
HETATM    1  N1  LIG X 999      41.583 126.072  24.424  1.00  0.00    -0.071 NA
HETATM    2  N2  LIG X 999      40.780 125.389  23.787  1.00  0.00    -0.162 NA
HETATM    3  N3  LIG X 999      39.976 124.702  23.159  1.00  0.00     0.068 N 
ENDROOT
BRANCH   1   4
HETATM    4  C4  LIG X 999      42.810 126.572  23.865  1.00  0.00     0.108 A 
HETATM    5  C3  LIG X 999      43.834 125.656  23.610  1.00  0.00     0.008 A 
HETATM    6  C2  LIG X 999      45.015 126.034  23.058  1.00  0.00    -0.021 A 
HETATM    7  C15 LIG X 999      43.840 124.198  23.883  1.00  0.00     0.278 C 
HETATM    8  C1  LIG X 999      45.266 127.355  22.711  1.00  0.00     0.018 A 
HETATM    9  C18 LIG X 999      45.926 124.877  22.919  1.00  0.00     0.276 C 
HETATM   10  C6  LIG X 999      44.269 128.328  22.931  1.00  0.00    -0.035 A 
HETATM   11  C5  LIG X 999      43.048 127.952  23.576  1.00  0.00    -0.018 A 
HETATM   12  C7  LIG X 999      44.578 129.776  22.574  1.00  0.00     0.081 C 
HETATM   13  C14 LIG X 999      42.029 129.010  23.951  1.00  0.00     0.042 C 
HETATM   14  C13 LIG X 999      42.632 130.412  24.033  1.00  0.00     0.006 C 
HETATM   15  C12 LIG X 999      43.382 130.726  22.745  1.00  0.00     0.020 C 
HETATM   16  N4  LIG X 999      45.111 123.677  23.287  1.00  0.00    -0.067 N 
HETATM   17  C16 LIG X 999      44.813 122.875  22.075  1.00  0.00     0.272 C 
HETATM   18  C17 LIG X 999      45.837 122.830  24.260  1.00  0.00     0.272 C 
BRANCH  12  19
HETATM   19  S1  LIG X 999      45.292 129.950  20.885  1.00  0.00    -0.147 SA
BRANCH  19  20
HETATM   20  C8  LIG X 999      44.949 131.725  20.602  1.00  0.00     0.168 C 
BRANCH  20  21
HETATM   21  C9  LIG X 999      46.063 132.523  21.117  1.00  0.00    -0.097 C 
HETATM   22  C10 LIG X 999      46.980 133.184  21.537  1.00  0.00    -0.110 C 
HETATM   23  C11 LIG X 999      48.091 133.988  22.047  1.00  0.00     0.112 C 
ENDBRANCH  20  21
ENDBRANCH  19  20
ENDBRANCH  12  19
ENDBRANCH   1   4
TORSDOF 4
ENDMDL
