MODEL 1
REMARK VINA RESULT:      -8.7      0.000      0.000
REMARK  6 active torsions:
REMARK  status: ('A' for Active; 'I' for Inactive)
REMARK    1  A    between atoms: O1_2  and  C1_3 
REMARK    2  A    between atoms: C1_3  and  C2_4 
REMARK    3  A    between atoms: C1_3  and  C13_20 
REMARK    4  A    between atoms: C2_4  and  O3_6 
REMARK    5  A    between atoms: O3_6  and  C3_7 
REMARK    6  A    between atoms: C8_12  and  N1_13 
ROOT
HETATM    1  N1  LIG X 999      42.760 131.493  23.585  1.00  0.00    -0.073 NA
HETATM    2  N2  LIG X 999      42.321 130.465  24.105  1.00  0.00    -0.162 NA
HETATM    3  N3  LIG X 999      41.883 129.440  24.625  1.00  0.00     0.068 N 
ENDROOT
BRANCH   1   4
HETATM    4  C8  LIG X 999      43.304 131.509  22.258  1.00  0.00     0.094 A 
HETATM    5  C7  LIG X 999      42.491 131.707  21.125  1.00  0.00     0.046 A 
HETATM    6  C6  LIG X 999      43.057 131.716  19.841  1.00  0.00    -0.024 A 
HETATM    7  C5  LIG X 999      42.257 131.918  18.708  1.00  0.00     0.015 A 
HETATM    8  C11 LIG X 999      44.451 131.526  19.686  1.00  0.00    -0.023 A 
HETATM    9  C4  LIG X 999      42.829 131.925  17.432  1.00  0.00     0.038 A 
HETATM   10  C3  LIG X 999      44.211 131.719  17.270  1.00  0.00     0.080 A 
HETATM   11  C12 LIG X 999      45.016 131.537  18.401  1.00  0.00     0.049 A 
HETATM   12  C10 LIG X 999      45.254 131.332  20.818  1.00  0.00     0.014 A 
HETATM   13  C9  LIG X 999      44.681 131.324  22.093  1.00  0.00     0.035 A 
BRANCH  10  14
HETATM   14  O3  LIG X 999      44.826 131.729  16.011  1.00  0.00    -0.277 OA
BRANCH  14  15
HETATM   15  C2  LIG X 999      45.376 130.611  15.367  1.00  0.00     0.293 C 
HETATM   16  O2  LIG X 999      44.635 129.708  14.890  1.00  0.00    -0.262 OA
BRANCH  15  17
HETATM   17  C1  LIG X 999      46.868 130.444  15.326  1.00  0.00     0.217 C 
BRANCH  17  18
HETATM   18  O1  LIG X 999      47.263 129.543  16.326  1.00  0.00    -0.386 OA
HETATM   19  H1  LIG X 999      47.296 128.643  15.907  1.00  0.00     0.210 HD
ENDBRANCH  17  18
BRANCH  17  20
HETATM   20  C13 LIG X 999      47.323 129.903  13.962  1.00  0.00     0.037 C 
HETATM   21  C14 LIG X 999      47.590 131.019  12.949  1.00  0.00     0.008 C 
ENDBRANCH  17  20
ENDBRANCH  15  17
ENDBRANCH  14  15
ENDBRANCH  10  14
ENDBRANCH   1   4
TORSDOF 6
ENDMDL
MODEL 2
REMARK VINA RESULT:      -7.6      5.083      7.352
REMARK  6 active torsions:
REMARK  status: ('A' for Active; 'I' for Inactive)
REMARK    1  A    between atoms: O1_2  and  C1_3 
REMARK    2  A    between atoms: C1_3  and  C2_4 
REMARK    3  A    between atoms: C1_3  and  C13_20 
REMARK    4  A    between atoms: C2_4  and  O3_6 
REMARK    5  A    between atoms: O3_6  and  C3_7 
REMARK    6  A    between atoms: C8_12  and  N1_13 
ROOT
HETATM    1  N1  LIG X 999      44.467 131.242  14.941  1.00  0.00    -0.073 NA
HETATM    2  N2  LIG X 999      45.439 131.068  14.201  1.00  0.00    -0.162 NA
HETATM    3  N3  LIG X 999      46.406 130.894  13.463  1.00  0.00     0.068 N 
ENDROOT
BRANCH   1   4
HETATM    4  C8  LIG X 999      44.578 131.217  16.370  1.00  0.00     0.094 A 
HETATM    5  C7  LIG X 999      43.543 131.682  17.204  1.00  0.00     0.046 A 
HETATM    6  C6  LIG X 999      43.686 131.642  18.599  1.00  0.00    -0.024 A 
HETATM    7  C5  LIG X 999      42.658 132.098  19.436  1.00  0.00     0.015 A 
HETATM    8  C11 LIG X 999      44.876 131.132  19.169  1.00  0.00    -0.023 A 
HETATM    9  C4  LIG X 999      42.809 132.056  20.826  1.00  0.00     0.038 A 
HETATM   10  C3  LIG X 999      43.997 131.567  21.399  1.00  0.00     0.080 A 
HETATM   11  C12 LIG X 999      45.017 131.092  20.565  1.00  0.00     0.049 A 
HETATM   12  C10 LIG X 999      45.902 130.669  18.334  1.00  0.00     0.014 A 
HETATM   13  C9  LIG X 999      45.751 130.712  16.945  1.00  0.00     0.035 A 
BRANCH  10  14
HETATM   14  O3  LIG X 999      44.185 131.497  22.786  1.00  0.00    -0.277 OA
BRANCH  14  15
HETATM   15  C2  LIG X 999      43.187 131.208  23.727  1.00  0.00     0.293 C 
HETATM   16  O2  LIG X 999      42.547 132.133  24.299  1.00  0.00    -0.262 OA
BRANCH  15  17
HETATM   17  C1  LIG X 999      42.939 129.781  24.123  1.00  0.00     0.217 C 
BRANCH  17  18
HETATM   18  O1  LIG X 999      42.064 129.187  23.202  1.00  0.00    -0.386 OA
HETATM   19  H1  LIG X 999      41.835 129.884  22.532  1.00  0.00     0.210 HD
ENDBRANCH  17  18
BRANCH  17  20
HETATM   20  C13 LIG X 999      44.251 128.981  24.149  1.00  0.00     0.037 C 
HETATM   21  C14 LIG X 999      44.335 127.958  23.015  1.00  0.00     0.008 C 
ENDBRANCH  17  20
ENDBRANCH  15  17
ENDBRANCH  14  15
ENDBRANCH  10  14
ENDBRANCH   1   4
TORSDOF 6
ENDMDL
MODEL 3
REMARK VINA RESULT:      -7.5      5.022      7.395
REMARK  6 active torsions:
REMARK  status: ('A' for Active; 'I' for Inactive)
REMARK    1  A    between atoms: O1_2  and  C1_3 
REMARK    2  A    between atoms: C1_3  and  C2_4 
REMARK    3  A    between atoms: C1_3  and  C13_20 
REMARK    4  A    between atoms: C2_4  and  O3_6 
REMARK    5  A    between atoms: O3_6  and  C3_7 
REMARK    6  A    between atoms: C8_12  and  N1_13 
ROOT
HETATM    1  N1  LIG X 999      45.207 130.978  14.310  1.00  0.00    -0.073 NA
HETATM    2  N2  LIG X 999      46.354 130.931  13.860  1.00  0.00    -0.162 NA
HETATM    3  N3  LIG X 999      47.498 130.885  13.410  1.00  0.00     0.068 N 
ENDROOT
BRANCH   1   4
HETATM    4  C8  LIG X 999      44.938 131.130  15.710  1.00  0.00     0.094 A 
HETATM    5  C7  LIG X 999      43.691 131.580  16.182  1.00  0.00     0.046 A 
HETATM    6  C6  LIG X 999      43.462 131.717  17.560  1.00  0.00    -0.024 A 
HETATM    7  C5  LIG X 999      42.222 132.160  18.039  1.00  0.00     0.015 A 
HETATM    8  C11 LIG X 999      44.492 131.399  18.477  1.00  0.00    -0.023 A 
HETATM    9  C4  LIG X 999      42.003 132.294  19.414  1.00  0.00     0.038 A 
HETATM   10  C3  LIG X 999      43.028 131.997  20.330  1.00  0.00     0.080 A 
HETATM   11  C12 LIG X 999      44.262 131.535  19.855  1.00  0.00     0.049 A 
HETATM   12  C10 LIG X 999      45.730 130.949  18.001  1.00  0.00     0.014 A 
HETATM   13  C9  LIG X 999      45.949 130.816  16.626  1.00  0.00     0.035 A 
BRANCH  10  14
HETATM   14  O3  LIG X 999      42.848 132.107  21.716  1.00  0.00    -0.277 OA
BRANCH  14  15
HETATM   15  C2  LIG X 999      43.457 131.292  22.681  1.00  0.00     0.293 C 
HETATM   16  O2  LIG X 999      44.356 131.747  23.441  1.00  0.00    -0.262 OA
BRANCH  15  17
HETATM   17  C1  LIG X 999      43.096 129.836  22.748  1.00  0.00     0.217 C 
BRANCH  17  18
HETATM   18  O1  LIG X 999      44.268 129.066  22.766  1.00  0.00    -0.386 OA
HETATM   19  H1  LIG X 999      44.935 129.543  22.205  1.00  0.00     0.210 HD
ENDBRANCH  17  18
BRANCH  17  20
HETATM   20  C13 LIG X 999      42.280 129.530  24.014  1.00  0.00     0.037 C 
HETATM   21  C14 LIG X 999      41.417 128.275  23.865  1.00  0.00     0.008 C 
ENDBRANCH  17  20
ENDBRANCH  15  17
ENDBRANCH  14  15
ENDBRANCH  10  14
ENDBRANCH   1   4
TORSDOF 6
ENDMDL
MODEL 4
REMARK VINA RESULT:      -7.5      5.086      7.506
REMARK  6 active torsions:
REMARK  status: ('A' for Active; 'I' for Inactive)
REMARK    1  A    between atoms: O1_2  and  C1_3 
REMARK    2  A    between atoms: C1_3  and  C2_4 
REMARK    3  A    between atoms: C1_3  and  C13_20 
REMARK    4  A    between atoms: C2_4  and  O3_6 
REMARK    5  A    between atoms: O3_6  and  C3_7 
REMARK    6  A    between atoms: C8_12  and  N1_13 
ROOT
HETATM    1  N1  LIG X 999      45.999 130.615  14.270  1.00  0.00    -0.073 NA
HETATM    2  N2  LIG X 999      47.001 129.903  14.173  1.00  0.00    -0.162 NA
HETATM    3  N3  LIG X 999      48.000 129.193  14.075  1.00  0.00     0.068 N 
ENDROOT
BRANCH   1   4
HETATM    4  C8  LIG X 999      45.376 130.893  15.531  1.00  0.00     0.094 A 
HETATM    5  C7  LIG X 999      46.015 130.612  16.753  1.00  0.00     0.046 A 
HETATM    6  C6  LIG X 999      45.375 130.897  17.970  1.00  0.00    -0.024 A 
HETATM    7  C5  LIG X 999      46.007 130.625  19.191  1.00  0.00     0.015 A 
HETATM    8  C11 LIG X 999      44.081 131.470  17.965  1.00  0.00    -0.023 A 
HETATM    9  C4  LIG X 999      45.361 130.912  20.398  1.00  0.00     0.038 A 
HETATM   10  C3  LIG X 999      44.068 131.465  20.400  1.00  0.00     0.080 A 
HETATM   11  C12 LIG X 999      43.443 131.756  19.181  1.00  0.00     0.049 A 
HETATM   12  C10 LIG X 999      43.452 131.750  16.744  1.00  0.00     0.014 A 
HETATM   13  C9  LIG X 999      44.097 131.462  15.538  1.00  0.00     0.035 A 
BRANCH  10  14
HETATM   14  O3  LIG X 999      43.389 131.777  21.586  1.00  0.00    -0.277 OA
BRANCH  14  15
HETATM   15  C2  LIG X 999      43.761 131.352  22.869  1.00  0.00     0.293 C 
HETATM   16  O2  LIG X 999      44.579 132.017  23.562  1.00  0.00    -0.262 OA
BRANCH  15  17
HETATM   17  C1  LIG X 999      43.246 130.040  23.389  1.00  0.00     0.217 C 
BRANCH  17  18
HETATM   18  O1  LIG X 999      42.036 129.730  22.750  1.00  0.00    -0.386 OA
HETATM   19  H1  LIG X 999      42.193 129.825  21.774  1.00  0.00     0.210 HD
ENDBRANCH  17  18
BRANCH  17  20
HETATM   20  C13 LIG X 999      44.252 128.910  23.123  1.00  0.00     0.037 C 
HETATM   21  C14 LIG X 999      43.764 127.557  23.644  1.00  0.00     0.008 C 
ENDBRANCH  17  20
ENDBRANCH  15  17
ENDBRANCH  14  15
ENDBRANCH  10  14
ENDBRANCH   1   4
TORSDOF 6
ENDMDL
MODEL 5
REMARK VINA RESULT:      -7.2      1.099      1.314
REMARK  6 active torsions:
REMARK  status: ('A' for Active; 'I' for Inactive)
REMARK    1  A    between atoms: O1_2  and  C1_3 
REMARK    2  A    between atoms: C1_3  and  C2_4 
REMARK    3  A    between atoms: C1_3  and  C13_20 
REMARK    4  A    between atoms: C2_4  and  O3_6 
REMARK    5  A    between atoms: O3_6  and  C3_7 
REMARK    6  A    between atoms: C8_12  and  N1_13 
ROOT
HETATM    1  N1  LIG X 999      42.720 129.931  24.227  1.00  0.00    -0.073 NA
HETATM    2  N2  LIG X 999      41.867 129.052  24.363  1.00  0.00    -0.162 NA
HETATM    3  N3  LIG X 999      41.015 128.176  24.501  1.00  0.00     0.068 N 
ENDROOT
BRANCH   1   4
HETATM    4  C8  LIG X 999      43.348 130.200  22.966  1.00  0.00     0.094 A 
HETATM    5  C7  LIG X 999      42.731 130.997  21.984  1.00  0.00     0.046 A 
HETATM    6  C6  LIG X 999      43.375 131.240  20.760  1.00  0.00    -0.024 A 
HETATM    7  C5  LIG X 999      42.769 132.037  19.780  1.00  0.00     0.015 A 
HETATM    8  C11 LIG X 999      44.651 130.680  20.516  1.00  0.00    -0.023 A 
HETATM    9  C4  LIG X 999      43.418 132.273  18.563  1.00  0.00     0.038 A 
HETATM   10  C3  LIG X 999      44.678 131.704  18.306  1.00  0.00     0.080 A 
HETATM   11  C12 LIG X 999      45.294 130.924  19.292  1.00  0.00     0.049 A 
HETATM   12  C10 LIG X 999      45.261 129.888  21.498  1.00  0.00     0.014 A 
HETATM   13  C9  LIG X 999      44.612 129.652  22.713  1.00  0.00     0.035 A 
BRANCH  10  14
HETATM   14  O3  LIG X 999      45.367 131.924  17.105  1.00  0.00    -0.277 OA
BRANCH  14  15
HETATM   15  C2  LIG X 999      45.262 131.132  15.953  1.00  0.00     0.293 C 
HETATM   16  O2  LIG X 999      44.174 131.049  15.320  1.00  0.00    -0.262 OA
BRANCH  15  17
HETATM   17  C1  LIG X 999      46.436 130.302  15.520  1.00  0.00     0.217 C 
BRANCH  17  18
HETATM   18  O1  LIG X 999      46.143 128.944  15.712  1.00  0.00    -0.386 OA
HETATM   19  H1  LIG X 999      45.293 128.762  15.230  1.00  0.00     0.210 HD
ENDBRANCH  17  18
BRANCH  17  20
HETATM   20  C13 LIG X 999      46.758 130.536  14.036  1.00  0.00     0.037 C 
HETATM   21  C14 LIG X 999      47.994 129.760  13.575  1.00  0.00     0.008 C 
ENDBRANCH  17  20
ENDBRANCH  15  17
ENDBRANCH  14  15
ENDBRANCH  10  14
ENDBRANCH   1   4
TORSDOF 6
ENDMDL
MODEL 6
REMARK VINA RESULT:      -6.6      5.059      7.725
REMARK  6 active torsions:
REMARK  status: ('A' for Active; 'I' for Inactive)
REMARK    1  A    between atoms: O1_2  and  C1_3 
REMARK    2  A    between atoms: C1_3  and  C2_4 
REMARK    3  A    between atoms: C1_3  and  C13_20 
REMARK    4  A    between atoms: C2_4  and  O3_6 
REMARK    5  A    between atoms: O3_6  and  C3_7 
REMARK    6  A    between atoms: C8_12  and  N1_13 
ROOT
HETATM    1  N1  LIG X 999      44.834 130.815  15.043  1.00  0.00    -0.073 NA
HETATM    2  N2  LIG X 999      45.914 131.116  14.530  1.00  0.00    -0.162 NA
HETATM    3  N3  LIG X 999      46.990 131.417  14.017  1.00  0.00     0.068 N 
ENDROOT
BRANCH   1   4
HETATM    4  C8  LIG X 999      44.552 131.051  16.429  1.00  0.00     0.094 A 
HETATM    5  C7  LIG X 999      45.463 130.696  17.442  1.00  0.00     0.046 A 
HETATM    6  C6  LIG X 999      45.154 130.942  18.790  1.00  0.00    -0.024 A 
HETATM    7  C5  LIG X 999      46.057 130.596  19.804  1.00  0.00     0.015 A 
HETATM    8  C11 LIG X 999      43.922 131.549  19.128  1.00  0.00    -0.023 A 
HETATM    9  C4  LIG X 999      45.741 130.844  21.144  1.00  0.00     0.038 A 
HETATM   10  C3  LIG X 999      44.510 131.431  21.488  1.00  0.00     0.080 A 
HETATM   11  C12 LIG X 999      43.615 131.794  20.475  1.00  0.00     0.049 A 
HETATM   12  C10 LIG X 999      43.021 131.901  18.114  1.00  0.00     0.014 A 
HETATM   13  C9  LIG X 999      43.337 131.653  16.775  1.00  0.00     0.035 A 
BRANCH  10  14
HETATM   14  O3  LIG X 999      44.158 131.705  22.817  1.00  0.00    -0.277 OA
BRANCH  14  15
HETATM   15  C2  LIG X 999      43.841 130.744  23.788  1.00  0.00     0.293 C 
HETATM   16  O2  LIG X 999      44.744 130.063  24.346  1.00  0.00    -0.262 OA
BRANCH  15  17
HETATM   17  C1  LIG X 999      42.399 130.462  24.101  1.00  0.00     0.217 C 
BRANCH  17  18
HETATM   18  O1  LIG X 999      41.608 131.533  23.659  1.00  0.00    -0.386 OA
HETATM   19  H1  LIG X 999      41.545 131.455  22.670  1.00  0.00     0.210 HD
ENDBRANCH  17  18
BRANCH  17  20
HETATM   20  C13 LIG X 999      41.927 129.175  23.407  1.00  0.00     0.037 C 
HETATM   21  C14 LIG X 999      41.006 128.336  24.295  1.00  0.00     0.008 C 
ENDBRANCH  17  20
ENDBRANCH  15  17
ENDBRANCH  14  15
ENDBRANCH  10  14
ENDBRANCH   1   4
TORSDOF 6
ENDMDL
MODEL 7
REMARK VINA RESULT:      -6.5      5.074      7.523
REMARK  6 active torsions:
REMARK  status: ('A' for Active; 'I' for Inactive)
REMARK    1  A    between atoms: O1_2  and  C1_3 
REMARK    2  A    between atoms: C1_3  and  C2_4 
REMARK    3  A    between atoms: C1_3  and  C13_20 
REMARK    4  A    between atoms: C2_4  and  O3_6 
REMARK    5  A    between atoms: O3_6  and  C3_7 
REMARK    6  A    between atoms: C8_12  and  N1_13 
ROOT
HETATM    1  N1  LIG X 999      45.931 130.244  14.074  1.00  0.00    -0.073 NA
HETATM    2  N2  LIG X 999      47.094 129.986  13.755  1.00  0.00    -0.162 NA
HETATM    3  N3  LIG X 999      48.253 129.729  13.435  1.00  0.00     0.068 N 
ENDROOT
BRANCH   1   4
HETATM    4  C8  LIG X 999      45.553 130.527  15.428  1.00  0.00     0.094 A 
HETATM    5  C7  LIG X 999      44.306 131.098  15.747  1.00  0.00     0.046 A 
HETATM    6  C6  LIG X 999      43.968 131.362  17.083  1.00  0.00    -0.024 A 
HETATM    7  C5  LIG X 999      42.727 131.925  17.409  1.00  0.00     0.015 A 
HETATM    8  C11 LIG X 999      44.887 131.051  18.114  1.00  0.00    -0.023 A 
HETATM    9  C4  LIG X 999      42.400 132.186  18.744  1.00  0.00     0.038 A 
HETATM   10  C3  LIG X 999      43.315 131.896  19.772  1.00  0.00     0.080 A 
HETATM   11  C12 LIG X 999      44.548 131.314  19.450  1.00  0.00     0.049 A 
HETATM   12  C10 LIG X 999      46.125 130.481  17.790  1.00  0.00     0.014 A 
HETATM   13  C9  LIG X 999      46.453 130.222  16.456  1.00  0.00     0.035 A 
BRANCH  10  14
HETATM   14  O3  LIG X 999      43.023 132.131  21.122  1.00  0.00    -0.277 OA
BRANCH  14  15
HETATM   15  C2  LIG X 999      43.246 131.226  22.170  1.00  0.00     0.293 C 
HETATM   16  O2  LIG X 999      44.169 130.368  22.102  1.00  0.00    -0.262 OA
BRANCH  15  17
HETATM   17  C1  LIG X 999      42.316 131.222  23.349  1.00  0.00     0.217 C 
BRANCH  17  18
HETATM   18  O1  LIG X 999      41.821 129.924  23.547  1.00  0.00    -0.386 OA
HETATM   19  H1  LIG X 999      41.104 129.783  22.874  1.00  0.00     0.210 HD
ENDBRANCH  17  18
BRANCH  17  20
HETATM   20  C13 LIG X 999      43.042 131.677  24.624  1.00  0.00     0.037 C 
HETATM   21  C14 LIG X 999      44.335 132.436  24.322  1.00  0.00     0.008 C 
ENDBRANCH  17  20
ENDBRANCH  15  17
ENDBRANCH  14  15
ENDBRANCH  10  14
ENDBRANCH   1   4
TORSDOF 6
ENDMDL
MODEL 8
REMARK VINA RESULT:      -6.0      5.140      7.533
REMARK  6 active torsions:
REMARK  status: ('A' for Active; 'I' for Inactive)
REMARK    1  A    between atoms: O1_2  and  C1_3 
REMARK    2  A    between atoms: C1_3  and  C2_4 
REMARK    3  A    between atoms: C1_3  and  C13_20 
REMARK    4  A    between atoms: C2_4  and  O3_6 
REMARK    5  A    between atoms: O3_6  and  C3_7 
REMARK    6  A    between atoms: C8_12  and  N1_13 
ROOT
HETATM    1  N1  LIG X 999      47.110 131.085  13.310  1.00  0.00    -0.073 NA
HETATM    2  N2  LIG X 999      47.937 130.170  13.303  1.00  0.00    -0.162 NA
HETATM    3  N3  LIG X 999      48.763 129.259  13.295  1.00  0.00     0.068 N 
ENDROOT
BRANCH   1   4
HETATM    4  C8  LIG X 999      46.104 131.200  14.325  1.00  0.00     0.094 A 
HETATM    5  C7  LIG X 999      46.414 131.088  15.694  1.00  0.00     0.046 A 
HETATM    6  C6  LIG X 999      45.404 131.206  16.661  1.00  0.00    -0.024 A 
HETATM    7  C5  LIG X 999      45.705 131.100  18.026  1.00  0.00     0.015 A 
HETATM    8  C11 LIG X 999      44.069 131.440  16.257  1.00  0.00    -0.023 A 
HETATM    9  C4  LIG X 999      44.692 131.219  18.983  1.00  0.00     0.038 A 
HETATM   10  C3  LIG X 999      43.360 131.434  18.587  1.00  0.00     0.080 A 
HETATM   11  C12 LIG X 999      43.060 131.560  17.225  1.00  0.00     0.049 A 
HETATM   12  C10 LIG X 999      43.767 131.554  14.893  1.00  0.00     0.014 A 
HETATM   13  C9  LIG X 999      44.780 131.434  13.936  1.00  0.00     0.035 A 
BRANCH  10  14
HETATM   14  O3  LIG X 999      42.316 131.569  19.513  1.00  0.00    -0.277 OA
BRANCH  14  15
HETATM   15  C2  LIG X 999      42.330 132.411  20.634  1.00  0.00     0.293 C 
HETATM   16  O2  LIG X 999      42.251 133.663  20.506  1.00  0.00    -0.262 OA
BRANCH  15  17
HETATM   17  C1  LIG X 999      42.532 131.816  21.998  1.00  0.00     0.217 C 
BRANCH  17  18
HETATM   18  O1  LIG X 999      42.408 130.421  21.921  1.00  0.00    -0.386 OA
HETATM   19  H1  LIG X 999      42.577 130.169  20.975  1.00  0.00     0.210 HD
ENDBRANCH  17  18
BRANCH  17  20
HETATM   20  C13 LIG X 999      43.924 132.162  22.549  1.00  0.00     0.037 C 
HETATM   21  C14 LIG X 999      45.020 131.259  21.980  1.00  0.00     0.008 C 
ENDBRANCH  17  20
ENDBRANCH  15  17
ENDBRANCH  14  15
ENDBRANCH  10  14
ENDBRANCH   1   4
TORSDOF 6
ENDMDL
MODEL 9
REMARK VINA RESULT:      -5.7      5.032      7.296
REMARK  6 active torsions:
REMARK  status: ('A' for Active; 'I' for Inactive)
REMARK    1  A    between atoms: O1_2  and  C1_3 
REMARK    2  A    between atoms: C1_3  and  C2_4 
REMARK    3  A    between atoms: C1_3  and  C13_20 
REMARK    4  A    between atoms: C2_4  and  O3_6 
REMARK    5  A    between atoms: O3_6  and  C3_7 
REMARK    6  A    between atoms: C8_12  and  N1_13 
ROOT
HETATM    1  N1  LIG X 999      45.058 131.206  15.039  1.00  0.00    -0.073 NA
HETATM    2  N2  LIG X 999      44.192 131.289  14.165  1.00  0.00    -0.162 NA
HETATM    3  N3  LIG X 999      43.329 131.372  13.293  1.00  0.00     0.068 N 
ENDROOT
BRANCH   1   4
HETATM    4  C8  LIG X 999      44.748 131.304  16.436  1.00  0.00     0.094 A 
HETATM    5  C7  LIG X 999      43.498 131.765  16.889  1.00  0.00     0.046 A 
HETATM    6  C6  LIG X 999      43.229 131.847  18.264  1.00  0.00    -0.024 A 
HETATM    7  C5  LIG X 999      41.985 132.300  18.723  1.00  0.00     0.015 A 
HETATM    8  C11 LIG X 999      44.221 131.465  19.197  1.00  0.00    -0.023 A 
HETATM    9  C4  LIG X 999      41.726 132.380  20.095  1.00  0.00     0.038 A 
HETATM   10  C3  LIG X 999      42.714 132.018  21.029  1.00  0.00     0.080 A 
HETATM   11  C12 LIG X 999      43.951 131.547  20.572  1.00  0.00     0.049 A 
HETATM   12  C10 LIG X 999      45.463 131.005  18.740  1.00  0.00     0.014 A 
HETATM   13  C9  LIG X 999      45.722 130.926  17.368  1.00  0.00     0.035 A 
BRANCH  10  14
HETATM   14  O3  LIG X 999      42.493 132.073  22.412  1.00  0.00    -0.277 OA
BRANCH  14  15
HETATM   15  C2  LIG X 999      42.749 131.033  23.317  1.00  0.00     0.293 C 
HETATM   16  O2  LIG X 999      42.123 129.940  23.244  1.00  0.00    -0.262 OA
BRANCH  15  17
HETATM   17  C1  LIG X 999      43.718 131.258  24.442  1.00  0.00     0.217 C 
BRANCH  17  18
HETATM   18  O1  LIG X 999      44.919 130.588  24.163  1.00  0.00    -0.386 OA
HETATM   19  H1  LIG X 999      44.674 129.726  23.732  1.00  0.00     0.210 HD
ENDBRANCH  17  18
BRANCH  17  20
HETATM   20  C13 LIG X 999      44.015 132.755  24.622  1.00  0.00     0.037 C 
HETATM   21  C14 LIG X 999      45.515 133.058  24.624  1.00  0.00     0.008 C 
ENDBRANCH  17  20
ENDBRANCH  15  17
ENDBRANCH  14  15
ENDBRANCH  10  14
ENDBRANCH   1   4
TORSDOF 6
ENDMDL
