REMARK VINA RESULT:      -5.8      2.325      4.145
REMARK  5 active torsions:
REMARK  status: ('A' for Active; 'I' for Inactive)
REMARK    1  A    between atoms: C6_6  and  C7_7 
REMARK    2  A    between atoms: C7_7  and  N1_8 
REMARK    3  A    between atoms: N4_11  and  C8_12 
REMARK    4  A    between atoms: C8_12  and  C9_13 
REMARK    5  A    between atoms: C9_13  and  N5_14 
ROOT
HETATM    1  N1  LIG X 999      43.440 132.181  22.268  1.00  0.00    -0.052 NA
HETATM    2  N2  LIG X 999      43.027 131.959  23.406  1.00  0.00    -0.160 NA
HETATM    3  N3  LIG X 999      42.614 131.737  24.544  1.00  0.00     0.068 N 
ENDROOT
BRANCH   1   4
HETATM    4  C7  LIG X 999      44.049 131.155  21.477  1.00  0.00     0.191 C 
HETATM    5  N4  LIG X 999      44.636 130.149  22.066  1.00  0.00    -0.267 NA
BRANCH   4   6
HETATM    6  C6  LIG X 999      44.019 131.305  20.009  1.00  0.00     0.015 A 
HETATM    7  C5  LIG X 999      45.118 130.917  19.227  1.00  0.00     0.027 A 
HETATM    8  C4  LIG X 999      45.075 131.048  17.831  1.00  0.00    -0.025 A 
HETATM    9  C3  LIG X 999      46.176 130.677  17.043  1.00  0.00     0.012 A 
HETATM   10  C12 LIG X 999      43.909 131.557  17.210  1.00  0.00    -0.026 A 
HETATM   11  C2  LIG X 999      46.122 130.814  15.652  1.00  0.00     0.001 A 
HETATM   12  C1  LIG X 999      44.971 131.319  15.039  1.00  0.00     0.001 A 
HETATM   13  C13 LIG X 999      43.867 131.690  15.812  1.00  0.00     0.012 A 
HETATM   14  C11 LIG X 999      42.805 131.919  17.995  1.00  0.00     0.013 A 
HETATM   15  C10 LIG X 999      42.858 131.784  19.385  1.00  0.00     0.016 A 
ENDBRANCH   4   6
BRANCH   5  16
HETATM   16  C8  LIG X 999      45.375 129.057  21.426  1.00  0.00     0.178 C 
BRANCH  16  17
HETATM   17  C9  LIG X 999      45.267 127.750  22.227  1.00  0.00     0.251 C 
BRANCH  17  18
HETATM   18  N5  LIG X 999      44.112 127.762  23.125  1.00  0.00    -0.078 N 
HETATM   19  H9  LIG X 999      43.937 128.743  23.442  1.00  0.00     0.274 HD
HETATM   20  H10 LIG X 999      43.261 127.415  22.626  1.00  0.00     0.274 HD
HETATM   21  H11 LIG X 999      44.300 127.165  23.963  1.00  0.00     0.274 HD
ENDBRANCH  17  18
ENDBRANCH  16  17
ENDBRANCH   5  16
ENDBRANCH   1   4
TORSDOF 5
