REMARK VINA RESULT:      -8.4      0.829      2.686
REMARK  1 active torsions:
REMARK  status: ('A' for Active; 'I' for Inactive)
REMARK    1  A    between atoms: C2_5  and  C3_6 
ROOT
HETATM    1  C3  LIG X 999      44.562 131.335  17.374  1.00  0.00     0.028 A 
HETATM    2  C4  LIG X 999      43.346 131.741  16.803  1.00  0.00     0.017 A 
HETATM    3  C5  LIG X 999      42.256 132.076  17.604  1.00  0.00     0.002 A 
HETATM    4  C6  LIG X 999      42.362 132.018  18.993  1.00  0.00     0.012 A 
HETATM    5  C7  LIG X 999      43.573 131.650  19.595  1.00  0.00    -0.025 A 
HETATM    6  C8  LIG X 999      43.679 131.626  20.995  1.00  0.00     0.012 A 
HETATM    7  C9  LIG X 999      44.892 131.304  21.603  1.00  0.00     0.001 A 
HETATM    8  C10 LIG X 999      46.012 131.017  20.821  1.00  0.00     0.001 A 
HETATM    9  C11 LIG X 999      45.923 131.031  19.428  1.00  0.00     0.013 A 
HETATM   10  C12 LIG X 999      44.697 131.320  18.789  1.00  0.00    -0.011 A 
ENDROOT
BRANCH   1  11
HETATM   11  C2  LIG X 999      45.642 130.919  16.454  1.00  0.00     0.177 A 
HETATM   12  O1  LIG X 999      45.899 131.506  15.303  1.00  0.00    -0.258 OA
HETATM   13  C1  LIG X 999      46.887 130.810  14.787  1.00  0.00     0.260 A 
HETATM   14  N1  LIG X 999      47.442 131.066  13.648  1.00  0.00    -0.261 NA
HETATM   15  N3  LIG X 999      47.249 129.794  15.586  1.00  0.00    -0.262 N 
HETATM   16  H1  LIG X 999      47.119 131.869  13.063  1.00  0.00     0.190 HD
HETATM   17  N2  LIG X 999      46.457 129.859  16.642  1.00  0.00    -0.276 N 
HETATM   18  H10 LIG X 999      47.989 129.075  15.423  1.00  0.00     0.190 HD
HETATM   19  H9  LIG X 999      46.457 129.179  17.434  1.00  0.00     0.189 HD
ENDBRANCH   1  11
TORSDOF 1
