REMARK VINA RESULT:      -7.2      0.000      0.000
REMARK  3 active torsions:
REMARK  status: ('A' for Active; 'I' for Inactive)
REMARK    1  A    between atoms: C7_9  and  C8_10 
REMARK    2  A    between atoms: C9_13  and  N4_14 
REMARK    3  A    between atoms: N7_23  and  C14_24 
ROOT
HETATM    1  N4  LIG X 999      46.873 131.373  13.838  1.00  0.00    -0.023 NA
HETATM    2  N5  LIG X 999      47.651 130.448  13.609  1.00  0.00    -0.158 NA
HETATM    3  N6  LIG X 999      48.430 129.523  13.380  1.00  0.00     0.068 N 
ENDROOT
BRANCH   1   4
HETATM    4  C9  LIG X 999      45.736 131.177  14.678  1.00  0.00     0.326 A 
HETATM    5  N3  LIG X 999      44.728 130.339  14.382  1.00  0.00    -0.099 NA
HETATM    6  N2  LIG X 999      43.874 130.433  15.390  1.00  0.00    -0.119 NA
HETATM    7  C8  LIG X 999      44.394 131.330  16.254  1.00  0.00     0.205 A 
HETATM    8  O1  LIG X 999      45.546 131.785  15.823  1.00  0.00    -0.252 OA
BRANCH   7   9
HETATM    9  C7  LIG X 999      43.767 131.698  17.538  1.00  0.00     0.032 A 
HETATM   10  C6  LIG X 999      44.306 131.317  18.806  1.00  0.00     0.020 A 
HETATM   11  C1  LIG X 999      45.635 130.692  19.114  1.00  0.00     0.060 A 
HETATM   12  C5  LIG X 999      43.541 131.625  19.917  1.00  0.00     0.019 A 
HETATM   13  N1  LIG X 999      46.525 130.512  18.192  1.00  0.00    -0.299 NA
HETATM   14  C2  LIG X 999      45.969 130.370  20.545  1.00  0.00     0.034 A 
HETATM   15  H1  LIG X 999      47.466 130.110  18.400  1.00  0.00     0.187 HD
HETATM   16  C3  LIG X 999      45.129 130.695  21.549  1.00  0.00     0.033 A 
HETATM   17  C4  LIG X 999      43.862 131.364  21.212  1.00  0.00     0.048 A 
HETATM   18  N7  LIG X 999      42.894 131.848  22.028  1.00  0.00    -0.324 N 
HETATM   19  C13 LIG X 999      41.977 132.433  21.208  1.00  0.00     0.193 A 
HETATM   20  C12 LIG X 999      42.363 132.296  19.886  1.00  0.00     0.032 A 
HETATM   21  O2  LIG X 999      40.833 133.088  21.651  1.00  0.00    -0.171 OA
HETATM   22  C11 LIG X 999      41.822 132.727  18.680  1.00  0.00     0.018 A 
HETATM   23  C10 LIG X 999      42.533 132.419  17.499  1.00  0.00     0.018 A 
BRANCH  18  24
HETATM   24  C14 LIG X 999      42.886 131.850  23.490  1.00  0.00     0.127 C 
HETATM   25  C15 LIG X 999      42.397 130.505  24.017  1.00  0.00     0.027 C 
ENDBRANCH  18  24
ENDBRANCH   7   9
ENDBRANCH   1   4
TORSDOF 3
