REMARK VINA RESULT:      -8.4      0.000      0.000
REMARK  4 active torsions:
REMARK  status: ('A' for Active; 'I' for Inactive)
REMARK    1  A    between atoms: C3_4  and  O1_5 
REMARK    2  A    between atoms: C3_4  and  O2_6 
REMARK    3  A    between atoms: O2_6  and  C4_7 
REMARK    4  A    between atoms: C13_16  and  N2_17 
ROOT
HETATM    1  C4  LIG X 999      44.482 131.388  17.997  1.00  0.00     0.106 A 
HETATM    2  C5  LIG X 999      45.623 130.827  18.590  1.00  0.00     0.040 A 
HETATM    3  C6  LIG X 999      45.732 130.734  19.974  1.00  0.00     0.015 A 
HETATM    4  C7  LIG X 999      44.689 131.172  20.796  1.00  0.00    -0.024 A 
HETATM    5  C8  LIG X 999      44.808 131.058  22.191  1.00  0.00     0.012 A 
HETATM    6  C9  LIG X 999      43.764 131.461  23.021  1.00  0.00     0.001 A 
HETATM    7  C10 LIG X 999      42.590 131.972  22.469  1.00  0.00     0.001 A 
HETATM    8  C11 LIG X 999      42.455 132.094  21.084  1.00  0.00     0.014 A 
HETATM    9  C12 LIG X 999      43.507 131.713  20.220  1.00  0.00     0.003 A 
HETATM   10  C13 LIG X 999      43.414 131.830  18.805  1.00  0.00     0.071 A 
ENDROOT
BRANCH   1  11
HETATM   11  O2  LIG X 999      44.369 131.487  16.602  1.00  0.00    -0.272 OA
BRANCH  11  12
HETATM   12  C3  LIG X 999      45.446 131.573  15.708  1.00  0.00     0.265 C 
HETATM   13  N1  LIG X 999      45.851 130.493  15.078  1.00  0.00    -0.350 N 
HETATM   14  C1  LIG X 999      46.964 130.537  14.119  1.00  0.00     0.153 C 
HETATM   15  C2  LIG X 999      45.181 129.211  15.340  1.00  0.00     0.153 C 
BRANCH  12  16
HETATM   16  O1  LIG X 999      46.039 132.822  15.480  1.00  0.00    -0.327 OA
HETATM   17  H7  LIG X 999      46.586 133.326  16.165  1.00  0.00     0.221 HD
ENDBRANCH  12  16
ENDBRANCH  11  12
ENDBRANCH   1  11
BRANCH  10  18
HETATM   18  N2  LIG X 999      42.265 132.416  18.168  1.00  0.00    -0.396 N 
HETATM   19  H14 LIG X 999      42.126 132.408  17.135  1.00  0.00     0.156 HD
HETATM   20  H15 LIG X 999      41.461 132.772  18.731  1.00  0.00     0.156 HD
ENDBRANCH  10  18
TORSDOF 4
