REMARK VINA RESULT:      -6.7      1.904      2.224
REMARK  3 active torsions:
REMARK  status: ('A' for Active; 'I' for Inactive)
REMARK    1  A    between atoms: C1_2  and  C2_4 
REMARK       I    between atoms: N1_6  and  C4_7 
REMARK    2  A    between atoms: C4_7  and  C5_9 
REMARK    3  A    between atoms: C6_10  and  C7_11 
ROOT
HETATM    1  C5  LIG X 999      44.050 131.406  20.841  1.00  0.00     0.000 C 
HETATM    2  C6  LIG X 999      44.260 131.353  19.656  1.00  0.00    -0.057 C 
ENDROOT
BRANCH   1   3
HETATM    3  C4  LIG X 999      43.807 131.463  22.258  1.00  0.00     0.300 C 
HETATM    4  N1  LIG X 999      43.043 130.440  22.914  1.00  0.00    -0.317 N 
HETATM    5  C3  LIG X 999      42.457 129.303  22.265  1.00  0.00     0.172 C 
HETATM    6  C17 LIG X 999      42.768 130.406  24.332  1.00  0.00     0.298 C 
HETATM    7  C2  LIG X 999      41.688 128.629  23.394  1.00  0.00     0.242 C 
HETATM    8  O4  LIG X 999      42.076 129.211  24.624  1.00  0.00    -0.354 OA
HETATM    9  O3  LIG X 999      44.277 132.425  22.923  1.00  0.00    -0.258 OA
BRANCH   7  10
HETATM   10  C1  LIG X 999      41.943 127.152  23.427  1.00  0.00     0.204 C 
HETATM   11  O1  LIG X 999      40.987 126.342  23.301  1.00  0.00    -0.646 OA
HETATM   12  O2  LIG X 999      43.241 126.670  23.545  1.00  0.00    -0.646 OA
ENDBRANCH   7  10
ENDBRANCH   1   3
BRANCH   2  13
HETATM   13  C7  LIG X 999      44.515 131.285  18.241  1.00  0.00     0.019 A 
HETATM   14  C8  LIG X 999      43.601 131.842  17.338  1.00  0.00     0.021 A 
HETATM   15  C9  LIG X 999      43.843 131.780  15.963  1.00  0.00     0.013 A 
HETATM   16  C10 LIG X 999      45.004 131.158  15.478  1.00  0.00    -0.026 A 
HETATM   17  C11 LIG X 999      45.256 131.091  14.099  1.00  0.00     0.012 A 
HETATM   18  C15 LIG X 999      45.929 130.593  16.389  1.00  0.00    -0.025 A 
HETATM   19  C12 LIG X 999      46.417 130.469  13.629  1.00  0.00     0.001 A 
HETATM   20  C13 LIG X 999      47.330 129.911  14.527  1.00  0.00     0.001 A 
HETATM   21  C14 LIG X 999      47.090 129.971  15.903  1.00  0.00     0.012 A 
HETATM   22  C16 LIG X 999      45.677 130.660  17.769  1.00  0.00     0.032 A 
ENDBRANCH   2  13
TORSDOF 3
