REMARK VINA RESULT:      -6.3      2.358      5.456
REMARK  1 active torsions:
REMARK  status: ('A' for Active; 'I' for Inactive)
REMARK    1  A    between atoms: N1_2  and  C1_3 
ROOT
HETATM    1  C1  LIG X 999      44.947 131.531  16.531  1.00  0.00     0.120 C 
HETATM    2  C2  LIG X 999      43.631 131.901  16.810  1.00  0.00     0.057 C 
HETATM    3  C3  LIG X 999      43.120 131.784  18.110  1.00  0.00    -0.045 C 
HETATM    4  C4  LIG X 999      41.621 131.908  18.248  1.00  0.00     0.049 C 
HETATM    5  C5  LIG X 999      44.001 131.420  19.178  1.00  0.00     0.008 C 
HETATM    6  C6  LIG X 999      43.674 131.473  20.574  1.00  0.00    -0.013 C 
HETATM    7  C7  LIG X 999      42.612 132.248  21.099  1.00  0.00     0.013 C 
HETATM    8  C8  LIG X 999      42.300 132.219  22.459  1.00  0.00     0.001 C 
HETATM    9  C9  LIG X 999      43.064 131.460  23.340  1.00  0.00     0.001 C 
HETATM   10  C10 LIG X 999      44.180 130.771  22.874  1.00  0.00     0.012 C 
HETATM   11  C11 LIG X 999      44.515 130.803  21.510  1.00  0.00    -0.025 C 
HETATM   12  C12 LIG X 999      45.711 130.220  21.087  1.00  0.00     0.014 C 
HETATM   13  C13 LIG X 999      46.119 130.335  19.766  1.00  0.00     0.031 C 
HETATM   14  C14 LIG X 999      45.290 130.934  18.810  1.00  0.00     0.045 C 
HETATM   15  N2  LIG X 999      45.726 131.024  17.521  1.00  0.00    -0.341 N 
HETATM   16  H12 LIG X 999      46.691 130.697  17.278  1.00  0.00     0.167 HD
ENDROOT
BRANCH   1  17
HETATM   17  N1  LIG X 999      45.419 131.626  15.327  1.00  0.00    -0.284 NA
HETATM   18  H1  LIG X 999      45.302 130.870  14.615  1.00  0.00     0.188 HD
ENDBRANCH   1  17
TORSDOF 1
