REMARK VINA RESULT:      -7.3      2.214      7.465
REMARK  6 active torsions:
REMARK  status: ('A' for Active; 'I' for Inactive)
REMARK    1  A    between atoms: C2_2  and  C3_3 
REMARK    2  A    between atoms: C3_3  and  O1_4 
REMARK    3  A    between atoms: O1_4  and  C4_5 
REMARK    4  A    between atoms: C4_5  and  C6_7 
REMARK    5  A    between atoms: C6_7  and  C7_8 
REMARK       I    between atoms: N1_10  and  C9_11 
REMARK    6  A    between atoms: C9_11  and  C10_13 
ROOT
HETATM    1  C7  LIG X 999      44.347 131.236  21.071  1.00  0.00     0.076 A 
HETATM    2  C8  LIG X 999      44.583 130.023  21.684  1.00  0.00     0.150 A 
HETATM    3  N1  LIG X 999      43.622 129.880  22.616  1.00  0.00    -0.213 N 
HETATM    4  C9  LIG X 999      43.450 128.790  23.537  1.00  0.00     0.277 C 
HETATM    5  O2  LIG X 999      42.846 128.994  24.625  1.00  0.00    -0.265 OA
HETATM    6  N2  LIG X 999      42.858 130.960  22.576  1.00  0.00    -0.210 N 
HETATM    7  N3  LIG X 999      43.262 131.803  21.638  1.00  0.00    -0.162 NA
HETATM    8  H20 LIG X 999      42.031 131.129  23.193  1.00  0.00     0.211 HD
ENDROOT
BRANCH   4   9
HETATM    9  C10 LIG X 999      43.963 127.432  23.239  1.00  0.00     0.035 A 
HETATM   10  C11 LIG X 999      43.106 126.323  23.331  1.00  0.00     0.018 A 
HETATM   11  C12 LIG X 999      43.574 125.038  23.045  1.00  0.00     0.013 A 
HETATM   12  C13 LIG X 999      44.904 124.842  22.652  1.00  0.00    -0.026 A 
HETATM   13  C14 LIG X 999      45.385 123.556  22.364  1.00  0.00     0.012 A 
HETATM   14  C18 LIG X 999      45.772 125.956  22.537  1.00  0.00    -0.025 A 
HETATM   15  C15 LIG X 999      46.714 123.375  21.966  1.00  0.00     0.001 A 
HETATM   16  C16 LIG X 999      47.569 124.474  21.852  1.00  0.00     0.001 A 
HETATM   17  C17 LIG X 999      47.103 125.761  22.136  1.00  0.00     0.012 A 
HETATM   18  C19 LIG X 999      45.292 127.242  22.824  1.00  0.00     0.029 A 
ENDBRANCH   4   9
BRANCH   1  19
HETATM   19  C6  LIG X 999      45.104 131.815  19.913  1.00  0.00     0.094 C 
BRANCH  19  20
HETATM   20  C4  LIG X 999      44.705 131.179  18.569  1.00  0.00     0.123 C 
HETATM   21  C5  LIG X 999      43.391 131.765  18.036  1.00  0.00     0.040 C 
BRANCH  20  22
HETATM   22  O1  LIG X 999      45.743 131.395  17.626  1.00  0.00    -0.382 OA
BRANCH  22  23
HETATM   23  C3  LIG X 999      45.216 131.770  16.371  1.00  0.00     0.194 C 
BRANCH  23  24
HETATM   24  C2  LIG X 999      46.253 131.546  15.312  1.00  0.00    -0.011 C 
HETATM   25  C1  LIG X 999      45.924 131.083  14.103  1.00  0.00     0.009 C 
ENDBRANCH  23  24
ENDBRANCH  22  23
ENDBRANCH  20  22
ENDBRANCH  19  20
ENDBRANCH   1  19
TORSDOF 6
