REMARK VINA RESULT:      -7.1      2.512      3.431
REMARK  1 active torsions:
REMARK  status: ('A' for Active; 'I' for Inactive)
REMARK    1  A    between atoms: C11_13  and  N2_14 
ROOT
HETATM    1  N2  LIG X 999      46.098 130.689  16.736  1.00  0.00    -0.053 NA
HETATM    2  N3  LIG X 999      45.714 129.791  15.985  1.00  0.00    -0.160 NA
HETATM    3  N4  LIG X 999      45.331 128.895  15.235  1.00  0.00     0.068 N 
ENDROOT
BRANCH   1   4
HETATM    4  C11 LIG X 999      45.506 130.879  18.022  1.00  0.00     0.175 A 
HETATM    5  C10 LIG X 999      44.243 131.406  18.247  1.00  0.00     0.026 A 
HETATM    6  C5  LIG X 999      44.096 131.404  19.593  1.00  0.00     0.017 A 
HETATM    7  C9  LIG X 999      43.219 131.880  17.424  1.00  0.00     0.016 A 
HETATM    8  C4  LIG X 999      45.215 130.902  20.166  1.00  0.00     0.046 A 
HETATM    9  C6  LIG X 999      42.978 131.848  20.261  1.00  0.00     0.005 A 
HETATM   10  C3  LIG X 999      45.320 130.789  21.632  1.00  0.00     0.033 A 
HETATM   11  N5  LIG X 999      46.108 130.568  19.208  1.00  0.00    -0.337 N 
HETATM   12  C2  LIG X 999      44.273 131.199  22.384  1.00  0.00     0.034 A 
HETATM   13  C1  LIG X 999      43.029 131.757  21.743  1.00  0.00     0.059 A 
HETATM   14  N1  LIG X 999      42.027 132.150  22.464  1.00  0.00    -0.300 NA
HETATM   15  H1  LIG X 999      42.044 132.093  23.507  1.00  0.00     0.187 HD
HETATM   16  H7  LIG X 999      47.058 130.158  19.351  1.00  0.00     0.167 HD
HETATM   17  C7  LIG X 999      41.915 132.338  19.473  1.00  0.00     0.015 A 
HETATM   18  C8  LIG X 999      42.039 132.351  18.054  1.00  0.00     0.002 A 
ENDBRANCH   1   4
TORSDOF 1
