MODEL 1
REMARK VINA RESULT:      -5.8      0.000      0.000
REMARK  3 active torsions:
REMARK  status: ('A' for Active; 'I' for Inactive)
REMARK    1  A    between atoms: C3_3  and  O1_4 
REMARK    2  A    between atoms: O1_4  and  C4_5 
REMARK    3  A    between atoms: C15_16  and  C16_17 
ROOT
HETATM    1  C1  LIG X 999      45.766 130.986  14.215  1.00  0.00     0.014 C 
HETATM    2  C2  LIG X 999      44.763 131.234  14.836  1.00  0.00    -0.091 C 
HETATM    3  C3  LIG X 999      43.546 131.535  15.591  1.00  0.00     0.268 C 
ENDROOT
BRANCH   3   4
HETATM    4  O1  LIG X 999      43.640 130.945  16.883  1.00  0.00    -0.339 OA
BRANCH   4   5
HETATM    5  C4  LIG X 999      43.609 131.652  18.098  1.00  0.00     0.083 C 
HETATM    6  C5  LIG X 999      42.416 132.304  18.511  1.00  0.00     0.038 C 
HETATM    7  C6  LIG X 999      42.062 132.652  19.828  1.00  0.00     0.003 C 
HETATM    8  C7  LIG X 999      42.630 132.119  20.989  1.00  0.00     0.002 C 
HETATM    9  C8  LIG X 999      43.176 130.834  21.057  1.00  0.00     0.020 C 
HETATM   10  C9  LIG X 999      44.375 130.565  21.734  1.00  0.00     0.016 C 
HETATM   11  C10 LIG X 999      44.584 129.236  22.249  1.00  0.00    -0.078 C 
HETATM   12  C12 LIG X 999      45.425 131.499  21.854  1.00  0.00     0.020 C 
HETATM   13  C11 LIG X 999      44.759 128.125  22.679  1.00  0.00     0.018 C 
HETATM   14  C13 LIG X 999      45.639 132.605  21.006  1.00  0.00     0.002 C 
HETATM   15  C14 LIG X 999      45.115 132.745  19.709  1.00  0.00     0.017 C 
HETATM   16  C15 LIG X 999      44.798 131.664  18.861  1.00  0.00     0.035 C 
BRANCH  16  17
HETATM   17  C16 LIG X 999      45.749 130.537  18.712  1.00  0.00     0.272 C 
HETATM   18  O2  LIG X 999      46.231 130.234  17.587  1.00  0.00    -0.301 OA
ENDBRANCH  16  17
ENDBRANCH   4   5
ENDBRANCH   3   4
TORSDOF 3
ENDMDL
MODEL 2
REMARK VINA RESULT:      -4.1      3.343      6.195
REMARK  3 active torsions:
REMARK  status: ('A' for Active; 'I' for Inactive)
REMARK    1  A    between atoms: C3_3  and  O1_4 
REMARK    2  A    between atoms: O1_4  and  C4_5 
REMARK    3  A    between atoms: C15_16  and  C16_17 
ROOT
HETATM    1  C1  LIG X 999      45.533 131.897  19.843  1.00  0.00     0.014 C 
HETATM    2  C2  LIG X 999      44.929 131.449  20.785  1.00  0.00    -0.091 C 
HETATM    3  C3  LIG X 999      44.197 130.904  21.928  1.00  0.00     0.268 C 
ENDROOT
BRANCH   3   4
HETATM    4  O1  LIG X 999      44.248 129.481  21.882  1.00  0.00    -0.339 OA
BRANCH   4   5
HETATM    5  C4  LIG X 999      43.924 128.626  22.949  1.00  0.00     0.083 C 
HETATM    6  C5  LIG X 999      42.832 128.938  23.803  1.00  0.00     0.038 C 
HETATM    7  C6  LIG X 999      42.101 128.033  24.596  1.00  0.00     0.003 C 
HETATM    8  C7  LIG X 999      42.072 126.645  24.427  1.00  0.00     0.002 C 
HETATM    9  C8  LIG X 999      42.266 126.017  23.193  1.00  0.00     0.020 C 
HETATM   10  C9  LIG X 999      43.044 124.858  23.058  1.00  0.00     0.016 C 
HETATM   11  C10 LIG X 999      42.759 123.970  21.960  1.00  0.00    -0.078 C 
HETATM   12  C12 LIG X 999      44.150 124.563  23.883  1.00  0.00     0.020 C 
HETATM   13  C11 LIG X 999      42.521 123.228  21.041  1.00  0.00     0.018 C 
HETATM   14  C13 LIG X 999      44.892 125.505  24.625  1.00  0.00     0.002 C 
HETATM   15  C14 LIG X 999      44.926 126.888  24.375  1.00  0.00     0.017 C 
HETATM   16  C15 LIG X 999      44.721 127.470  23.107  1.00  0.00     0.035 C 
BRANCH  16  17
HETATM   17  C16 LIG X 999      45.395 126.905  21.916  1.00  0.00     0.272 C 
HETATM   18  O2  LIG X 999      46.498 126.301  22.013  1.00  0.00    -0.301 OA
ENDBRANCH  16  17
ENDBRANCH   4   5
ENDBRANCH   3   4
TORSDOF 3
ENDMDL
MODEL 3
REMARK VINA RESULT:      -4.0      4.992      8.426
REMARK  3 active torsions:
REMARK  status: ('A' for Active; 'I' for Inactive)
REMARK    1  A    between atoms: C3_3  and  O1_4 
REMARK    2  A    between atoms: O1_4  and  C4_5 
REMARK    3  A    between atoms: C15_16  and  C16_17 
ROOT
HETATM    1  C1  LIG X 999      44.559 130.444  21.840  1.00  0.00     0.014 C 
HETATM    2  C2  LIG X 999      44.550 129.449  22.521  1.00  0.00    -0.091 C 
HETATM    3  C3  LIG X 999      44.539 128.240  23.346  1.00  0.00     0.268 C 
ENDROOT
BRANCH   3   4
HETATM    4  O1  LIG X 999      45.032 127.146  22.578  1.00  0.00    -0.339 OA
BRANCH   4   5
HETATM    5  C4  LIG X 999      44.886 125.790  22.919  1.00  0.00     0.083 C 
HETATM    6  C5  LIG X 999      43.712 125.084  22.540  1.00  0.00     0.038 C 
HETATM    7  C6  LIG X 999      43.583 123.691  22.389  1.00  0.00     0.003 C 
HETATM    8  C7  LIG X 999      44.640 122.788  22.235  1.00  0.00     0.002 C 
HETATM    9  C8  LIG X 999      45.866 123.133  21.656  1.00  0.00     0.020 C 
HETATM   10  C9  LIG X 999      47.090 122.695  22.181  1.00  0.00     0.016 C 
HETATM   11  C10 LIG X 999      48.214 122.586  21.287  1.00  0.00    -0.078 C 
HETATM   12  C12 LIG X 999      47.303 122.446  23.553  1.00  0.00     0.020 C 
HETATM   13  C11 LIG X 999      49.155 122.495  20.540  1.00  0.00     0.018 C 
HETATM   14  C13 LIG X 999      46.540 122.981  24.611  1.00  0.00     0.002 C 
HETATM   15  C14 LIG X 999      45.725 124.124  24.525  1.00  0.00     0.017 C 
HETATM   16  C15 LIG X 999      45.949 125.192  23.631  1.00  0.00     0.035 C 
BRANCH  16  17
HETATM   17  C16 LIG X 999      47.313 125.747  23.468  1.00  0.00     0.272 C 
HETATM   18  O2  LIG X 999      47.973 126.161  24.459  1.00  0.00    -0.301 OA
ENDBRANCH  16  17
ENDBRANCH   4   5
ENDBRANCH   3   4
TORSDOF 3
ENDMDL
MODEL 4
REMARK VINA RESULT:      -3.9      4.141      6.724
REMARK  3 active torsions:
REMARK  status: ('A' for Active; 'I' for Inactive)
REMARK    1  A    between atoms: C3_3  and  O1_4 
REMARK    2  A    between atoms: O1_4  and  C4_5 
REMARK    3  A    between atoms: C15_16  and  C16_17 
ROOT
HETATM    1  C1  LIG X 999      41.991 123.904  21.263  1.00  0.00     0.014 C 
HETATM    2  C2  LIG X 999      42.049 124.495  22.312  1.00  0.00    -0.091 C 
HETATM    3  C3  LIG X 999      42.120 125.214  23.586  1.00  0.00     0.268 C 
ENDROOT
BRANCH   3   4
HETATM    4  O1  LIG X 999      42.081 126.615  23.334  1.00  0.00    -0.339 OA
BRANCH   4   5
HETATM    5  C4  LIG X 999      43.194 127.473  23.371  1.00  0.00     0.083 C 
HETATM    6  C5  LIG X 999      44.426 127.064  22.792  1.00  0.00     0.038 C 
HETATM    7  C6  LIG X 999      45.461 127.904  22.341  1.00  0.00     0.003 C 
HETATM    8  C7  LIG X 999      45.335 129.266  22.052  1.00  0.00     0.002 C 
HETATM    9  C8  LIG X 999      44.139 129.852  21.621  1.00  0.00     0.020 C 
HETATM   10  C9  LIG X 999      43.700 131.095  22.100  1.00  0.00     0.016 C 
HETATM   11  C10 LIG X 999      42.834 131.881  21.261  1.00  0.00    -0.078 C 
HETATM   12  C12 LIG X 999      43.985 131.572  23.397  1.00  0.00     0.020 C 
HETATM   13  C11 LIG X 999      42.108 132.539  20.560  1.00  0.00     0.018 C 
HETATM   14  C13 LIG X 999      44.336 130.774  24.506  1.00  0.00     0.002 C 
HETATM   15  C14 LIG X 999      44.082 129.396  24.625  1.00  0.00     0.017 C 
HETATM   16  C15 LIG X 999      43.013 128.729  23.991  1.00  0.00     0.035 C 
BRANCH  16  17
HETATM   17  C16 LIG X 999      41.653 129.318  24.018  1.00  0.00     0.272 C 
HETATM   18  O2  LIG X 999      40.704 128.743  24.617  1.00  0.00    -0.301 OA
ENDBRANCH  16  17
ENDBRANCH   4   5
ENDBRANCH   3   4
TORSDOF 3
ENDMDL
MODEL 5
REMARK VINA RESULT:      -3.7      6.820      9.919
REMARK  3 active torsions:
REMARK  status: ('A' for Active; 'I' for Inactive)
REMARK    1  A    between atoms: C3_3  and  O1_4 
REMARK    2  A    between atoms: O1_4  and  C4_5 
REMARK    3  A    between atoms: C15_16  and  C16_17 
ROOT
HETATM    1  C1  LIG X 999      44.987 127.946  22.740  1.00  0.00     0.014 C 
HETATM    2  C2  LIG X 999      45.366 126.814  22.574  1.00  0.00    -0.091 C 
HETATM    3  C3  LIG X 999      45.827 125.440  22.372  1.00  0.00     0.268 C 
ENDROOT
BRANCH   3   4
HETATM    4  O1  LIG X 999      47.117 125.464  21.768  1.00  0.00    -0.339 OA
BRANCH   4   5
HETATM    5  C4  LIG X 999      47.998 124.370  21.701  1.00  0.00     0.083 C 
HETATM    6  C5  LIG X 999      47.967 123.501  20.577  1.00  0.00     0.038 C 
HETATM    7  C6  LIG X 999      49.013 122.673  20.127  1.00  0.00     0.003 C 
HETATM    8  C7  LIG X 999      50.361 122.808  20.471  1.00  0.00     0.002 C 
HETATM    9  C8  LIG X 999      50.948 124.031  20.810  1.00  0.00     0.020 C 
HETATM   10  C9  LIG X 999      51.859 124.156  21.869  1.00  0.00     0.016 C 
HETATM   11  C10 LIG X 999      52.821 125.227  21.819  1.00  0.00    -0.078 C 
HETATM   12  C12 LIG X 999      51.822 123.348  23.025  1.00  0.00     0.020 C 
HETATM   13  C11 LIG X 999      53.625 126.123  21.777  1.00  0.00     0.018 C 
HETATM   14  C13 LIG X 999      50.696 122.643  23.497  1.00  0.00     0.002 C 
HETATM   15  C14 LIG X 999      49.361 122.925  23.153  1.00  0.00     0.017 C 
HETATM   16  C15 LIG X 999      48.892 124.202  22.781  1.00  0.00     0.035 C 
BRANCH  16  17
HETATM   17  C16 LIG X 999      49.288 125.394  23.567  1.00  0.00     0.272 C 
HETATM   18  O2  LIG X 999      48.599 125.792  24.545  1.00  0.00    -0.301 OA
ENDBRANCH  16  17
ENDBRANCH   4   5
ENDBRANCH   3   4
TORSDOF 3
ENDMDL
MODEL 6
REMARK VINA RESULT:      -3.7      6.255      8.851
REMARK  3 active torsions:
REMARK  status: ('A' for Active; 'I' for Inactive)
REMARK    1  A    between atoms: C3_3  and  O1_4 
REMARK    2  A    between atoms: O1_4  and  C4_5 
REMARK    3  A    between atoms: C15_16  and  C16_17 
ROOT
HETATM    1  C1  LIG X 999      42.526 127.941  23.859  1.00  0.00     0.014 C 
HETATM    2  C2  LIG X 999      42.386 126.766  23.628  1.00  0.00    -0.091 C 
HETATM    3  C3  LIG X 999      42.217 125.340  23.349  1.00  0.00     0.268 C 
ENDROOT
BRANCH   3   4
HETATM    4  O1  LIG X 999      43.405 124.838  22.745  1.00  0.00    -0.339 OA
BRANCH   4   5
HETATM    5  C4  LIG X 999      44.566 124.459  23.442  1.00  0.00     0.083 C 
HETATM    6  C5  LIG X 999      44.563 123.284  24.242  1.00  0.00     0.038 C 
HETATM    7  C6  LIG X 999      45.685 122.526  24.625  1.00  0.00     0.003 C 
HETATM    8  C7  LIG X 999      46.942 122.571  24.014  1.00  0.00     0.002 C 
HETATM    9  C8  LIG X 999      47.130 122.897  22.667  1.00  0.00     0.020 C 
HETATM   10  C9  LIG X 999      48.173 123.732  22.239  1.00  0.00     0.016 C 
HETATM   11  C10 LIG X 999      48.657 123.581  20.891  1.00  0.00    -0.078 C 
HETATM   12  C12 LIG X 999      48.708 124.773  23.026  1.00  0.00     0.020 C 
HETATM   13  C11 LIG X 999      49.061 123.455  19.763  1.00  0.00     0.018 C 
HETATM   14  C13 LIG X 999      48.052 125.408  24.101  1.00  0.00     0.002 C 
HETATM   15  C14 LIG X 999      46.663 125.405  24.317  1.00  0.00     0.017 C 
HETATM   16  C15 LIG X 999      45.701 125.287  23.293  1.00  0.00     0.035 C 
BRANCH  16  17
HETATM   17  C16 LIG X 999      45.838 126.085  22.052  1.00  0.00     0.272 C 
HETATM   18  O2  LIG X 999      45.414 127.271  21.987  1.00  0.00    -0.301 OA
ENDBRANCH  16  17
ENDBRANCH   4   5
ENDBRANCH   3   4
TORSDOF 3
ENDMDL
MODEL 7
REMARK VINA RESULT:      -3.4      2.808      4.996
REMARK  3 active torsions:
REMARK  status: ('A' for Active; 'I' for Inactive)
REMARK    1  A    between atoms: C3_3  and  O1_4 
REMARK    2  A    between atoms: O1_4  and  C4_5 
REMARK    3  A    between atoms: C15_16  and  C16_17 
ROOT
HETATM    1  C1  LIG X 999      41.865 131.914  18.903  1.00  0.00     0.014 C 
HETATM    2  C2  LIG X 999      42.824 131.914  19.633  1.00  0.00    -0.091 C 
HETATM    3  C3  LIG X 999      43.990 131.913  20.518  1.00  0.00     0.268 C 
ENDROOT
BRANCH   3   4
HETATM    4  O1  LIG X 999      44.250 130.580  20.946  1.00  0.00    -0.339 OA
BRANCH   4   5
HETATM    5  C4  LIG X 999      43.959 130.071  22.224  1.00  0.00     0.083 C 
HETATM    6  C5  LIG X 999      42.965 130.692  23.027  1.00  0.00     0.038 C 
HETATM    7  C6  LIG X 999      42.244 130.098  24.079  1.00  0.00     0.003 C 
HETATM    8  C7  LIG X 999      42.108 128.724  24.296  1.00  0.00     0.002 C 
HETATM    9  C8  LIG X 999      42.155 127.776  23.269  1.00  0.00     0.020 C 
HETATM   10  C9  LIG X 999      42.839 126.558  23.405  1.00  0.00     0.016 C 
HETATM   11  C10 LIG X 999      42.404 125.440  22.609  1.00  0.00    -0.078 C 
HETATM   12  C12 LIG X 999      43.987 126.398  24.209  1.00  0.00     0.020 C 
HETATM   13  C11 LIG X 999      42.041 124.504  21.943  1.00  0.00     0.018 C 
HETATM   14  C13 LIG X 999      44.851 127.435  24.620  1.00  0.00     0.002 C 
HETATM   15  C14 LIG X 999      44.957 128.694  24.003  1.00  0.00     0.017 C 
HETATM   16  C15 LIG X 999      44.687 128.933  22.640  1.00  0.00     0.035 C 
BRANCH  16  17
HETATM   17  C16 LIG X 999      45.220 128.015  21.607  1.00  0.00     0.272 C 
HETATM   18  O2  LIG X 999      45.877 126.986  21.923  1.00  0.00    -0.301 OA
ENDBRANCH  16  17
ENDBRANCH   4   5
ENDBRANCH   3   4
TORSDOF 3
ENDMDL
MODEL 8
REMARK VINA RESULT:      -3.3      2.543      4.111
REMARK  3 active torsions:
REMARK  status: ('A' for Active; 'I' for Inactive)
REMARK    1  A    between atoms: C3_3  and  O1_4 
REMARK    2  A    between atoms: O1_4  and  C4_5 
REMARK    3  A    between atoms: C15_16  and  C16_17 
ROOT
HETATM    1  C1  LIG X 999      44.766 131.498  17.120  1.00  0.00     0.014 C 
HETATM    2  C2  LIG X 999      44.638 131.747  18.293  1.00  0.00    -0.091 C 
HETATM    3  C3  LIG X 999      44.483 132.049  19.716  1.00  0.00     0.268 C 
ENDROOT
BRANCH   3   4
HETATM    4  O1  LIG X 999      43.904 130.925  20.372  1.00  0.00    -0.339 OA
BRANCH   4   5
HETATM    5  C4  LIG X 999      43.770 130.782  21.764  1.00  0.00     0.083 C 
HETATM    6  C5  LIG X 999      42.979 131.705  22.500  1.00  0.00     0.038 C 
HETATM    7  C6  LIG X 999      42.379 131.483  23.753  1.00  0.00     0.003 C 
HETATM    8  C7  LIG X 999      42.148 130.232  24.334  1.00  0.00     0.002 C 
HETATM    9  C8  LIG X 999      41.944 129.066  23.589  1.00  0.00     0.020 C 
HETATM   10  C9  LIG X 999      42.521 127.838  23.946  1.00  0.00     0.016 C 
HETATM   11  C10 LIG X 999      41.863 126.628  23.529  1.00  0.00    -0.078 C 
HETATM   12  C12 LIG X 999      43.761 127.728  24.610  1.00  0.00     0.020 C 
HETATM   13  C11 LIG X 999      41.312 125.615  23.179  1.00  0.00     0.018 C 
HETATM   14  C13 LIG X 999      44.773 128.710  24.625  1.00  0.00     0.002 C 
HETATM   15  C14 LIG X 999      44.900 129.757  23.695  1.00  0.00     0.017 C 
HETATM   16  C15 LIG X 999      44.443 129.694  22.363  1.00  0.00     0.035 C 
BRANCH  16  17
HETATM   17  C16 LIG X 999      44.717 128.491  21.542  1.00  0.00     0.272 C 
HETATM   18  O2  LIG X 999      45.877 128.003  21.465  1.00  0.00    -0.301 OA
ENDBRANCH  16  17
ENDBRANCH   4   5
ENDBRANCH   3   4
TORSDOF 3
ENDMDL
MODEL 9
REMARK VINA RESULT:      -3.0      8.885     10.666
REMARK  3 active torsions:
REMARK  status: ('A' for Active; 'I' for Inactive)
REMARK    1  A    between atoms: C3_3  and  O1_4 
REMARK    2  A    between atoms: O1_4  and  C4_5 
REMARK    3  A    between atoms: C15_16  and  C16_17 
ROOT
HETATM    1  C1  LIG X 999      44.654 122.761  21.542  1.00  0.00     0.014 C 
HETATM    2  C2  LIG X 999      45.768 123.217  21.596  1.00  0.00    -0.091 C 
HETATM    3  C3  LIG X 999      47.122 123.770  21.660  1.00  0.00     0.268 C 
ENDROOT
BRANCH   3   4
HETATM    4  O1  LIG X 999      48.066 122.718  21.487  1.00  0.00    -0.339 OA
BRANCH   4   5
HETATM    5  C4  LIG X 999      49.433 122.897  21.212  1.00  0.00     0.083 C 
HETATM    6  C5  LIG X 999      49.868 123.104  19.875  1.00  0.00     0.038 C 
HETATM    7  C6  LIG X 999      51.063 123.726  19.468  1.00  0.00     0.003 C 
HETATM    8  C7  LIG X 999      51.858 124.557  20.263  1.00  0.00     0.002 C 
HETATM    9  C8  LIG X 999      51.350 125.331  21.312  1.00  0.00     0.020 C 
HETATM   10  C9  LIG X 999      52.016 125.456  22.540  1.00  0.00     0.016 C 
HETATM   11  C10 LIG X 999      51.784 126.642  23.323  1.00  0.00    -0.078 C 
HETATM   12  C12 LIG X 999      52.826 124.441  23.091  1.00  0.00     0.020 C 
HETATM   13  C11 LIG X 999      51.589 127.633  23.980  1.00  0.00     0.018 C 
HETATM   14  C13 LIG X 999      52.755 123.070  22.768  1.00  0.00     0.002 C 
HETATM   15  C14 LIG X 999      51.650 122.434  22.174  1.00  0.00     0.017 C 
HETATM   16  C15 LIG X 999      50.316 122.868  22.314  1.00  0.00     0.035 C 
BRANCH  16  17
HETATM   17  C16 LIG X 999      49.797 123.249  23.649  1.00  0.00     0.272 C 
HETATM   18  O2  LIG X 999      49.433 122.376  24.483  1.00  0.00    -0.301 OA
ENDBRANCH  16  17
ENDBRANCH   4   5
ENDBRANCH   3   4
TORSDOF 3
ENDMDL
