REMARK VINA RESULT:      -5.3      3.828      7.025
REMARK  5 active torsions:
REMARK  status: ('A' for Active; 'I' for Inactive)
REMARK    1  A    between atoms: C3_3  and  C4_4 
REMARK    2  A    between atoms: C4_4  and  S1_5 
REMARK    3  A    between atoms: S1_5  and  C5_6 
REMARK    4  A    between atoms: C6_7  and  N1_8 
REMARK    5  A    between atoms: C10_12  and  N2_13 
ROOT
HETATM    1  C1  LIG X 999      46.117 131.000  20.337  1.00  0.00     0.112 C 
HETATM    2  C2  LIG X 999      45.000 130.751  21.248  1.00  0.00    -0.110 C 
HETATM    3  C3  LIG X 999      44.082 130.525  21.996  1.00  0.00    -0.097 C 
ENDROOT
BRANCH   3   4
HETATM    4  C4  LIG X 999      42.971 130.226  22.904  1.00  0.00     0.173 C 
BRANCH   4   5
HETATM    5  S1  LIG X 999      43.563 129.281  24.350  1.00  0.00    -0.115 SA
BRANCH   5   6
HETATM    6  C5  LIG X 999      42.713 127.743  23.898  1.00  0.00     0.038 A 
HETATM    7  C6  LIG X 999      41.314 127.646  24.066  1.00  0.00     0.043 A 
HETATM    8  C7  LIG X 999      40.663 126.449  23.758  1.00  0.00     0.031 A 
HETATM    9  C8  LIG X 999      41.370 125.342  23.300  1.00  0.00     0.017 A 
HETATM   10  C9  LIG X 999      42.764 125.398  23.125  1.00  0.00     0.002 A 
HETATM   11  C10 LIG X 999      43.508 124.268  22.669  1.00  0.00     0.045 A 
HETATM   12  C14 LIG X 999      43.440 126.633  23.391  1.00  0.00    -0.004 A 
HETATM   13  C11 LIG X 999      44.887 124.423  22.462  1.00  0.00     0.003 A 
HETATM   14  C12 LIG X 999      45.514 125.607  22.684  1.00  0.00    -0.021 A 
HETATM   15  C18 LIG X 999      45.868 123.410  21.999  1.00  0.00     0.278 C 
HETATM   16  C13 LIG X 999      44.828 126.725  23.138  1.00  0.00     0.023 A 
HETATM   17  C15 LIG X 999      46.958 125.507  22.381  1.00  0.00     0.276 C 
HETATM   18  N3  LIG X 999      47.213 124.057  22.124  1.00  0.00    -0.067 N 
HETATM   19  C16 LIG X 999      48.000 123.875  20.882  1.00  0.00     0.272 C 
HETATM   20  C17 LIG X 999      47.959 123.463  23.259  1.00  0.00     0.272 C 
BRANCH   7  21
HETATM   21  N1  LIG X 999      40.533 128.750  24.547  1.00  0.00    -0.398 N 
HETATM   22  H6  LIG X 999      40.351 128.863  25.569  1.00  0.00     0.156 HD
HETATM   23  H7  LIG X 999      40.115 129.462  23.910  1.00  0.00     0.156 HD
ENDBRANCH   7  21
BRANCH  11  24
HETATM   24  N2  LIG X 999      42.903 122.985  22.440  1.00  0.00    -0.398 N 
HETATM   25  H10 LIG X 999      42.146 122.835  21.740  1.00  0.00     0.156 HD
HETATM   26  H11 LIG X 999      43.127 122.172  23.055  1.00  0.00     0.156 HD
ENDBRANCH  11  24
ENDBRANCH   5   6
ENDBRANCH   4   5
ENDBRANCH   3   4
TORSDOF 5
