MODEL 1
REMARK VINA RESULT:      -8.8      0.000      0.000
REMARK  3 active torsions:
REMARK  status: ('A' for Active; 'I' for Inactive)
REMARK    1  A    between atoms: C3_3  and  O1_4 
REMARK    2  A    between atoms: O1_4  and  C4_5 
REMARK    3  A    between atoms: C5_7  and  C6_8 
ROOT
HETATM    1  C1  LIG X 999      43.280 130.608  22.450  1.00  0.00     0.014 C 
HETATM    2  C2  LIG X 999      43.759 131.282  21.574  1.00  0.00    -0.091 C 
HETATM    3  C3  LIG X 999      44.342 132.101  20.510  1.00  0.00     0.270 C 
ENDROOT
BRANCH   3   4
HETATM    4  O1  LIG X 999      44.161 131.442  19.263  1.00  0.00    -0.317 OA
BRANCH   4   5
HETATM    5  C4  LIG X 999      43.179 131.829  18.347  1.00  0.00     0.217 C 
HETATM    6  O2  LIG X 999      41.993 132.400  18.800  1.00  0.00    -0.164 OA
HETATM    7  C5  LIG X 999      43.371 131.687  17.031  1.00  0.00     0.078 C 
BRANCH   7   8
HETATM    8  C6  LIG X 999      44.584 131.095  16.424  1.00  0.00    -0.031 A 
HETATM    9  C7  LIG X 999      45.327 130.093  17.075  1.00  0.00     0.012 A 
HETATM   10  C8  LIG X 999      46.455 129.537  16.468  1.00  0.00     0.013 A 
HETATM   11  C9  LIG X 999      46.851 129.959  15.191  1.00  0.00    -0.026 A 
HETATM   12  C10 LIG X 999      47.982 129.407  14.572  1.00  0.00     0.012 A 
HETATM   13  C14 LIG X 999      46.094 130.948  14.516  1.00  0.00    -0.025 A 
HETATM   14  C11 LIG X 999      48.361 129.832  13.295  1.00  0.00     0.001 A 
HETATM   15  C12 LIG X 999      47.616 130.808  12.629  1.00  0.00     0.001 A 
HETATM   16  C13 LIG X 999      46.486 131.365  13.234  1.00  0.00     0.012 A 
HETATM   17  C15 LIG X 999      44.963 131.501  15.135  1.00  0.00     0.024 A 
ENDBRANCH   7   8
ENDBRANCH   4   5
ENDBRANCH   3   4
TORSDOF 3
ENDMDL
MODEL 2
REMARK VINA RESULT:      -8.8      1.912      6.780
REMARK  3 active torsions:
REMARK  status: ('A' for Active; 'I' for Inactive)
REMARK    1  A    between atoms: C3_3  and  O1_4 
REMARK    2  A    between atoms: O1_4  and  C4_5 
REMARK    3  A    between atoms: C5_7  and  C6_8 
ROOT
HETATM    1  C1  LIG X 999      47.640 131.008  12.986  1.00  0.00     0.014 C 
HETATM    2  C2  LIG X 999      47.095 130.358  13.841  1.00  0.00    -0.091 C 
HETATM    3  C3  LIG X 999      46.433 129.567  14.881  1.00  0.00     0.270 C 
ENDROOT
BRANCH   3   4
HETATM    4  O1  LIG X 999      45.830 130.447  15.822  1.00  0.00    -0.317 OA
BRANCH   4   5
HETATM    5  C4  LIG X 999      44.664 131.164  15.536  1.00  0.00     0.217 C 
HETATM    6  O2  LIG X 999      44.293 131.387  14.213  1.00  0.00    -0.164 OA
HETATM    7  C5  LIG X 999      43.877 131.616  16.518  1.00  0.00     0.078 C 
BRANCH   7   8
HETATM    8  C6  LIG X 999      44.161 131.446  17.961  1.00  0.00    -0.031 A 
HETATM    9  C7  LIG X 999      45.401 130.966  18.422  1.00  0.00     0.012 A 
HETATM   10  C8  LIG X 999      45.648 130.837  19.791  1.00  0.00     0.013 A 
HETATM   11  C9  LIG X 999      44.667 131.201  20.724  1.00  0.00    -0.026 A 
HETATM   12  C10 LIG X 999      44.906 131.074  22.100  1.00  0.00     0.012 A 
HETATM   13  C14 LIG X 999      43.425 131.709  20.270  1.00  0.00    -0.025 A 
HETATM   14  C11 LIG X 999      43.921 131.448  23.020  1.00  0.00     0.001 A 
HETATM   15  C12 LIG X 999      42.695 131.949  22.574  1.00  0.00     0.001 A 
HETATM   16  C13 LIG X 999      42.446 132.081  21.204  1.00  0.00     0.012 A 
HETATM   17  C15 LIG X 999      43.187 131.835  18.893  1.00  0.00     0.024 A 
ENDBRANCH   7   8
ENDBRANCH   4   5
ENDBRANCH   3   4
TORSDOF 3
ENDMDL
MODEL 3
REMARK VINA RESULT:      -8.3      1.261      1.943
REMARK  3 active torsions:
REMARK  status: ('A' for Active; 'I' for Inactive)
REMARK    1  A    between atoms: C3_3  and  O1_4 
REMARK    2  A    between atoms: O1_4  and  C4_5 
REMARK    3  A    between atoms: C5_7  and  C6_8 
ROOT
HETATM    1  C1  LIG X 999      44.692 128.893  22.670  1.00  0.00     0.014 C 
HETATM    2  C2  LIG X 999      44.240 130.002  22.536  1.00  0.00    -0.091 C 
HETATM    3  C3  LIG X 999      43.691 131.350  22.375  1.00  0.00     0.270 C 
ENDROOT
BRANCH   3   4
HETATM    4  O1  LIG X 999      43.828 131.749  21.017  1.00  0.00    -0.317 OA
BRANCH   4   5
HETATM    5  C4  LIG X 999      42.752 132.229  20.266  1.00  0.00     0.217 C 
HETATM    6  O2  LIG X 999      41.651 132.789  20.908  1.00  0.00    -0.164 OA
HETATM    7  C5  LIG X 999      42.773 132.189  18.929  1.00  0.00     0.078 C 
BRANCH   7   8
HETATM    8  C6  LIG X 999      43.881 131.619  18.129  1.00  0.00    -0.031 A 
HETATM    9  C7  LIG X 999      44.936 130.904  18.725  1.00  0.00     0.012 A 
HETATM   10  C8  LIG X 999      45.956 130.359  17.942  1.00  0.00     0.013 A 
HETATM   11  C9  LIG X 999      45.932 130.504  16.548  1.00  0.00    -0.026 A 
HETATM   12  C10 LIG X 999      46.952 129.960  15.753  1.00  0.00     0.012 A 
HETATM   13  C14 LIG X 999      44.860 131.199  15.937  1.00  0.00    -0.025 A 
HETATM   14  C11 LIG X 999      46.910 130.106  14.363  1.00  0.00     0.001 A 
HETATM   15  C12 LIG X 999      45.854 130.792  13.758  1.00  0.00     0.001 A 
HETATM   16  C13 LIG X 999      44.831 131.337  14.540  1.00  0.00     0.012 A 
HETATM   17  C15 LIG X 999      43.840 131.743  16.732  1.00  0.00     0.024 A 
ENDBRANCH   7   8
ENDBRANCH   4   5
ENDBRANCH   3   4
TORSDOF 3
ENDMDL
MODEL 4
REMARK VINA RESULT:      -7.8      2.397      4.167
REMARK  3 active torsions:
REMARK  status: ('A' for Active; 'I' for Inactive)
REMARK    1  A    between atoms: C3_3  and  O1_4 
REMARK    2  A    between atoms: O1_4  and  C4_5 
REMARK    3  A    between atoms: C5_7  and  C6_8 
ROOT
HETATM    1  C1  LIG X 999      45.333 127.260  22.503  1.00  0.00     0.014 C 
HETATM    2  C2  LIG X 999      44.634 128.085  23.033  1.00  0.00    -0.091 C 
HETATM    3  C3  LIG X 999      43.784 129.088  23.679  1.00  0.00     0.270 C 
ENDROOT
BRANCH   3   4
HETATM    4  O1  LIG X 999      43.083 129.817  22.679  1.00  0.00    -0.317 OA
BRANCH   4   5
HETATM    5  C4  LIG X 999      42.869 131.195  22.771  1.00  0.00     0.217 C 
HETATM    6  O2  LIG X 999      42.183 131.721  23.862  1.00  0.00    -0.164 OA
HETATM    7  C5  LIG X 999      43.340 132.029  21.836  1.00  0.00     0.078 C 
BRANCH   7   8
HETATM    8  C6  LIG X 999      44.081 131.596  20.631  1.00  0.00    -0.031 A 
HETATM    9  C7  LIG X 999      45.298 130.895  20.718  1.00  0.00     0.012 A 
HETATM   10  C8  LIG X 999      45.964 130.480  19.562  1.00  0.00     0.013 A 
HETATM   11  C9  LIG X 999      45.416 130.743  18.299  1.00  0.00    -0.026 A 
HETATM   12  C10 LIG X 999      46.077 130.330  17.132  1.00  0.00     0.012 A 
HETATM   13  C14 LIG X 999      44.179 131.424  18.201  1.00  0.00    -0.025 A 
HETATM   14  C11 LIG X 999      45.516 130.592  15.878  1.00  0.00     0.001 A 
HETATM   15  C12 LIG X 999      44.295 131.264  15.780  1.00  0.00     0.001 A 
HETATM   16  C13 LIG X 999      43.626 131.679  16.936  1.00  0.00     0.012 A 
HETATM   17  C15 LIG X 999      43.518 131.837  19.368  1.00  0.00     0.024 A 
ENDBRANCH   7   8
ENDBRANCH   4   5
ENDBRANCH   3   4
TORSDOF 3
ENDMDL
MODEL 5
REMARK VINA RESULT:      -7.8      1.938      6.408
REMARK  3 active torsions:
REMARK  status: ('A' for Active; 'I' for Inactive)
REMARK    1  A    between atoms: C3_3  and  O1_4 
REMARK    2  A    between atoms: O1_4  and  C4_5 
REMARK    3  A    between atoms: C5_7  and  C6_8 
ROOT
HETATM    1  C1  LIG X 999      47.886 129.630  13.740  1.00  0.00     0.014 C 
HETATM    2  C2  LIG X 999      47.308 129.725  14.793  1.00  0.00    -0.091 C 
HETATM    3  C3  LIG X 999      46.607 129.841  16.073  1.00  0.00     0.270 C 
ENDROOT
BRANCH   3   4
HETATM    4  O1  LIG X 999      45.205 129.869  15.835  1.00  0.00    -0.317 OA
BRANCH   4   5
HETATM    5  C4  LIG X 999      44.582 130.917  15.150  1.00  0.00     0.217 C 
HETATM    6  O2  LIG X 999      44.738 131.035  13.772  1.00  0.00    -0.164 OA
HETATM    7  C5  LIG X 999      43.809 131.797  15.795  1.00  0.00     0.078 C 
BRANCH   7   8
HETATM    8  C6  LIG X 999      43.566 131.781  17.255  1.00  0.00    -0.031 A 
HETATM    9  C7  LIG X 999      42.284 131.990  17.797  1.00  0.00     0.012 A 
HETATM   10  C8  LIG X 999      42.081 131.946  19.178  1.00  0.00     0.013 A 
HETATM   11  C9  LIG X 999      43.153 131.678  20.042  1.00  0.00    -0.026 A 
HETATM   12  C10 LIG X 999      42.959 131.632  21.431  1.00  0.00     0.012 A 
HETATM   13  C14 LIG X 999      44.441 131.441  19.504  1.00  0.00    -0.025 A 
HETATM   14  C11 LIG X 999      44.035 131.355  22.280  1.00  0.00     0.001 A 
HETATM   15  C12 LIG X 999      45.307 131.122  21.751  1.00  0.00     0.001 A 
HETATM   16  C13 LIG X 999      45.512 131.163  20.368  1.00  0.00     0.012 A 
HETATM   17  C15 LIG X 999      44.635 131.486  18.115  1.00  0.00     0.024 A 
ENDBRANCH   7   8
ENDBRANCH   4   5
ENDBRANCH   3   4
TORSDOF 3
ENDMDL
MODEL 6
REMARK VINA RESULT:      -7.5      0.994      1.942
REMARK  3 active torsions:
REMARK  status: ('A' for Active; 'I' for Inactive)
REMARK    1  A    between atoms: C3_3  and  O1_4 
REMARK    2  A    between atoms: O1_4  and  C4_5 
REMARK    3  A    between atoms: C5_7  and  C6_8 
ROOT
HETATM    1  C1  LIG X 999      44.640 129.726  22.051  1.00  0.00     0.014 C 
HETATM    2  C2  LIG X 999      44.955 130.680  21.385  1.00  0.00    -0.091 C 
HETATM    3  C3  LIG X 999      45.337 131.838  20.576  1.00  0.00     0.270 C 
ENDROOT
BRANCH   3   4
HETATM    4  O1  LIG X 999      44.817 131.681  19.262  1.00  0.00    -0.317 OA
BRANCH   4   5
HETATM    5  C4  LIG X 999      43.447 131.736  18.987  1.00  0.00     0.217 C 
HETATM    6  O2  LIG X 999      42.539 131.935  20.023  1.00  0.00    -0.164 OA
HETATM    7  C5  LIG X 999      42.992 131.631  17.734  1.00  0.00     0.078 C 
BRANCH   7   8
HETATM    8  C6  LIG X 999      43.853 131.417  16.549  1.00  0.00    -0.031 A 
HETATM    9  C7  LIG X 999      43.524 131.943  15.287  1.00  0.00     0.012 A 
HETATM   10  C8  LIG X 999      44.368 131.743  14.192  1.00  0.00     0.013 A 
HETATM   11  C9  LIG X 999      45.564 131.028  14.343  1.00  0.00    -0.026 A 
HETATM   12  C10 LIG X 999      46.418 130.821  13.249  1.00  0.00     0.012 A 
HETATM   13  C14 LIG X 999      45.916 130.516  15.615  1.00  0.00    -0.025 A 
HETATM   14  C11 LIG X 999      47.612 130.112  13.415  1.00  0.00     0.001 A 
HETATM   15  C12 LIG X 999      47.961 129.607  14.670  1.00  0.00     0.001 A 
HETATM   16  C13 LIG X 999      47.118 129.807  15.768  1.00  0.00     0.012 A 
HETATM   17  C15 LIG X 999      45.062 130.723  16.709  1.00  0.00     0.024 A 
ENDBRANCH   7   8
ENDBRANCH   4   5
ENDBRANCH   3   4
TORSDOF 3
ENDMDL
MODEL 7
REMARK VINA RESULT:      -7.5      2.601      4.890
REMARK  3 active torsions:
REMARK  status: ('A' for Active; 'I' for Inactive)
REMARK    1  A    between atoms: C3_3  and  O1_4 
REMARK    2  A    between atoms: O1_4  and  C4_5 
REMARK    3  A    between atoms: C5_7  and  C6_8 
ROOT
HETATM    1  C1  LIG X 999      45.610 126.877  22.490  1.00  0.00     0.014 C 
HETATM    2  C2  LIG X 999      44.612 127.425  22.884  1.00  0.00    -0.091 C 
HETATM    3  C3  LIG X 999      43.398 128.090  23.363  1.00  0.00     0.270 C 
ENDROOT
BRANCH   3   4
HETATM    4  O1  LIG X 999      43.309 129.379  22.769  1.00  0.00    -0.317 OA
BRANCH   4   5
HETATM    5  C4  LIG X 999      44.009 130.482  23.266  1.00  0.00     0.217 C 
HETATM    6  O2  LIG X 999      44.311 130.560  24.623  1.00  0.00    -0.164 OA
HETATM    7  C5  LIG X 999      44.425 131.458  22.450  1.00  0.00     0.078 C 
BRANCH   7   8
HETATM    8  C6  LIG X 999      44.167 131.493  20.993  1.00  0.00    -0.031 A 
HETATM    9  C7  LIG X 999      42.986 132.040  20.461  1.00  0.00     0.012 A 
HETATM   10  C8  LIG X 999      42.780 132.080  19.080  1.00  0.00     0.013 A 
HETATM   11  C9  LIG X 999      43.759 131.588  18.205  1.00  0.00    -0.026 A 
HETATM   12  C10 LIG X 999      43.562 131.623  16.817  1.00  0.00     0.012 A 
HETATM   13  C14 LIG X 999      44.963 131.058  18.731  1.00  0.00    -0.025 A 
HETATM   14  C11 LIG X 999      44.551 131.135  15.956  1.00  0.00     0.001 A 
HETATM   15  C12 LIG X 999      45.739 130.613  16.473  1.00  0.00     0.001 A 
HETATM   16  C13 LIG X 999      45.947 130.573  17.855  1.00  0.00     0.012 A 
HETATM   17  C15 LIG X 999      45.160 131.023  20.119  1.00  0.00     0.024 A 
ENDBRANCH   7   8
ENDBRANCH   4   5
ENDBRANCH   3   4
TORSDOF 3
ENDMDL
MODEL 8
REMARK VINA RESULT:      -7.2      2.623      4.903
REMARK  3 active torsions:
REMARK  status: ('A' for Active; 'I' for Inactive)
REMARK    1  A    between atoms: C3_3  and  O1_4 
REMARK    2  A    between atoms: O1_4  and  C4_5 
REMARK    3  A    between atoms: C5_7  and  C6_8 
ROOT
HETATM    1  C1  LIG X 999      41.042 127.550  24.159  1.00  0.00     0.014 C 
HETATM    2  C2  LIG X 999      42.178 127.834  23.874  1.00  0.00    -0.091 C 
HETATM    3  C3  LIG X 999      43.559 128.177  23.528  1.00  0.00     0.270 C 
ENDROOT
BRANCH   3   4
HETATM    4  O1  LIG X 999      43.564 129.383  22.775  1.00  0.00    -0.317 OA
BRANCH   4   5
HETATM    5  C4  LIG X 999      44.107 130.573  23.269  1.00  0.00     0.217 C 
HETATM    6  O2  LIG X 999      44.397 130.693  24.625  1.00  0.00    -0.164 OA
HETATM    7  C5  LIG X 999      44.383 131.595  22.452  1.00  0.00     0.078 C 
BRANCH   7   8
HETATM    8  C6  LIG X 999      44.121 131.592  20.995  1.00  0.00    -0.031 A 
HETATM    9  C7  LIG X 999      42.904 132.051  20.458  1.00  0.00     0.012 A 
HETATM   10  C8  LIG X 999      42.694 132.058  19.077  1.00  0.00     0.013 A 
HETATM   11  C9  LIG X 999      43.703 131.621  18.207  1.00  0.00    -0.026 A 
HETATM   12  C10 LIG X 999      43.502 131.623  16.818  1.00  0.00     0.012 A 
HETATM   13  C14 LIG X 999      44.941 131.181  18.736  1.00  0.00    -0.025 A 
HETATM   14  C11 LIG X 999      44.519 131.191  15.962  1.00  0.00     0.001 A 
HETATM   15  C12 LIG X 999      45.741 130.757  16.483  1.00  0.00     0.001 A 
HETATM   16  C13 LIG X 999      45.954 130.752  17.865  1.00  0.00     0.012 A 
HETATM   17  C15 LIG X 999      45.142 131.179  20.125  1.00  0.00     0.024 A 
ENDBRANCH   7   8
ENDBRANCH   4   5
ENDBRANCH   3   4
TORSDOF 3
ENDMDL
MODEL 9
REMARK VINA RESULT:      -7.0      1.964      3.920
REMARK  3 active torsions:
REMARK  status: ('A' for Active; 'I' for Inactive)
REMARK    1  A    between atoms: C3_3  and  O1_4 
REMARK    2  A    between atoms: O1_4  and  C4_5 
REMARK    3  A    between atoms: C5_7  and  C6_8 
ROOT
HETATM    1  C1  LIG X 999      42.603 127.626  23.888  1.00  0.00     0.014 C 
HETATM    2  C2  LIG X 999      42.360 128.742  23.503  1.00  0.00    -0.091 C 
HETATM    3  C3  LIG X 999      42.065 130.098  23.036  1.00  0.00     0.270 C 
ENDROOT
BRANCH   3   4
HETATM    4  O1  LIG X 999      42.995 130.454  22.021  1.00  0.00    -0.317 OA
BRANCH   4   5
HETATM    5  C4  LIG X 999      44.211 131.081  22.307  1.00  0.00     0.217 C 
HETATM    6  O2  LIG X 999      44.621 131.233  23.629  1.00  0.00    -0.164 OA
HETATM    7  C5  LIG X 999      45.010 131.514  21.325  1.00  0.00     0.078 C 
BRANCH   7   8
HETATM    8  C6  LIG X 999      44.689 131.413  19.883  1.00  0.00    -0.031 A 
HETATM    9  C7  LIG X 999      43.491 131.925  19.351  1.00  0.00     0.012 A 
HETATM   10  C8  LIG X 999      43.225 131.835  17.983  1.00  0.00     0.013 A 
HETATM   11  C9  LIG X 999      44.160 131.247  17.119  1.00  0.00    -0.026 A 
HETATM   12  C10 LIG X 999      43.903 131.152  15.743  1.00  0.00     0.012 A 
HETATM   13  C14 LIG X 999      45.380 130.753  17.641  1.00  0.00    -0.025 A 
HETATM   14  C11 LIG X 999      44.847 130.570  14.892  1.00  0.00     0.001 A 
HETATM   15  C12 LIG X 999      46.051 130.082  15.406  1.00  0.00     0.001 A 
HETATM   16  C13 LIG X 999      46.320 130.172  16.775  1.00  0.00     0.012 A 
HETATM   17  C15 LIG X 999      45.637 130.848  19.017  1.00  0.00     0.024 A 
ENDBRANCH   7   8
ENDBRANCH   4   5
ENDBRANCH   3   4
TORSDOF 3
ENDMDL
