REMARK VINA RESULT:      -3.7      5.130      8.161
REMARK  5 active torsions:
REMARK  status: ('A' for Active; 'I' for Inactive)
REMARK    1  A    between atoms: C3_3  and  N1_4 
REMARK    2  A    between atoms: N1_4  and  C6_7 
REMARK    3  A    between atoms: C6_7  and  C7_8 
REMARK    4  A    between atoms: C9_10  and  C10_11 
REMARK    5  A    between atoms: C11_14  and  N4_15 
ROOT
HETATM    1  C1  LIG X 999      52.037 124.897  20.321  1.00  0.00     0.013 C 
HETATM    2  C2  LIG X 999      51.080 124.763  21.043  1.00  0.00    -0.089 C 
HETATM    3  C3  LIG X 999      49.910 124.600  21.928  1.00  0.00     0.329 C 
ENDROOT
BRANCH   3   4
HETATM    4  N1  LIG X 999      49.694 123.191  22.377  1.00  0.00    -0.061 N 
HETATM    5  C4  LIG X 999      50.980 122.616  22.851  1.00  0.00     0.273 C 
HETATM    6  C5  LIG X 999      49.252 122.392  21.206  1.00  0.00     0.273 C 
BRANCH   4   7
HETATM    7  C6  LIG X 999      48.692 123.084  23.488  1.00  0.00     0.275 C 
BRANCH   7   8
HETATM    8  C7  LIG X 999      47.252 123.288  23.057  1.00  0.00    -0.035 C 
HETATM    9  C8  LIG X 999      46.321 123.700  23.942  1.00  0.00     0.001 C 
HETATM   10  C9  LIG X 999      44.934 124.083  23.470  1.00  0.00     0.054 C 
HETATM   11  C12 LIG X 999      43.907 123.975  24.625  1.00  0.00     0.023 C 
HETATM   12  C16 LIG X 999      44.508 123.079  22.357  1.00  0.00     0.028 C 
HETATM   13  C13 LIG X 999      42.474 124.257  24.129  1.00  0.00     0.002 C 
HETATM   14  C14 LIG X 999      42.080 123.340  22.958  1.00  0.00     0.001 C 
HETATM   15  C15 LIG X 999      43.105 123.393  21.814  1.00  0.00     0.010 C 
HETATM   16  C17 LIG X 999      45.567 122.981  21.289  1.00  0.00    -0.020 C 
HETATM   17  C18 LIG X 999      46.858 123.016  21.645  1.00  0.00     0.005 C 
BRANCH  10  18
HETATM   18  C10 LIG X 999      45.019 125.523  22.987  1.00  0.00     0.184 A 
HETATM   19  N2  LIG X 999      45.977 126.011  22.169  1.00  0.00    -0.124 NA
HETATM   20  N3  LIG X 999      45.740 127.307  22.033  1.00  0.00    -0.099 NA
HETATM   21  C11 LIG X 999      44.652 127.559  22.781  1.00  0.00     0.326 A 
HETATM   22  O1  LIG X 999      44.205 126.478  23.374  1.00  0.00    -0.255 OA
BRANCH  21  23
HETATM   23  N4  LIG X 999      44.067 128.851  22.912  1.00  0.00    -0.023 NA
HETATM   24  N5  LIG X 999      44.471 129.796  22.235  1.00  0.00    -0.158 NA
HETATM   25  N6  LIG X 999      44.877 130.741  21.558  1.00  0.00     0.068 N 
ENDBRANCH  21  23
ENDBRANCH  10  18
ENDBRANCH   7   8
ENDBRANCH   4   7
ENDBRANCH   3   4
TORSDOF 5
