REMARK VINA RESULT:      -5.9      4.460      6.294
REMARK  3 active torsions:
REMARK  status: ('A' for Active; 'I' for Inactive)
REMARK    1  A    between atoms: C6_6  and  C7_7 
REMARK    2  A    between atoms: C7_7  and  N1_8 
REMARK    3  A    between atoms: C8_12  and  N4_13 
ROOT
HETATM    1  N1  LIG X 999      43.879 131.886  21.067  1.00  0.00    -0.065 NA
HETATM    2  N2  LIG X 999      43.459 130.967  21.774  1.00  0.00    -0.164 NA
HETATM    3  N3  LIG X 999      43.039 130.051  22.478  1.00  0.00     0.068 N 
ENDROOT
BRANCH   1   4
HETATM    4  C7  LIG X 999      45.027 131.711  20.179  1.00  0.00     0.267 A 
HETATM    5  O1  LIG X 999      45.965 130.774  20.661  1.00  0.00    -0.314 OA
HETATM    6  C8  LIG X 999      46.366 132.128  20.665  1.00  0.00     0.349 A 
BRANCH   4   7
HETATM    7  C6  LIG X 999      44.771 131.592  18.708  1.00  0.00     0.007 A 
HETATM    8  C5  LIG X 999      45.800 131.190  17.844  1.00  0.00     0.024 A 
HETATM    9  C4  LIG X 999      45.556 131.055  16.468  1.00  0.00    -0.025 A 
HETATM   10  C3  LIG X 999      46.581 130.661  15.594  1.00  0.00     0.012 A 
HETATM   11  C11 LIG X 999      44.261 131.315  15.957  1.00  0.00    -0.026 A 
HETATM   12  C2  LIG X 999      46.325 130.529  14.227  1.00  0.00     0.001 A 
HETATM   13  C1  LIG X 999      45.047 130.787  13.722  1.00  0.00     0.001 A 
HETATM   14  C12 LIG X 999      44.017 131.178  14.581  1.00  0.00     0.012 A 
HETATM   15  C10 LIG X 999      43.235 131.702  16.831  1.00  0.00     0.013 A 
HETATM   16  C9  LIG X 999      43.489 131.834  18.198  1.00  0.00     0.013 A 
ENDBRANCH   4   7
BRANCH   6  17
HETATM   17  N4  LIG X 999      46.412 132.636  22.026  1.00  0.00    -0.077 NA
HETATM   18  N5  LIG X 999      47.238 133.492  22.340  1.00  0.00    -0.165 NA
HETATM   19  N6  LIG X 999      48.062 134.348  22.654  1.00  0.00     0.068 N 
ENDBRANCH   6  17
ENDBRANCH   1   4
TORSDOF 3
