REMARK VINA RESULT:      -5.0      3.705      5.997
REMARK  6 active torsions:
REMARK  status: ('A' for Active; 'I' for Inactive)
REMARK    1  A    between atoms: C8_8  and  O1_9 
REMARK    2  A    between atoms: O1_9  and  C9_10 
REMARK    3  A    between atoms: C9_10  and  C10_11 
REMARK    4  A    between atoms: C10_11  and  C11_12 
REMARK    5  A    between atoms: C11_12  and  N1_13 
REMARK    6  A    between atoms: C13_18  and  N4_19 
ROOT
HETATM    1  N1  LIG X 999      41.397 124.213  22.262  1.00  0.00    -0.116 NA
HETATM    2  N2  LIG X 999      42.051 123.384  21.630  1.00  0.00    -0.168 NA
HETATM    3  N3  LIG X 999      42.706 122.554  20.999  1.00  0.00     0.068 N 
ENDROOT
BRANCH   1   4
HETATM    4  C11 LIG X 999      42.047 125.332  22.931  1.00  0.00     0.191 C 
BRANCH   4   5
HETATM    5  C10 LIG X 999      43.542 125.056  23.117  1.00  0.00     0.051 C 
BRANCH   5   6
HETATM    6  C9  LIG X 999      44.356 126.348  23.049  1.00  0.00     0.170 C 
BRANCH   6   7
HETATM    7  O1  LIG X 999      43.980 127.186  24.122  1.00  0.00    -0.384 OA
BRANCH   7   8
HETATM    8  C8  LIG X 999      43.920 128.542  23.706  1.00  0.00     0.146 C 
HETATM    9  C7  LIG X 999      44.857 128.736  22.501  1.00  0.00     0.072 C 
HETATM   10  C5  LIG X 999      44.613 130.023  21.746  1.00  0.00    -0.047 A 
HETATM   11  C4  LIG X 999      43.392 130.734  21.859  1.00  0.00    -0.023 A 
HETATM   12  C6  LIG X 999      45.575 130.447  20.816  1.00  0.00     0.008 A 
HETATM   13  C3  LIG X 999      43.179 131.866  21.052  1.00  0.00     0.010 A 
HETATM   14  C13 LIG X 999      42.350 130.356  22.891  1.00  0.00     0.199 C 
HETATM   15  C2  LIG X 999      44.152 132.283  20.142  1.00  0.00     0.001 A 
HETATM   16  C1  LIG X 999      45.349 131.576  20.026  1.00  0.00     0.001 A 
HETATM   17  C12 LIG X 999      42.476 128.875  23.297  1.00  0.00     0.143 C 
HETATM   18 CL1  LIG X 999      41.335 128.489  24.625  1.00  0.00    -0.120 Cl
BRANCH  14  19
HETATM   19  N4  LIG X 999      42.486 131.209  24.070  1.00  0.00    -0.104 NA
HETATM   20  N5  LIG X 999      43.529 131.825  24.301  1.00  0.00    -0.167 NA
HETATM   21  N6  LIG X 999      44.568 132.439  24.531  1.00  0.00     0.068 N 
ENDBRANCH  14  19
ENDBRANCH   7   8
ENDBRANCH   6   7
ENDBRANCH   5   6
ENDBRANCH   4   5
ENDBRANCH   1   4
TORSDOF 6
