REMARK VINA RESULT:      -8.2      2.181      3.055
REMARK  3 active torsions:
REMARK  status: ('A' for Active; 'I' for Inactive)
REMARK    1  A    between atoms: C1_1  and  C2_6 
REMARK    2  A    between atoms: N1_2  and  N2_3 
REMARK    3  A    between atoms: C2_6  and  C3_8 
ROOT
HETATM    1  C3  LIG X 999      43.906 131.549  18.126  1.00  0.00     0.016 A 
HETATM    2  C4  LIG X 999      45.007 130.874  18.682  1.00  0.00     0.016 A 
HETATM    3  C5  LIG X 999      46.026 130.379  17.865  1.00  0.00     0.013 A 
HETATM    4  C6  LIG X 999      45.957 130.539  16.475  1.00  0.00    -0.026 A 
HETATM    5  C7  LIG X 999      46.976 130.045  15.646  1.00  0.00     0.012 A 
HETATM    6  C8  LIG X 999      46.892 130.206  14.259  1.00  0.00     0.001 A 
HETATM    7  C9  LIG X 999      45.793 130.857  13.692  1.00  0.00     0.001 A 
HETATM    8  C10 LIG X 999      44.772 131.353  14.507  1.00  0.00     0.012 A 
HETATM    9  C11 LIG X 999      44.845 131.202  15.901  1.00  0.00    -0.025 A 
HETATM   10  C12 LIG X 999      43.826 131.696  16.730  1.00  0.00     0.028 A 
ENDROOT
BRANCH   1  11
HETATM   11  C2  LIG X 999      42.831 132.054  19.014  1.00  0.00     0.201 C 
HETATM   12  O1  LIG X 999      41.709 132.339  18.515  1.00  0.00    -0.286 OA
BRANCH  11  13
HETATM   13  C1  LIG X 999      43.008 132.222  20.468  1.00  0.00     0.195 C 
HETATM   14  N1  LIG X 999      42.706 131.267  21.295  1.00  0.00    -0.164 NA
BRANCH  14  15
HETATM   15  N2  LIG X 999      42.823 131.376  22.693  1.00  0.00    -0.177 N 
HETATM   16  H2  LIG X 999      41.965 131.543  23.262  1.00  0.00     0.214 HD
HETATM   17  N3  LIG X 999      43.945 131.270  23.282  1.00  0.00    -0.031 N 
ENDBRANCH  14  15
ENDBRANCH  11  13
ENDBRANCH   1  11
TORSDOF 3
