REMARK VINA RESULT:      -8.4      0.000      0.000
REMARK  3 active torsions:
REMARK  status: ('A' for Active; 'I' for Inactive)
REMARK    1  A    between atoms: O1_2  and  C1_3 
REMARK    2  A    between atoms: C1_3  and  C3_8 
REMARK    3  A    between atoms: C2_4  and  N1_5 
ROOT
HETATM    1  C3  LIG X 999      43.782 131.653  18.013  1.00  0.00    -0.001 A 
HETATM    2  C4  LIG X 999      44.842 130.991  18.661  1.00  0.00     0.015 A 
HETATM    3  C5  LIG X 999      45.892 130.438  17.924  1.00  0.00     0.013 A 
HETATM    4  C6  LIG X 999      45.905 130.539  16.527  1.00  0.00    -0.026 A 
HETATM    5  C7  LIG X 999      46.955 129.986  15.778  1.00  0.00     0.012 A 
HETATM    6  C8  LIG X 999      46.956 130.094  14.385  1.00  0.00     0.001 A 
HETATM    7  C9  LIG X 999      45.911 130.753  13.729  1.00  0.00     0.001 A 
HETATM    8  C10 LIG X 999      44.859 131.308  14.464  1.00  0.00     0.012 A 
HETATM    9  C11 LIG X 999      44.847 131.207  15.864  1.00  0.00    -0.025 A 
HETATM   10  C12 LIG X 999      43.797 131.760  16.612  1.00  0.00     0.026 A 
ENDROOT
BRANCH   1  11
HETATM   11  C1  LIG X 999      42.667 132.253  18.790  1.00  0.00     0.090 C 
HETATM   12  C2  LIG X 999      42.663 132.218  20.130  1.00  0.00     0.118 C 
BRANCH  11  13
HETATM   13  O1  LIG X 999      41.599 132.850  18.117  1.00  0.00    -0.358 OA
HETATM   14  H1  LIG X 999      40.777 133.183  18.606  1.00  0.00     0.217 HD
ENDBRANCH  11  13
BRANCH  12  15
HETATM   15  N1  LIG X 999      41.600 132.795  20.893  1.00  0.00    -0.406 N 
HETATM   16  H3  LIG X 999      41.122 133.654  20.541  1.00  0.00     0.155 HD
HETATM   17  H4  LIG X 999      41.278 132.382  21.796  1.00  0.00     0.155 HD
ENDBRANCH  12  15
ENDBRANCH   1  11
TORSDOF 3
