REMARK VINA RESULT:      -7.7      3.341      5.615
REMARK  3 active torsions:
REMARK  status: ('A' for Active; 'I' for Inactive)
REMARK    1  A    between atoms: N1_1  and  C1_2 
REMARK    2  A    between atoms: C1_2  and  C2_3 
REMARK    3  A    between atoms: C2_3  and  C3_5 
ROOT
HETATM    1  C3  LIG X 999      44.560 131.329  18.021  1.00  0.00     0.012 A 
HETATM    2  C4  LIG X 999      45.533 130.390  18.411  1.00  0.00     0.016 A 
HETATM    3  C5  LIG X 999      46.421 129.849  17.478  1.00  0.00     0.013 A 
HETATM    4  C6  LIG X 999      46.354 130.235  16.134  1.00  0.00    -0.026 A 
HETATM    5  C7  LIG X 999      47.243 129.696  15.189  1.00  0.00     0.012 A 
HETATM    6  C8  LIG X 999      47.165 130.087  13.850  1.00  0.00     0.001 A 
HETATM    7  C9  LIG X 999      46.202 131.014  13.444  1.00  0.00     0.001 A 
HETATM    8  C10 LIG X 999      45.311 131.558  14.374  1.00  0.00     0.012 A 
HETATM    9  C11 LIG X 999      45.380 131.174  15.723  1.00  0.00    -0.025 A 
HETATM   10  C12 LIG X 999      44.491 131.713  16.666  1.00  0.00     0.027 A 
ENDROOT
BRANCH   1  11
HETATM   11  C2  LIG X 999      43.624 131.890  19.032  1.00  0.00     0.187 C 
HETATM   12  O1  LIG X 999      44.090 132.448  20.063  1.00  0.00    -0.290 OA
BRANCH  11  13
HETATM   13  C1  LIG X 999      42.128 131.775  18.875  1.00  0.00     0.350 C 
BRANCH  13  14
HETATM   14  N1  LIG X 999      41.579 132.938  18.183  1.00  0.00     0.085 N 
HETATM   15  H1  LIG X 999      40.556 132.981  18.395  1.00  0.00     0.313 HD
HETATM   16  H2  LIG X 999      41.662 132.775  17.153  1.00  0.00     0.313 HD
ENDBRANCH  13  14
ENDBRANCH  11  13
ENDBRANCH   1  11
TORSDOF 3
