REMARK VINA RESULT:      -5.3      4.975      6.263
REMARK  2 active torsions:
REMARK  status: ('A' for Active; 'I' for Inactive)
REMARK    1  A    between atoms: N1_1  and  C1_2 
REMARK    2  A    between atoms: C2_5  and  C3_6 
ROOT
HETATM    1  C3  LIG X 999      44.268 129.400  22.898  1.00  0.00     0.030 A 
HETATM    2  C4  LIG X 999      43.307 129.824  23.833  1.00  0.00     0.017 A 
HETATM    3  C5  LIG X 999      42.566 130.985  23.623  1.00  0.00     0.002 A 
HETATM    4  C6  LIG X 999      42.769 131.751  22.478  1.00  0.00     0.012 A 
HETATM    5  C7  LIG X 999      43.737 131.374  21.538  1.00  0.00    -0.025 A 
HETATM    6  C8  LIG X 999      43.949 132.168  20.401  1.00  0.00     0.012 A 
HETATM    7  C9  LIG X 999      44.935 131.826  19.476  1.00  0.00     0.001 A 
HETATM    8  C10 LIG X 999      45.727 130.698  19.685  1.00  0.00     0.001 A 
HETATM    9  C11 LIG X 999      45.528 129.893  20.810  1.00  0.00     0.013 A 
HETATM   10  C12 LIG X 999      44.514 130.199  21.745  1.00  0.00    -0.011 A 
ENDROOT
BRANCH   1  11
HETATM   11  C2  LIG X 999      44.951 128.109  23.155  1.00  0.00     0.203 A 
HETATM   12  N3  LIG X 999      45.301 127.675  24.387  1.00  0.00    -0.145 NA
HETATM   13  N2  LIG X 999      45.846 126.485  24.205  1.00  0.00    -0.240 N 
HETATM   14  C1  LIG X 999      45.806 126.231  22.889  1.00  0.00     0.240 A 
HETATM   15  H3  LIG X 999      46.226 125.875  24.962  1.00  0.00     0.193 HD
HETATM   16  O1  LIG X 999      45.254 127.220  22.232  1.00  0.00    -0.257 OA
BRANCH  14  17
HETATM   17  N1  LIG X 999      46.299 125.038  22.285  1.00  0.00    -0.364 N 
HETATM   18  H1  LIG X 999      45.970 124.759  21.333  1.00  0.00     0.159 HD
HETATM   19  H2  LIG X 999      46.989 124.438  22.787  1.00  0.00     0.159 HD
ENDBRANCH  14  17
ENDBRANCH   1  11
TORSDOF 2
