REMARK VINA RESULT:      -7.5      0.000      0.000
REMARK  1 active torsions:
REMARK  status: ('A' for Active; 'I' for Inactive)
REMARK    1  A    between atoms: N1_2  and  C1_3 
ROOT
HETATM    1  C1  LIG X 999      43.229 131.758  22.808  1.00  0.00     0.120 C 
HETATM    2  C2  LIG X 999      44.357 130.998  22.497  1.00  0.00     0.057 C 
HETATM    3  C3  LIG X 999      44.684 130.725  21.162  1.00  0.00    -0.045 C 
HETATM    4  C4  LIG X 999      45.723 129.653  20.939  1.00  0.00     0.049 C 
HETATM    5  C5  LIG X 999      43.934 131.352  20.115  1.00  0.00     0.008 C 
HETATM    6  C6  LIG X 999      44.286 131.340  18.724  1.00  0.00    -0.013 C 
HETATM    7  C7  LIG X 999      45.591 131.062  18.252  1.00  0.00     0.013 C 
HETATM    8  C8  LIG X 999      45.867 131.006  16.884  1.00  0.00     0.001 C 
HETATM    9  C9  LIG X 999      44.868 131.273  15.953  1.00  0.00     0.001 C 
HETATM   10  C10 LIG X 999      43.601 131.654  16.386  1.00  0.00     0.012 C 
HETATM   11  C11 LIG X 999      43.313 131.730  17.759  1.00  0.00    -0.025 C 
HETATM   12  C12 LIG X 999      42.082 132.245  18.170  1.00  0.00     0.014 C 
HETATM   13  C13 LIG X 999      41.816 132.433  19.519  1.00  0.00     0.031 C 
HETATM   14  C14 LIG X 999      42.726 132.006  20.494  1.00  0.00     0.045 C 
HETATM   15  N2  LIG X 999      42.425 132.207  21.810  1.00  0.00    -0.341 N 
HETATM   16  H12 LIG X 999      41.551 132.724  22.067  1.00  0.00     0.167 HD
ENDROOT
BRANCH   1  17
HETATM   17  N1  LIG X 999      42.917 132.002  24.043  1.00  0.00    -0.284 NA
HETATM   18  H1  LIG X 999      41.933 131.963  24.393  1.00  0.00     0.188 HD
ENDBRANCH   1  17
TORSDOF 1
