MODEL 1
REMARK VINA RESULT:      -7.7      0.000      0.000
REMARK  2 active torsions:
REMARK  status: ('A' for Active; 'I' for Inactive)
REMARK    1  A    between atoms: C2_5  and  C3_6 
REMARK    2  A    between atoms: N3_17  and  C13_18 
ROOT
HETATM    1  H1  LIG X 999      43.822 131.396  13.633  1.00  0.00     0.190 HD
HETATM    2  N1  LIG X 999      43.249 131.713  14.445  1.00  0.00    -0.260 NA
HETATM    3  C1  LIG X 999      43.644 131.600  15.672  1.00  0.00     0.269 A 
HETATM    4  O1  LIG X 999      42.915 131.952  16.701  1.00  0.00    -0.255 OA
HETATM    5  C2  LIG X 999      43.634 131.629  17.757  1.00  0.00     0.203 A 
HETATM    6  N2  LIG X 999      44.820 131.088  17.396  1.00  0.00    -0.137 NA
HETATM    7  N3  LIG X 999      44.822 131.075  16.073  1.00  0.00    -0.189 N 
ENDROOT
BRANCH   5   8
HETATM    8  C3  LIG X 999      43.231 131.866  19.163  1.00  0.00     0.030 A 
HETATM    9  C4  LIG X 999      42.195 132.788  19.396  1.00  0.00     0.017 A 
HETATM   10  C5  LIG X 999      41.705 133.008  20.682  1.00  0.00     0.002 A 
HETATM   11  C6  LIG X 999      42.239 132.314  21.764  1.00  0.00     0.012 A 
HETATM   12  C7  LIG X 999      43.291 131.409  21.574  1.00  0.00    -0.025 A 
HETATM   13  C8  LIG X 999      43.838 130.736  22.679  1.00  0.00     0.012 A 
HETATM   14  C12 LIG X 999      43.813 131.184  20.269  1.00  0.00    -0.011 A 
HETATM   15  C9  LIG X 999      44.909 129.861  22.509  1.00  0.00     0.001 A 
HETATM   16  C10 LIG X 999      45.453 129.659  21.242  1.00  0.00     0.001 A 
HETATM   17  C11 LIG X 999      44.920 130.317  20.131  1.00  0.00     0.013 A 
ENDBRANCH   5   8
BRANCH   7  18
HETATM   18  C13 LIG X 999      45.924 130.605  15.281  1.00  0.00     0.107 A 
HETATM   19  C14 LIG X 999      46.237 129.238  15.231  1.00  0.00     0.054 A 
HETATM   20  C15 LIG X 999      47.294 128.803  14.428  1.00  0.00     0.122 A 
HETATM   21  N4  LIG X 999      48.005 129.697  13.691  1.00  0.00    -0.230 NA
HETATM   22  C16 LIG X 999      47.714 131.025  13.706  1.00  0.00     0.251 A 
HETATM   23  F1  LIG X 999      48.445 131.882  12.954  1.00  0.00    -0.181 F 
HETATM   24  C17 LIG X 999      46.663 131.503  14.495  1.00  0.00     0.203 A 
HETATM   25  F2  LIG X 999      46.380 132.831  14.511  1.00  0.00    -0.199 F 
ENDBRANCH   7  18
TORSDOF 2
ENDMDL
MODEL 2
REMARK VINA RESULT:      -7.5      2.158      3.136
REMARK  2 active torsions:
REMARK  status: ('A' for Active; 'I' for Inactive)
REMARK    1  A    between atoms: C2_5  and  C3_6 
REMARK    2  A    between atoms: N3_17  and  C13_18 
ROOT
HETATM    1  H1  LIG X 999      42.612 132.157  16.601  1.00  0.00     0.190 HD
HETATM    2  N1  LIG X 999      42.375 132.132  17.617  1.00  0.00    -0.260 NA
HETATM    3  C1  LIG X 999      43.211 131.739  18.525  1.00  0.00     0.269 A 
HETATM    4  O1  LIG X 999      42.910 131.659  19.796  1.00  0.00    -0.255 OA
HETATM    5  C2  LIG X 999      43.990 131.171  20.373  1.00  0.00     0.203 A 
HETATM    6  N2  LIG X 999      44.974 130.957  19.471  1.00  0.00    -0.137 NA
HETATM    7  N3  LIG X 999      44.475 131.322  18.301  1.00  0.00    -0.189 N 
ENDROOT
BRANCH   5   8
HETATM    8  C3  LIG X 999      44.139 130.928  21.827  1.00  0.00     0.030 A 
HETATM    9  C4  LIG X 999      43.832 131.989  22.698  1.00  0.00     0.017 A 
HETATM   10  C5  LIG X 999      43.872 131.818  24.080  1.00  0.00     0.002 A 
HETATM   11  C6  LIG X 999      44.219 130.585  24.625  1.00  0.00     0.012 A 
HETATM   12  C7  LIG X 999      44.557 129.513  23.789  1.00  0.00    -0.025 A 
HETATM   13  C8  LIG X 999      44.931 128.283  24.352  1.00  0.00     0.012 A 
HETATM   14  C12 LIG X 999      44.537 129.677  22.375  1.00  0.00    -0.011 A 
HETATM   15  C9  LIG X 999      45.306 127.219  23.533  1.00  0.00     0.001 A 
HETATM   16  C10 LIG X 999      45.326 127.377  22.148  1.00  0.00     0.001 A 
HETATM   17  C11 LIG X 999      44.954 128.592  21.569  1.00  0.00     0.013 A 
ENDBRANCH   5   8
BRANCH   7  18
HETATM   18  C13 LIG X 999      45.216 131.284  17.070  1.00  0.00     0.107 A 
HETATM   19  C14 LIG X 999      45.579 132.472  16.417  1.00  0.00     0.054 A 
HETATM   20  C15 LIG X 999      46.327 132.409  15.240  1.00  0.00     0.122 A 
HETATM   21  N4  LIG X 999      46.711 131.205  14.739  1.00  0.00    -0.230 NA
HETATM   22  C16 LIG X 999      46.389 130.038  15.359  1.00  0.00     0.251 A 
HETATM   23  F1  LIG X 999      46.796 128.861  14.827  1.00  0.00    -0.181 F 
HETATM   24  C17 LIG X 999      45.643 130.056  16.541  1.00  0.00     0.203 A 
HETATM   25  F2  LIG X 999      45.320 128.889  17.154  1.00  0.00    -0.199 F 
ENDBRANCH   7  18
TORSDOF 2
ENDMDL
MODEL 3
REMARK VINA RESULT:      -7.5      3.691      7.451
REMARK  2 active torsions:
REMARK  status: ('A' for Active; 'I' for Inactive)
REMARK    1  A    between atoms: C2_5  and  C3_6 
REMARK    2  A    between atoms: N3_17  and  C13_18 
ROOT
HETATM    1  H1  LIG X 999      46.336 132.000  22.235  1.00  0.00     0.190 HD
HETATM    2  N1  LIG X 999      46.499 132.122  21.212  1.00  0.00    -0.260 NA
HETATM    3  C1  LIG X 999      45.622 131.798  20.316  1.00  0.00     0.269 A 
HETATM    4  O1  LIG X 999      45.833 131.903  19.028  1.00  0.00    -0.255 OA
HETATM    5  C2  LIG X 999      44.742 131.427  18.463  1.00  0.00     0.203 A 
HETATM    6  N2  LIG X 999      43.839 131.036  19.391  1.00  0.00    -0.137 NA
HETATM    7  N3  LIG X 999      44.402 131.277  20.564  1.00  0.00    -0.189 N 
ENDROOT
BRANCH   5   8
HETATM    8  C3  LIG X 999      44.501 131.365  17.002  1.00  0.00     0.030 A 
HETATM    9  C4  LIG X 999      43.292 131.898  16.521  1.00  0.00     0.017 A 
HETATM   10  C5  LIG X 999      43.024 131.949  15.154  1.00  0.00     0.002 A 
HETATM   11  C6  LIG X 999      43.955 131.470  14.238  1.00  0.00     0.012 A 
HETATM   12  C7  LIG X 999      45.159 130.907  14.682  1.00  0.00    -0.025 A 
HETATM   13  C8  LIG X 999      46.078 130.403  13.748  1.00  0.00     0.012 A 
HETATM   14  C12 LIG X 999      45.441 130.833  16.075  1.00  0.00    -0.011 A 
HETATM   15  C9  LIG X 999      47.262 129.807  14.178  1.00  0.00     0.001 A 
HETATM   16  C10 LIG X 999      47.534 129.695  15.541  1.00  0.00     0.001 A 
HETATM   17  C11 LIG X 999      46.633 130.194  16.485  1.00  0.00     0.013 A 
ENDBRANCH   5   8
BRANCH   7  18
HETATM   18  C13 LIG X 999      43.756 131.034  21.824  1.00  0.00     0.107 A 
HETATM   19  C14 LIG X 999      42.783 131.919  22.312  1.00  0.00     0.054 A 
HETATM   20  C15 LIG X 999      42.146 131.643  23.523  1.00  0.00     0.122 A 
HETATM   21  N4  LIG X 999      42.458 130.517  24.218  1.00  0.00    -0.230 NA
HETATM   22  C16 LIG X 999      43.384 129.632  23.762  1.00  0.00     0.251 A 
HETATM   23  F1  LIG X 999      43.662 128.520  24.483  1.00  0.00    -0.181 F 
HETATM   24  C17 LIG X 999      44.044 129.869  22.552  1.00  0.00     0.203 A 
HETATM   25  F2  LIG X 999      44.971 128.985  22.104  1.00  0.00    -0.199 F 
ENDBRANCH   7  18
TORSDOF 2
ENDMDL
MODEL 4
REMARK VINA RESULT:      -7.2      3.701      7.377
REMARK  2 active torsions:
REMARK  status: ('A' for Active; 'I' for Inactive)
REMARK    1  A    between atoms: C2_5  and  C3_6 
REMARK    2  A    between atoms: N3_17  and  C13_18 
ROOT
HETATM    1  H1  LIG X 999      46.404 132.055  22.230  1.00  0.00     0.190 HD
HETATM    2  N1  LIG X 999      46.524 132.243  21.211  1.00  0.00    -0.260 NA
HETATM    3  C1  LIG X 999      45.696 131.811  20.314  1.00  0.00     0.269 A 
HETATM    4  O1  LIG X 999      45.859 132.002  19.029  1.00  0.00    -0.255 OA
HETATM    5  C2  LIG X 999      44.854 131.370  18.459  1.00  0.00     0.203 A 
HETATM    6  N2  LIG X 999      44.049 130.794  19.381  1.00  0.00    -0.137 NA
HETATM    7  N3  LIG X 999      44.587 131.080  20.556  1.00  0.00    -0.189 N 
ENDROOT
BRANCH   5   8
HETATM    8  C3  LIG X 999      44.596 131.327  17.001  1.00  0.00     0.030 A 
HETATM    9  C4  LIG X 999      43.387 131.877  16.538  1.00  0.00     0.017 A 
HETATM   10  C5  LIG X 999      43.105 131.947  15.175  1.00  0.00     0.002 A 
HETATM   11  C6  LIG X 999      44.022 131.467  14.243  1.00  0.00     0.012 A 
HETATM   12  C7  LIG X 999      45.223 130.886  14.669  1.00  0.00    -0.025 A 
HETATM   13  C8  LIG X 999      46.127 130.382  13.719  1.00  0.00     0.012 A 
HETATM   14  C12 LIG X 999      45.519 130.794  16.058  1.00  0.00    -0.011 A 
HETATM   15  C9  LIG X 999      47.309 129.768  14.130  1.00  0.00     0.001 A 
HETATM   16  C10 LIG X 999      47.594 129.639  15.488  1.00  0.00     0.001 A 
HETATM   17  C11 LIG X 999      46.709 130.137  16.447  1.00  0.00     0.013 A 
ENDBRANCH   5   8
BRANCH   7  18
HETATM   18  C13 LIG X 999      44.018 130.680  21.813  1.00  0.00     0.107 A 
HETATM   19  C14 LIG X 999      44.528 129.573  22.509  1.00  0.00     0.054 A 
HETATM   20  C15 LIG X 999      43.978 129.223  23.744  1.00  0.00     0.122 A 
HETATM   21  N4  LIG X 999      42.965 129.959  24.274  1.00  0.00    -0.230 NA
HETATM   22  C16 LIG X 999      42.462 131.047  23.631  1.00  0.00     0.251 A 
HETATM   23  F1  LIG X 999      41.456 131.755  24.196  1.00  0.00    -0.181 F 
HETATM   24  C17 LIG X 999      42.985 131.433  22.393  1.00  0.00     0.203 A 
HETATM   25  F2  LIG X 999      42.476 132.516  21.753  1.00  0.00    -0.199 F 
ENDBRANCH   7  18
TORSDOF 2
ENDMDL
MODEL 5
REMARK VINA RESULT:      -6.5      5.488      7.991
REMARK  2 active torsions:
REMARK  status: ('A' for Active; 'I' for Inactive)
REMARK    1  A    between atoms: C2_5  and  C3_6 
REMARK    2  A    between atoms: N3_17  and  C13_18 
ROOT
HETATM    1  H1  LIG X 999      44.538 131.513  24.108  1.00  0.00     0.190 HD
HETATM    2  N1  LIG X 999      44.578 130.601  24.613  1.00  0.00    -0.260 NA
HETATM    3  C1  LIG X 999      44.603 129.459  24.002  1.00  0.00     0.269 A 
HETATM    4  O1  LIG X 999      44.607 128.307  24.625  1.00  0.00    -0.255 OA
HETATM    5  C2  LIG X 999      44.575 127.401  23.669  1.00  0.00     0.203 A 
HETATM    6  N2  LIG X 999      44.566 127.978  22.446  1.00  0.00    -0.137 NA
HETATM    7  N3  LIG X 999      44.586 129.284  22.664  1.00  0.00    -0.189 N 
ENDROOT
BRANCH   5   8
HETATM    8  C3  LIG X 999      44.596 125.936  23.888  1.00  0.00     0.030 A 
HETATM    9  C4  LIG X 999      45.832 125.343  24.201  1.00  0.00     0.017 A 
HETATM   10  C5  LIG X 999      45.921 123.984  24.497  1.00  0.00     0.002 A 
HETATM   11  C6  LIG X 999      44.781 123.187  24.487  1.00  0.00     0.012 A 
HETATM   12  C7  LIG X 999      43.537 123.737  24.152  1.00  0.00    -0.025 A 
HETATM   13  C8  LIG X 999      42.399 122.915  24.120  1.00  0.00     0.012 A 
HETATM   14  C12 LIG X 999      43.431 125.120  23.832  1.00  0.00    -0.011 A 
HETATM   15  C9  LIG X 999      41.161 123.442  23.753  1.00  0.00     0.001 A 
HETATM   16  C10 LIG X 999      41.051 124.786  23.401  1.00  0.00     0.001 A 
HETATM   17  C11 LIG X 999      42.171 125.620  23.431  1.00  0.00     0.013 A 
ENDBRANCH   5   8
BRANCH   7  18
HETATM   18  C13 LIG X 999      44.619 130.267  21.617  1.00  0.00     0.107 A 
HETATM   19  C14 LIG X 999      45.719 130.353  20.751  1.00  0.00     0.054 A 
HETATM   20  C15 LIG X 999      45.712 131.296  19.721  1.00  0.00     0.122 A 
HETATM   21  N4  LIG X 999      44.640 132.115  19.552  1.00  0.00    -0.230 NA
HETATM   22  C16 LIG X 999      43.553 132.043  20.365  1.00  0.00     0.251 A 
HETATM   23  F1  LIG X 999      42.505 132.876  20.160  1.00  0.00    -0.181 F 
HETATM   24  C17 LIG X 999      43.518 131.112  21.408  1.00  0.00     0.203 A 
HETATM   25  F2  LIG X 999      42.432 131.047  22.220  1.00  0.00    -0.199 F 
ENDBRANCH   7  18
TORSDOF 2
ENDMDL
MODEL 6
REMARK VINA RESULT:      -6.2      1.705      2.475
REMARK  2 active torsions:
REMARK  status: ('A' for Active; 'I' for Inactive)
REMARK    1  A    between atoms: C2_5  and  C3_6 
REMARK    2  A    between atoms: N3_17  and  C13_18 
ROOT
HETATM    1  H1  LIG X 999      43.018 131.567  15.959  1.00  0.00     0.190 HD
HETATM    2  N1  LIG X 999      42.856 131.878  16.941  1.00  0.00    -0.260 NA
HETATM    3  C1  LIG X 999      43.730 131.719  17.883  1.00  0.00     0.269 A 
HETATM    4  O1  LIG X 999      43.520 132.063  19.129  1.00  0.00    -0.255 OA
HETATM    5  C2  LIG X 999      44.605 131.690  19.775  1.00  0.00     0.203 A 
HETATM    6  N2  LIG X 999      45.505 131.125  18.938  1.00  0.00    -0.137 NA
HETATM    7  N3  LIG X 999      44.945 131.149  17.739  1.00  0.00    -0.189 N 
ENDROOT
BRANCH   5   8
HETATM    8  C3  LIG X 999      44.846 131.899  21.222  1.00  0.00     0.030 A 
HETATM    9  C4  LIG X 999      45.875 132.785  21.588  1.00  0.00     0.017 A 
HETATM   10  C5  LIG X 999      46.113 133.095  22.926  1.00  0.00     0.002 A 
HETATM   11  C6  LIG X 999      45.331 132.529  23.928  1.00  0.00     0.012 A 
HETATM   12  C7  LIG X 999      44.315 131.621  23.603  1.00  0.00    -0.025 A 
HETATM   13  C8  LIG X 999      43.551 131.036  24.625  1.00  0.00     0.012 A 
HETATM   14  C12 LIG X 999      44.069 131.281  22.242  1.00  0.00    -0.011 A 
HETATM   15  C9  LIG X 999      42.562 130.103  24.318  1.00  0.00     0.001 A 
HETATM   16  C10 LIG X 999      42.336 129.734  22.993  1.00  0.00     0.001 A 
HETATM   17  C11 LIG X 999      43.083 130.308  21.962  1.00  0.00     0.013 A 
ENDBRANCH   5   8
BRANCH   7  18
HETATM   18  C13 LIG X 999      45.589 130.669  16.548  1.00  0.00     0.107 A 
HETATM   19  C14 LIG X 999      45.590 129.301  16.237  1.00  0.00     0.054 A 
HETATM   20  C15 LIG X 999      46.195 128.864  15.057  1.00  0.00     0.122 A 
HETATM   21  N4  LIG X 999      46.766 129.761  14.209  1.00  0.00    -0.230 NA
HETATM   22  C16 LIG X 999      46.765 131.094  14.475  1.00  0.00     0.251 A 
HETATM   23  F1  LIG X 999      47.342 131.953  13.602  1.00  0.00    -0.181 F 
HETATM   24  C17 LIG X 999      46.169 131.574  15.645  1.00  0.00     0.203 A 
HETATM   25  F2  LIG X 999      46.174 132.906  15.908  1.00  0.00    -0.199 F 
ENDBRANCH   7  18
TORSDOF 2
ENDMDL
MODEL 7
REMARK VINA RESULT:      -6.1      5.496      7.448
REMARK  2 active torsions:
REMARK  status: ('A' for Active; 'I' for Inactive)
REMARK    1  A    between atoms: C2_5  and  C3_6 
REMARK    2  A    between atoms: N3_17  and  C13_18 
ROOT
HETATM    1  H1  LIG X 999      44.002 131.957  24.032  1.00  0.00     0.190 HD
HETATM    2  N1  LIG X 999      43.449 131.247  24.559  1.00  0.00    -0.260 NA
HETATM    3  C1  LIG X 999      42.795 130.292  23.977  1.00  0.00     0.269 A 
HETATM    4  O1  LIG X 999      42.060 129.422  24.623  1.00  0.00    -0.255 OA
HETATM    5  C2  LIG X 999      41.523 128.666  23.688  1.00  0.00     0.203 A 
HETATM    6  N2  LIG X 999      41.929 129.048  22.455  1.00  0.00    -0.137 NA
HETATM    7  N3  LIG X 999      42.738 130.078  22.646  1.00  0.00    -0.189 N 
ENDROOT
BRANCH   5   8
HETATM    8  C3  LIG X 999      40.627 127.513  23.939  1.00  0.00     0.030 A 
HETATM    9  C4  LIG X 999      39.302 127.790  24.319  1.00  0.00     0.017 A 
HETATM   10  C5  LIG X 999      38.377 126.763  24.498  1.00  0.00     0.002 A 
HETATM   11  C6  LIG X 999      38.753 125.438  24.302  1.00  0.00     0.012 A 
HETATM   12  C7  LIG X 999      40.071 125.122  23.950  1.00  0.00    -0.025 A 
HETATM   13  C8  LIG X 999      40.444 123.779  23.781  1.00  0.00     0.012 A 
HETATM   14  C12 LIG X 999      41.032 126.158  23.779  1.00  0.00    -0.011 A 
HETATM   15  C9  LIG X 999      41.761 123.448  23.467  1.00  0.00     0.001 A 
HETATM   16  C10 LIG X 999      42.721 124.451  23.333  1.00  0.00     0.001 A 
HETATM   17  C11 LIG X 999      42.368 125.793  23.493  1.00  0.00     0.013 A 
ENDBRANCH   5   8
BRANCH   7  18
HETATM   18  C13 LIG X 999      43.418 130.765  21.583  1.00  0.00     0.107 A 
HETATM   19  C14 LIG X 999      42.793 131.819  20.898  1.00  0.00     0.054 A 
HETATM   20  C15 LIG X 999      43.488 132.493  19.891  1.00  0.00     0.122 A 
HETATM   21  N4  LIG X 999      44.764 132.137  19.587  1.00  0.00    -0.230 NA
HETATM   22  C16 LIG X 999      45.401 131.132  20.245  1.00  0.00     0.251 A 
HETATM   23  F1  LIG X 999      46.675 130.813  19.913  1.00  0.00    -0.181 F 
HETATM   24  C17 LIG X 999      44.743 130.433  21.261  1.00  0.00     0.203 A 
HETATM   25  F2  LIG X 999      45.381 129.427  21.912  1.00  0.00    -0.199 F 
ENDBRANCH   7  18
TORSDOF 2
ENDMDL
MODEL 8
REMARK VINA RESULT:      -5.9      2.632      4.084
REMARK  2 active torsions:
REMARK  status: ('A' for Active; 'I' for Inactive)
REMARK    1  A    between atoms: C2_5  and  C3_6 
REMARK    2  A    between atoms: N3_17  and  C13_18 
ROOT
HETATM    1  H1  LIG X 999      45.930 133.600  18.813  1.00  0.00     0.190 HD
HETATM    2  N1  LIG X 999      45.732 133.345  19.805  1.00  0.00    -0.260 NA
HETATM    3  C1  LIG X 999      45.188 132.221  20.147  1.00  0.00     0.269 A 
HETATM    4  O1  LIG X 999      44.893 131.909  21.384  1.00  0.00    -0.255 OA
HETATM    5  C2  LIG X 999      44.311 130.729  21.310  1.00  0.00     0.203 A 
HETATM    6  N2  LIG X 999      44.253 130.290  20.032  1.00  0.00    -0.137 NA
HETATM    7  N3  LIG X 999      44.813 131.240  19.300  1.00  0.00    -0.189 N 
ENDROOT
BRANCH   5   8
HETATM    8  C3  LIG X 999      43.823 129.949  22.471  1.00  0.00     0.030 A 
HETATM    9  C4  LIG X 999      42.833 130.536  23.278  1.00  0.00     0.017 A 
HETATM   10  C5  LIG X 999      42.266 129.836  24.342  1.00  0.00     0.002 A 
HETATM   11  C6  LIG X 999      42.675 128.536  24.624  1.00  0.00     0.012 A 
HETATM   12  C7  LIG X 999      43.679 127.929  23.859  1.00  0.00    -0.025 A 
HETATM   13  C8  LIG X 999      44.101 126.627  24.171  1.00  0.00     0.012 A 
HETATM   14  C12 LIG X 999      44.279 128.636  22.779  1.00  0.00    -0.011 A 
HETATM   15  C9  LIG X 999      45.125 126.025  23.441  1.00  0.00     0.001 A 
HETATM   16  C10 LIG X 999      45.746 126.720  22.404  1.00  0.00     0.001 A 
HETATM   17  C11 LIG X 999      45.337 128.015  22.077  1.00  0.00     0.013 A 
ENDBRANCH   5   8
BRANCH   7  18
HETATM   18  C13 LIG X 999      44.984 131.153  17.876  1.00  0.00     0.107 A 
HETATM   19  C14 LIG X 999      46.147 130.590  17.329  1.00  0.00     0.054 A 
HETATM   20  C15 LIG X 999      46.276 130.487  15.942  1.00  0.00     0.122 A 
HETATM   21  N4  LIG X 999      45.274 130.919  15.130  1.00  0.00    -0.230 NA
HETATM   22  C16 LIG X 999      44.130 131.454  15.631  1.00  0.00     0.251 A 
HETATM   23  F1  LIG X 999      43.155 131.868  14.787  1.00  0.00    -0.181 F 
HETATM   24  C17 LIG X 999      43.959 131.573  17.014  1.00  0.00     0.203 A 
HETATM   25  F2  LIG X 999      42.816 132.112  17.510  1.00  0.00    -0.199 F 
ENDBRANCH   7  18
TORSDOF 2
ENDMDL
MODEL 9
REMARK VINA RESULT:      -5.1      3.600      7.569
REMARK  2 active torsions:
REMARK  status: ('A' for Active; 'I' for Inactive)
REMARK    1  A    between atoms: C2_5  and  C3_6 
REMARK    2  A    between atoms: N3_17  and  C13_18 
ROOT
HETATM    1  H1  LIG X 999      41.371 132.971  21.009  1.00  0.00     0.190 HD
HETATM    2  N1  LIG X 999      41.657 132.868  20.011  1.00  0.00    -0.260 NA
HETATM    3  C1  LIG X 999      42.692 132.182  19.644  1.00  0.00     0.269 A 
HETATM    4  O1  LIG X 999      43.088 132.083  18.400  1.00  0.00    -0.255 OA
HETATM    5  C2  LIG X 999      44.190 131.362  18.447  1.00  0.00     0.203 A 
HETATM    6  N2  LIG X 999      44.481 130.994  19.716  1.00  0.00    -0.137 NA
HETATM    7  N3  LIG X 999      43.526 131.515  20.470  1.00  0.00    -0.189 N 
ENDROOT
BRANCH   5   8
HETATM    8  C3  LIG X 999      44.991 130.956  17.269  1.00  0.00     0.030 A 
HETATM    9  C4  LIG X 999      46.230 130.336  17.508  1.00  0.00     0.017 A 
HETATM   10  C5  LIG X 999      47.006 129.855  16.455  1.00  0.00     0.002 A 
HETATM   11  C6  LIG X 999      46.565 129.983  15.141  1.00  0.00     0.012 A 
HETATM   12  C7  LIG X 999      45.349 130.620  14.864  1.00  0.00    -0.025 A 
HETATM   13  C8  LIG X 999      44.928 130.767  13.532  1.00  0.00     0.012 A 
HETATM   14  C12 LIG X 999      44.551 131.131  15.926  1.00  0.00    -0.011 A 
HETATM   15  C9  LIG X 999      43.738 131.432  13.239  1.00  0.00     0.001 A 
HETATM   16  C10 LIG X 999      42.966 131.969  14.269  1.00  0.00     0.001 A 
HETATM   17  C11 LIG X 999      43.367 131.830  15.599  1.00  0.00     0.013 A 
ENDBRANCH   5   8
BRANCH   7  18
HETATM   18  C13 LIG X 999      43.442 131.331  21.892  1.00  0.00     0.107 A 
HETATM   19  C14 LIG X 999      42.556 132.100  22.662  1.00  0.00     0.054 A 
HETATM   20  C15 LIG X 999      42.469 131.879  24.038  1.00  0.00     0.122 A 
HETATM   21  N4  LIG X 999      43.231 130.917  24.624  1.00  0.00    -0.230 NA
HETATM   22  C16 LIG X 999      44.085 130.146  23.902  1.00  0.00     0.251 A 
HETATM   23  F1  LIG X 999      44.822 129.195  24.525  1.00  0.00    -0.181 F 
HETATM   24  C17 LIG X 999      44.201 130.332  22.521  1.00  0.00     0.203 A 
HETATM   25  F2  LIG X 999      45.060 129.562  21.805  1.00  0.00    -0.199 F 
ENDBRANCH   7  18
TORSDOF 2
ENDMDL
