REMARK VINA RESULT:      -5.4      7.519      9.246
REMARK  1 active torsions:
REMARK  status: ('A' for Active; 'I' for Inactive)
REMARK    1  A    between atoms: C10_11  and  N2_12 
ROOT
HETATM    1  N2  LIG X 999      45.957 126.104  22.402  1.00  0.00    -0.052 NA
HETATM    2  N3  LIG X 999      46.852 125.352  22.015  1.00  0.00    -0.160 NA
HETATM    3  N4  LIG X 999      47.746 124.602  21.628  1.00  0.00     0.068 N 
ENDROOT
BRANCH   1   4
HETATM    4  C10 LIG X 999      44.636 125.619  22.655  1.00  0.00     0.186 C 
HETATM    5  N1  LIG X 999      43.715 126.409  23.259  1.00  0.00    -0.226 NA
HETATM    6  C9  LIG X 999      42.456 125.978  23.534  1.00  0.00     0.071 C 
HETATM    7  C8  LIG X 999      41.555 126.879  24.097  1.00  0.00     0.033 C 
HETATM    8  C14 LIG X 999      42.063 124.643  23.230  1.00  0.00     0.010 C 
HETATM    9  C7  LIG X 999      40.255 126.490  24.388  1.00  0.00     0.014 C 
HETATM   10  C5  LIG X 999      39.864 125.158  24.223  1.00  0.00    -0.025 C 
HETATM   11  C4  LIG X 999      40.783 124.198  23.705  1.00  0.00    -0.013 C 
HETATM   12  C6  LIG X 999      38.577 124.768  24.625  1.00  0.00     0.012 C 
HETATM   13  C3  LIG X 999      40.410 122.836  23.789  1.00  0.00     0.013 C 
HETATM   14  C2  LIG X 999      39.131 122.460  24.206  1.00  0.00     0.001 C 
HETATM   15  C1  LIG X 999      38.207 123.426  24.596  1.00  0.00     0.001 C 
HETATM   16  C12 LIG X 999      42.972 123.869  22.438  1.00  0.00    -0.045 C 
HETATM   17  C11 LIG X 999      44.274 124.349  22.222  1.00  0.00     0.063 C 
HETATM   18  C13 LIG X 999      42.590 122.622  21.677  1.00  0.00     0.049 C 
ENDBRANCH   1   4
TORSDOF 1
