REMARK VINA RESULT:      -8.0      0.000      0.000
REMARK  3 active torsions:
REMARK  status: ('A' for Active; 'I' for Inactive)
REMARK    1  A    between atoms: C3_3  and  O1_4 
REMARK    2  A    between atoms: C3_3  and  C4_5 
REMARK    3  A    between atoms: C3_3  and  C14_15 
ROOT
HETATM    1  C1  LIG X 999      43.057 131.699  13.733  1.00  0.00     0.015 C 
HETATM    2  C2  LIG X 999      43.907 131.144  14.385  1.00  0.00    -0.073 C 
HETATM    3  C3  LIG X 999      44.953 130.457  15.187  1.00  0.00     0.154 C 
ENDROOT
BRANCH   3   4
HETATM    4  O1  LIG X 999      44.786 129.070  14.983  1.00  0.00    -0.372 OA
HETATM    5  H2  LIG X 999      44.437 128.668  15.824  1.00  0.00     0.212 HD
ENDBRANCH   3   4
BRANCH   3   6
HETATM    6  C4  LIG X 999      44.761 130.787  16.681  1.00  0.00    -0.010 A 
HETATM    7  C5  LIG X 999      45.721 130.412  17.647  1.00  0.00     0.012 A 
HETATM    8  C6  LIG X 999      45.527 130.690  19.002  1.00  0.00     0.013 A 
HETATM    9  C7  LIG X 999      44.364 131.340  19.429  1.00  0.00    -0.026 A 
HETATM   10  C8  LIG X 999      44.160 131.621  20.789  1.00  0.00     0.012 A 
HETATM   11  C12 LIG X 999      43.383 131.713  18.482  1.00  0.00    -0.025 A 
HETATM   12  C9  LIG X 999      42.992 132.266  21.205  1.00  0.00     0.001 A 
HETATM   13  C10 LIG X 999      42.021 132.631  20.270  1.00  0.00     0.001 A 
HETATM   14  C11 LIG X 999      42.213 132.357  18.912  1.00  0.00     0.012 A 
HETATM   15  C13 LIG X 999      43.585 131.432  17.123  1.00  0.00     0.023 A 
ENDBRANCH   3   6
BRANCH   3  16
HETATM   16  C14 LIG X 999      46.396 130.864  14.676  1.00  0.00    -0.004 C 
HETATM   17  C15 LIG X 999      46.448 130.874  13.129  1.00  0.00     0.019 C 
HETATM   18  C16 LIG X 999      46.757 132.292  15.163  1.00  0.00     0.019 C 
HETATM   19  C17 LIG X 999      47.490 129.894  15.186  1.00  0.00     0.019 C 
ENDBRANCH   3  16
TORSDOF 3
