MODEL 1
REMARK VINA RESULT:      -8.6      0.000      0.000
REMARK  1 active torsions:
REMARK  status: ('A' for Active; 'I' for Inactive)
REMARK    1  A    between atoms: C2_5  and  C3_6 
ROOT
HETATM    1  C3  LIG X 999      44.394 131.372  17.535  1.00  0.00     0.030 A 
HETATM    2  C4  LIG X 999      43.169 131.802  16.985  1.00  0.00     0.017 A 
HETATM    3  C5  LIG X 999      42.099 132.175  17.791  1.00  0.00     0.002 A 
HETATM    4  C6  LIG X 999      42.217 132.134  19.173  1.00  0.00     0.012 A 
HETATM    5  C7  LIG X 999      43.411 131.714  19.769  1.00  0.00    -0.025 A 
HETATM    6  C8  LIG X 999      43.498 131.684  21.170  1.00  0.00     0.012 A 
HETATM    7  C9  LIG X 999      44.671 131.273  21.795  1.00  0.00     0.001 A 
HETATM    8  C10 LIG X 999      45.767 130.889  21.031  1.00  0.00     0.001 A 
HETATM    9  C11 LIG X 999      45.702 130.913  19.635  1.00  0.00     0.013 A 
HETATM   10  C12 LIG X 999      44.525 131.325  18.964  1.00  0.00    -0.011 A 
ENDROOT
BRANCH   1  11
HETATM   11  C2  LIG X 999      45.456 131.002  16.547  1.00  0.00     0.203 A 
HETATM   12  O1  LIG X 999      45.753 131.744  15.496  1.00  0.00    -0.255 OA
HETATM   13  C1  LIG X 999      46.714 131.099  14.885  1.00  0.00     0.262 A 
HETATM   14  N1  LIG X 999      47.290 131.500  13.799  1.00  0.00    -0.260 NA
HETATM   15  N3  LIG X 999      47.028 129.968  15.527  1.00  0.00    -0.238 N 
HETATM   16  H1  LIG X 999      47.002 132.393  13.341  1.00  0.00     0.190 HD
HETATM   17  N2  LIG X 999      46.235 129.898  16.582  1.00  0.00    -0.145 NA
HETATM   18  H9  LIG X 999      47.752 129.261  15.268  1.00  0.00     0.193 HD
ENDBRANCH   1  11
TORSDOF 1
ENDMDL
MODEL 2
REMARK VINA RESULT:      -8.6      0.928      1.108
REMARK  1 active torsions:
REMARK  status: ('A' for Active; 'I' for Inactive)
REMARK    1  A    between atoms: C2_5  and  C3_6 
ROOT
HETATM    1  C3  LIG X 999      44.360 131.466  17.404  1.00  0.00     0.030 A 
HETATM    2  C4  LIG X 999      43.091 131.873  16.941  1.00  0.00     0.017 A 
HETATM    3  C5  LIG X 999      42.056 132.172  17.821  1.00  0.00     0.002 A 
HETATM    4  C6  LIG X 999      42.253 132.075  19.191  1.00  0.00     0.012 A 
HETATM    5  C7  LIG X 999      43.493 131.675  19.701  1.00  0.00    -0.025 A 
HETATM    6  C8  LIG X 999      43.659 131.589  21.093  1.00  0.00     0.012 A 
HETATM    7  C9  LIG X 999      44.879 131.196  21.633  1.00  0.00     0.001 A 
HETATM    8  C10 LIG X 999      45.944 130.886  20.793  1.00  0.00     0.001 A 
HETATM    9  C11 LIG X 999      45.799 130.967  19.406  1.00  0.00     0.013 A 
HETATM   10  C12 LIG X 999      44.572 131.363  18.819  1.00  0.00    -0.011 A 
ENDROOT
BRANCH   1  11
HETATM   11  C2  LIG X 999      45.376 131.178  16.343  1.00  0.00     0.203 A 
HETATM   12  O1  LIG X 999      45.802 129.960  16.064  1.00  0.00    -0.255 OA
HETATM   13  C1  LIG X 999      46.670 130.115  15.098  1.00  0.00     0.262 A 
HETATM   14  N1  LIG X 999      47.320 129.150  14.535  1.00  0.00    -0.260 NA
HETATM   15  N3  LIG X 999      46.801 131.404  14.762  1.00  0.00    -0.238 N 
HETATM   16  H1  LIG X 999      47.178 128.161  14.839  1.00  0.00     0.190 HD
HETATM   17  N2  LIG X 999      45.985 132.085  15.547  1.00  0.00    -0.145 NA
HETATM   18  H9  LIG X 999      47.419 131.818  14.029  1.00  0.00     0.193 HD
ENDBRANCH   1  11
TORSDOF 1
ENDMDL
MODEL 3
REMARK VINA RESULT:      -8.4      0.764      2.643
REMARK  1 active torsions:
REMARK  status: ('A' for Active; 'I' for Inactive)
REMARK    1  A    between atoms: C2_5  and  C3_6 
ROOT
HETATM    1  C3  LIG X 999      45.310 130.902  18.327  1.00  0.00     0.030 A 
HETATM    2  C4  LIG X 999      46.242 130.559  19.328  1.00  0.00     0.017 A 
HETATM    3  C5  LIG X 999      45.978 130.780  20.676  1.00  0.00     0.002 A 
HETATM    4  C6  LIG X 999      44.775 131.348  21.069  1.00  0.00     0.012 A 
HETATM    5  C7  LIG X 999      43.816 131.707  20.114  1.00  0.00    -0.025 A 
HETATM    6  C8  LIG X 999      42.609 132.280  20.545  1.00  0.00     0.012 A 
HETATM    7  C9  LIG X 999      41.634 132.647  19.622  1.00  0.00     0.001 A 
HETATM    8  C10 LIG X 999      41.854 132.446  18.263  1.00  0.00     0.001 A 
HETATM    9  C11 LIG X 999      43.048 131.877  17.814  1.00  0.00     0.013 A 
HETATM   10  C12 LIG X 999      44.063 131.491  18.724  1.00  0.00    -0.011 A 
ENDROOT
BRANCH   1  11
HETATM   11  C2  LIG X 999      45.731 130.607  16.920  1.00  0.00     0.203 A 
HETATM   12  O1  LIG X 999      46.173 131.534  16.091  1.00  0.00    -0.255 OA
HETATM   13  C1  LIG X 999      46.435 130.898  14.978  1.00  0.00     0.262 A 
HETATM   14  N1  LIG X 999      46.894 131.456  13.906  1.00  0.00    -0.260 NA
HETATM   15  N3  LIG X 999      46.165 129.592  15.087  1.00  0.00    -0.238 N 
HETATM   16  H1  LIG X 999      47.086 132.482  13.878  1.00  0.00     0.190 HD
HETATM   17  N2  LIG X 999      45.718 129.398  16.316  1.00  0.00    -0.145 NA
HETATM   18  H9  LIG X 999      46.277 128.849  14.362  1.00  0.00     0.193 HD
ENDBRANCH   1  11
TORSDOF 1
ENDMDL
MODEL 4
REMARK VINA RESULT:      -7.2      1.763      2.990
REMARK  1 active torsions:
REMARK  status: ('A' for Active; 'I' for Inactive)
REMARK    1  A    between atoms: C2_5  and  C3_6 
ROOT
HETATM    1  C3  LIG X 999      44.594 131.346  18.045  1.00  0.00     0.030 A 
HETATM    2  C4  LIG X 999      45.772 130.782  18.575  1.00  0.00     0.017 A 
HETATM    3  C5  LIG X 999      45.977 130.678  19.947  1.00  0.00     0.002 A 
HETATM    4  C6  LIG X 999      45.013 131.131  20.835  1.00  0.00     0.012 A 
HETATM    5  C7  LIG X 999      43.825 131.700  20.360  1.00  0.00    -0.025 A 
HETATM    6  C8  LIG X 999      42.869 132.149  21.285  1.00  0.00     0.012 A 
HETATM    7  C9  LIG X 999      41.677 132.718  20.846  1.00  0.00     0.001 A 
HETATM    8  C10 LIG X 999      41.428 132.844  19.484  1.00  0.00     0.001 A 
HETATM    9  C11 LIG X 999      42.366 132.403  18.547  1.00  0.00     0.013 A 
HETATM   10  C12 LIG X 999      43.590 131.819  18.956  1.00  0.00    -0.011 A 
ENDROOT
BRANCH   1  11
HETATM   11  C2  LIG X 999      44.511 131.393  16.551  1.00  0.00     0.203 A 
HETATM   12  O1  LIG X 999      43.407 131.709  15.900  1.00  0.00    -0.255 OA
HETATM   13  C1  LIG X 999      43.728 131.641  14.633  1.00  0.00     0.262 A 
HETATM   14  N1  LIG X 999      42.914 131.882  13.657  1.00  0.00    -0.260 NA
HETATM   15  N3  LIG X 999      45.008 131.289  14.472  1.00  0.00    -0.238 N 
HETATM   16  H1  LIG X 999      41.923 132.153  13.843  1.00  0.00     0.190 HD
HETATM   17  N2  LIG X 999      45.513 131.130  15.683  1.00  0.00    -0.145 NA
HETATM   18  H9  LIG X 999      45.532 131.158  13.578  1.00  0.00     0.193 HD
ENDBRANCH   1  11
TORSDOF 1
ENDMDL
MODEL 5
REMARK VINA RESULT:      -6.9      2.404      5.181
REMARK  1 active torsions:
REMARK  status: ('A' for Active; 'I' for Inactive)
REMARK    1  A    between atoms: C2_5  and  C3_6 
ROOT
HETATM    1  C3  LIG X 999      44.904 131.097  16.960  1.00  0.00     0.030 A 
HETATM    2  C4  LIG X 999      43.655 131.695  16.695  1.00  0.00     0.017 A 
HETATM    3  C5  LIG X 999      43.229 131.947  15.396  1.00  0.00     0.002 A 
HETATM    4  C6  LIG X 999      44.033 131.609  14.318  1.00  0.00     0.012 A 
HETATM    5  C7  LIG X 999      45.282 131.013  14.526  1.00  0.00    -0.025 A 
HETATM    6  C8  LIG X 999      46.072 130.682  13.413  1.00  0.00     0.012 A 
HETATM    7  C9  LIG X 999      47.318 130.087  13.586  1.00  0.00     0.001 A 
HETATM    8  C10 LIG X 999      47.788 129.816  14.866  1.00  0.00     0.001 A 
HETATM    9  C11 LIG X 999      47.016 130.137  15.987  1.00  0.00     0.013 A 
HETATM   10  C12 LIG X 999      45.744 130.743  15.851  1.00  0.00    -0.011 A 
ENDROOT
BRANCH   1  11
HETATM   11  C2  LIG X 999      45.230 130.887  18.406  1.00  0.00     0.203 A 
HETATM   12  O1  LIG X 999      44.719 131.624  19.375  1.00  0.00    -0.255 OA
HETATM   13  C1  LIG X 999      45.234 131.142  20.477  1.00  0.00     0.262 A 
HETATM   14  N1  LIG X 999      44.982 131.594  21.662  1.00  0.00    -0.260 NA
HETATM   15  N3  LIG X 999      46.059 130.120  20.224  1.00  0.00    -0.238 N 
HETATM   16  H1  LIG X 999      44.328 132.397  21.800  1.00  0.00     0.190 HD
HETATM   17  N2  LIG X 999      46.063 129.951  18.913  1.00  0.00    -0.145 NA
HETATM   18  H9  LIG X 999      46.606 129.549  20.907  1.00  0.00     0.193 HD
ENDBRANCH   1  11
TORSDOF 1
ENDMDL
MODEL 6
REMARK VINA RESULT:      -6.7      1.538      2.210
REMARK  1 active torsions:
REMARK  status: ('A' for Active; 'I' for Inactive)
REMARK    1  A    between atoms: C2_5  and  C3_6 
ROOT
HETATM    1  C3  LIG X 999      43.606 131.703  19.222  1.00  0.00     0.030 A 
HETATM    2  C4  LIG X 999      42.552 132.607  18.977  1.00  0.00     0.017 A 
HETATM    3  C5  LIG X 999      41.710 133.039  19.997  1.00  0.00     0.002 A 
HETATM    4  C6  LIG X 999      41.892 132.584  21.294  1.00  0.00     0.012 A 
HETATM    5  C7  LIG X 999      42.924 131.685  21.590  1.00  0.00    -0.025 A 
HETATM    6  C8  LIG X 999      43.082 131.244  22.914  1.00  0.00     0.012 A 
HETATM    7  C9  LIG X 999      44.098 130.352  23.243  1.00  0.00     0.001 A 
HETATM    8  C10 LIG X 999      44.964 129.892  22.257  1.00  0.00     0.001 A 
HETATM    9  C11 LIG X 999      44.825 130.320  20.934  1.00  0.00     0.013 A 
HETATM   10  C12 LIG X 999      43.802 131.227  20.562  1.00  0.00    -0.011 A 
ENDROOT
BRANCH   1  11
HETATM   11  C2  LIG X 999      44.430 131.328  18.030  1.00  0.00     0.203 A 
HETATM   12  O1  LIG X 999      45.490 130.545  18.104  1.00  0.00    -0.255 OA
HETATM   13  C1  LIG X 999      45.932 130.452  16.876  1.00  0.00     0.262 A 
HETATM   14  N1  LIG X 999      46.968 129.766  16.520  1.00  0.00    -0.260 NA
HETATM   15  N3  LIG X 999      45.175 131.160  16.030  1.00  0.00    -0.238 N 
HETATM   16  H1  LIG X 999      47.523 129.232  17.225  1.00  0.00     0.190 HD
HETATM   17  N2  LIG X 999      44.219 131.719  16.753  1.00  0.00    -0.145 NA
HETATM   18  H9  LIG X 999      45.291 131.268  14.998  1.00  0.00     0.193 HD
ENDBRANCH   1  11
TORSDOF 1
ENDMDL
MODEL 7
REMARK VINA RESULT:      -6.5      7.793      8.789
REMARK  1 active torsions:
REMARK  status: ('A' for Active; 'I' for Inactive)
REMARK    1  A    between atoms: C2_5  and  C3_6 
ROOT
HETATM    1  C3  LIG X 999      49.407 136.327  21.346  1.00  0.00     0.030 A 
HETATM    2  C4  LIG X 999      48.507 135.276  21.616  1.00  0.00     0.017 A 
HETATM    3  C5  LIG X 999      48.739 134.361  22.637  1.00  0.00     0.002 A 
HETATM    4  C6  LIG X 999      49.877 134.464  23.423  1.00  0.00     0.012 A 
HETATM    5  C7  LIG X 999      50.803 135.489  23.196  1.00  0.00    -0.025 A 
HETATM    6  C8  LIG X 999      51.944 135.566  24.010  1.00  0.00     0.012 A 
HETATM    7  C9  LIG X 999      52.884 136.573  23.813  1.00  0.00     0.001 A 
HETATM    8  C10 LIG X 999      52.695 137.511  22.803  1.00  0.00     0.001 A 
HETATM    9  C11 LIG X 999      51.565 137.452  21.983  1.00  0.00     0.013 A 
HETATM   10  C12 LIG X 999      50.588 136.442  22.154  1.00  0.00    -0.011 A 
ENDROOT
BRANCH   1  11
HETATM   11  C2  LIG X 999      49.027 137.235  20.218  1.00  0.00     0.203 A 
HETATM   12  O1  LIG X 999      49.686 137.278  19.074  1.00  0.00    -0.255 OA
HETATM   13  C1  LIG X 999      49.062 138.176  18.356  1.00  0.00     0.262 A 
HETATM   14  N1  LIG X 999      49.400 138.518  17.155  1.00  0.00    -0.260 NA
HETATM   15  N3  LIG X 999      48.027 138.701  19.021  1.00  0.00    -0.238 N 
HETATM   16  H1  LIG X 999      50.220 138.075  16.685  1.00  0.00     0.190 HD
HETATM   17  N2  LIG X 999      47.997 138.109  20.203  1.00  0.00    -0.145 NA
HETATM   18  H9  LIG X 999      47.357 139.433  18.697  1.00  0.00     0.193 HD
ENDBRANCH   1  11
TORSDOF 1
ENDMDL
MODEL 8
REMARK VINA RESULT:      -6.4      4.406      5.818
REMARK  1 active torsions:
REMARK  status: ('A' for Active; 'I' for Inactive)
REMARK    1  A    between atoms: C2_5  and  C3_6 
ROOT
HETATM    1  C3  LIG X 999      43.457 131.474  21.133  1.00  0.00     0.030 A 
HETATM    2  C4  LIG X 999      42.228 132.164  21.144  1.00  0.00     0.017 A 
HETATM    3  C5  LIG X 999      41.665 132.670  19.977  1.00  0.00     0.002 A 
HETATM    4  C6  LIG X 999      42.309 132.503  18.760  1.00  0.00     0.012 A 
HETATM    5  C7  LIG X 999      43.533 131.826  18.694  1.00  0.00    -0.025 A 
HETATM    6  C8  LIG X 999      44.159 131.673  17.447  1.00  0.00     0.012 A 
HETATM    7  C9  LIG X 999      45.375 131.004  17.346  1.00  0.00     0.001 A 
HETATM    8  C10 LIG X 999      45.976 130.481  18.486  1.00  0.00     0.001 A 
HETATM    9  C11 LIG X 999      45.369 130.622  19.737  1.00  0.00     0.013 A 
HETATM   10  C12 LIG X 999      44.132 131.296  19.878  1.00  0.00    -0.011 A 
ENDROOT
BRANCH   1  11
HETATM   11  C2  LIG X 999      43.941 130.986  22.463  1.00  0.00     0.203 A 
HETATM   12  O1  LIG X 999      44.134 129.709  22.735  1.00  0.00    -0.255 OA
HETATM   13  C1  LIG X 999      44.551 129.685  23.975  1.00  0.00     0.262 A 
HETATM   14  N1  LIG X 999      44.855 128.609  24.625  1.00  0.00    -0.260 NA
HETATM   15  N3  LIG X 999      44.623 130.917  24.491  1.00  0.00    -0.238 N 
HETATM   16  H1  LIG X 999      44.779 127.671  24.171  1.00  0.00     0.190 HD
HETATM   17  N2  LIG X 999      44.238 131.749  23.538  1.00  0.00    -0.145 NA
HETATM   18  H9  LIG X 999      44.921 131.197  25.451  1.00  0.00     0.193 HD
ENDBRANCH   1  11
TORSDOF 1
ENDMDL
MODEL 9
REMARK VINA RESULT:      -6.1      8.959     10.305
REMARK  1 active torsions:
REMARK  status: ('A' for Active; 'I' for Inactive)
REMARK    1  A    between atoms: C2_5  and  C3_6 
ROOT
HETATM    1  C3  LIG X 999      51.417 136.837  22.871  1.00  0.00     0.030 A 
HETATM    2  C4  LIG X 999      52.248 137.715  23.597  1.00  0.00     0.017 A 
HETATM    3  C5  LIG X 999      52.247 139.085  23.358  1.00  0.00     0.002 A 
HETATM    4  C6  LIG X 999      51.416 139.625  22.388  1.00  0.00     0.012 A 
HETATM    5  C7  LIG X 999      50.572 138.797  21.639  1.00  0.00    -0.025 A 
HETATM    6  C8  LIG X 999      49.742 139.376  20.665  1.00  0.00     0.012 A 
HETATM    7  C9  LIG X 999      48.890 138.582  19.904  1.00  0.00     0.001 A 
HETATM    8  C10 LIG X 999      48.857 137.206  20.106  1.00  0.00     0.001 A 
HETATM    9  C11 LIG X 999      49.673 136.611  21.072  1.00  0.00     0.013 A 
HETATM   10  C12 LIG X 999      50.554 137.387  21.865  1.00  0.00    -0.011 A 
ENDROOT
BRANCH   1  11
HETATM   11  C2  LIG X 999      51.524 135.389  23.236  1.00  0.00     0.203 A 
HETATM   12  O1  LIG X 999      50.514 134.691  23.721  1.00  0.00    -0.255 OA
HETATM   13  C1  LIG X 999      50.991 133.488  23.911  1.00  0.00     0.262 A 
HETATM   14  N1  LIG X 999      50.309 132.495  24.380  1.00  0.00    -0.260 NA
HETATM   15  N3  LIG X 999      52.280 133.413  23.558  1.00  0.00    -0.238 N 
HETATM   16  H1  LIG X 999      49.305 132.612  24.640  1.00  0.00     0.190 HD
HETATM   17  N2  LIG X 999      52.626 134.614  23.129  1.00  0.00    -0.145 NA
HETATM   18  H9  LIG X 999      52.911 132.583  23.602  1.00  0.00     0.193 HD
ENDBRANCH   1  11
TORSDOF 1
ENDMDL
