REMARK VINA RESULT:      -6.1      3.517      8.067
REMARK  2 active torsions:
REMARK  status: ('A' for Active; 'I' for Inactive)
REMARK    1  A    between atoms: C9_10  and  N2_11 
REMARK       I    between atoms: N2_11  and  C10_12 
REMARK    2  A    between atoms: C10_12  and  C11_14 
ROOT
HETATM    1  C11 LIG X 999      43.183 130.896  24.226  1.00  0.00     0.282 C 
HETATM    2 CL1  LIG X 999      42.407 132.448  24.625  1.00  0.00    -0.099 Cl
HETATM    3  C12 LIG X 999      42.232 129.802  24.450  1.00  0.00     0.089 C 
HETATM    4  N3  LIG X 999      41.482 128.939  24.625  1.00  0.00    -0.195 NA
ENDROOT
BRANCH   1   5
HETATM    5  C10 LIG X 999      43.634 130.903  22.799  1.00  0.00     0.276 C 
HETATM    6  N2  LIG X 999      42.993 131.771  21.853  1.00  0.00    -0.212 NA
HETATM    7  O1  LIG X 999      44.614 130.188  22.454  1.00  0.00    -0.268 OA
BRANCH   6   8
HETATM    8  C9  LIG X 999      43.125 131.725  20.426  1.00  0.00     0.061 A 
HETATM    9  C8  LIG X 999      42.066 132.081  19.569  1.00  0.00     0.032 A 
HETATM   10  C7  LIG X 999      42.233 132.046  18.182  1.00  0.00     0.014 A 
HETATM   11  C6  LIG X 999      43.463 131.669  17.628  1.00  0.00    -0.025 A 
HETATM   12  C5  LIG X 999      43.641 131.634  16.231  1.00  0.00     0.021 A 
HETATM   13  C14 LIG X 999      44.546 131.331  18.489  1.00  0.00    -0.023 A 
HETATM   14  C4  LIG X 999      44.886 131.255  15.726  1.00  0.00    -0.024 A 
HETATM   15  C3  LIG X 999      45.302 131.170  14.310  1.00  0.00     0.276 C 
HETATM   16  C16 LIG X 999      45.922 130.932  16.549  1.00  0.00    -0.024 A 
HETATM   17  N1  LIG X 999      46.685 130.593  14.329  1.00  0.00    -0.067 N 
HETATM   18  C1  LIG X 999      47.601 131.404  13.495  1.00  0.00     0.272 C 
HETATM   19  C2  LIG X 999      46.663 129.205  13.812  1.00  0.00     0.272 C 
HETATM   20  C17 LIG X 999      47.127 130.600  15.760  1.00  0.00     0.276 C 
HETATM   21  C15 LIG X 999      45.789 130.962  17.939  1.00  0.00     0.021 A 
HETATM   22  C13 LIG X 999      44.364 131.371  19.878  1.00  0.00     0.044 A 
ENDBRANCH   6   8
ENDBRANCH   1   5
TORSDOF 2
