REMARK VINA RESULT:      -5.6      1.785      6.206
REMARK  1 active torsions:
REMARK  status: ('A' for Active; 'I' for Inactive)
REMARK    1  A    between atoms: C3_3  and  N1_4 
ROOT
HETATM    1  N1  LIG X 999      45.474 129.405  22.311  1.00  0.00    -0.072 NA
HETATM    2  N2  LIG X 999      45.129 128.399  22.934  1.00  0.00    -0.162 NA
HETATM    3  N3  LIG X 999      44.788 127.392  23.553  1.00  0.00     0.068 N 
ENDROOT
BRANCH   1   4
HETATM    4  C3  LIG X 999      44.521 130.323  21.756  1.00  0.00     0.104 A 
HETATM    5  C2  LIG X 999      43.552 130.846  22.620  1.00  0.00     0.035 A 
HETATM    6  C1  LIG X 999      42.637 131.801  22.177  1.00  0.00     0.003 A 
HETATM    7  C10 LIG X 999      42.665 132.244  20.857  1.00  0.00     0.012 A 
HETATM    8  C9  LIG X 999      43.592 131.710  19.953  1.00  0.00    -0.023 A 
HETATM    9  C4  LIG X 999      44.527 130.719  20.391  1.00  0.00     0.006 A 
HETATM   10  C8  LIG X 999      43.588 132.138  18.611  1.00  0.00     0.021 A 
HETATM   11  C5  LIG X 999      45.396 130.137  19.435  1.00  0.00     0.024 A 
HETATM   12  C6  LIG X 999      45.351 130.584  18.115  1.00  0.00    -0.023 A 
HETATM   13  C7  LIG X 999      44.486 131.554  17.719  1.00  0.00    -0.024 A 
HETATM   14  C14 LIG X 999      46.176 130.127  16.976  1.00  0.00     0.276 C 
HETATM   15  C11 LIG X 999      44.651 131.845  16.279  1.00  0.00     0.276 C 
HETATM   16  N4  LIG X 999      45.628 130.829  15.771  1.00  0.00    -0.067 N 
HETATM   17  C12 LIG X 999      46.716 131.486  15.011  1.00  0.00     0.272 C 
HETATM   18  C13 LIG X 999      44.939 129.859  14.887  1.00  0.00     0.272 C 
ENDBRANCH   1   4
TORSDOF 1
