REMARK VINA RESULT:      -8.2      0.926      1.994
REMARK  2 active torsions:
REMARK  status: ('A' for Active; 'I' for Inactive)
REMARK    1  A    between atoms: C1_1  and  N1_2 
REMARK    2  A    between atoms: C2_5  and  C3_7 
ROOT
HETATM    1  N1  LIG X 999      45.986 131.340  14.248  1.00  0.00    -0.082 NA
HETATM    2  N2  LIG X 999      46.991 131.000  13.624  1.00  0.00    -0.163 NA
HETATM    3  N3  LIG X 999      47.995 130.661  12.999  1.00  0.00     0.068 N 
ENDROOT
BRANCH   1   4
HETATM    4  C1  LIG X 999      45.951 131.251  15.673  1.00  0.00     0.196 C 
HETATM    5  C2  LIG X 999      44.797 131.416  16.330  1.00  0.00     0.137 C 
HETATM    6  O1  LIG X 999      43.633 131.649  15.602  1.00  0.00    -0.190 OA
BRANCH   5   7
HETATM    7  C3  LIG X 999      44.710 131.337  17.812  1.00  0.00     0.003 A 
HETATM    8  C4  LIG X 999      45.753 130.725  18.528  1.00  0.00     0.015 A 
HETATM    9  C5  LIG X 999      45.701 130.623  19.921  1.00  0.00     0.013 A 
HETATM   10  C6  LIG X 999      44.598 131.125  20.624  1.00  0.00    -0.026 A 
HETATM   11  C7  LIG X 999      44.537 131.027  22.023  1.00  0.00     0.012 A 
HETATM   12  C11 LIG X 999      43.534 131.731  19.916  1.00  0.00    -0.025 A 
HETATM   13  C8  LIG X 999      43.428 131.526  22.713  1.00  0.00     0.001 A 
HETATM   14  C9  LIG X 999      42.375 132.122  22.014  1.00  0.00     0.001 A 
HETATM   15  C10 LIG X 999      42.425 132.225  20.622  1.00  0.00     0.012 A 
HETATM   16  C12 LIG X 999      43.594 131.830  18.517  1.00  0.00     0.026 A 
ENDBRANCH   5   7
ENDBRANCH   1   4
TORSDOF 2
