REMARK VINA RESULT:      -5.1      1.590      2.430
REMARK  4 active torsions:
REMARK  status: ('A' for Active; 'I' for Inactive)
REMARK    1  A    between atoms: C1_2  and  C2_4 
REMARK    2  A    between atoms: C8_10  and  C9_11 
REMARK       I    between atoms: C9_11  and  N1_13 
REMARK    3  A    between atoms: N1_13  and  S1_14 
REMARK    4  A    between atoms: S1_14  and  C10_17 
ROOT
HETATM    1  C9  LIG X 999      44.880 127.936  23.131  1.00  0.00     0.259 C 
HETATM    2  O3  LIG X 999      44.419 127.649  21.993  1.00  0.00    -0.270 OA
HETATM    3  N1  LIG X 999      44.645 129.229  23.692  1.00  0.00    -0.122 NA
ENDROOT
BRANCH   3   4
HETATM    4  S1  LIG X 999      43.757 130.454  22.853  1.00  0.00     0.286 S 
HETATM    5  O4  LIG X 999      42.304 130.071  22.828  1.00  0.00    -0.198 OA
HETATM    6  O5  LIG X 999      43.909 131.762  23.578  1.00  0.00    -0.198 OA
BRANCH   4   7
HETATM    7  C10 LIG X 999      44.380 130.629  21.216  1.00  0.00     0.082 A 
HETATM    8  C11 LIG X 999      45.706 130.274  20.934  1.00  0.00     0.026 A 
HETATM    9  C12 LIG X 999      46.211 130.401  19.637  1.00  0.00     0.014 A 
HETATM   10  C13 LIG X 999      45.395 130.889  18.606  1.00  0.00    -0.026 A 
HETATM   11  C14 LIG X 999      45.892 131.021  17.300  1.00  0.00     0.012 A 
HETATM   12  C18 LIG X 999      44.056 131.255  18.888  1.00  0.00    -0.025 A 
HETATM   13  C15 LIG X 999      45.069 131.514  16.284  1.00  0.00     0.001 A 
HETATM   14  C16 LIG X 999      43.748 131.878  16.562  1.00  0.00     0.001 A 
HETATM   15  C17 LIG X 999      43.240 131.749  17.857  1.00  0.00     0.012 A 
HETATM   16  C19 LIG X 999      43.558 131.123  20.194  1.00  0.00     0.037 A 
ENDBRANCH   4   7
ENDBRANCH   3   4
BRANCH   1  17
HETATM   17  C8  LIG X 999      45.641 126.909  23.942  1.00  0.00     0.099 C 
HETATM   18  C2  LIG X 999      44.789 125.709  24.455  1.00  0.00     0.104 C 
HETATM   19  C3  LIG X 999      45.543 124.490  23.863  1.00  0.00     0.001 C 
HETATM   20  C4  LIG X 999      46.872 124.319  24.625  1.00  0.00     0.006 C 
HETATM   21  C7  LIG X 999      46.035 125.017  22.533  1.00  0.00     0.011 C 
HETATM   22  C5  LIG X 999      47.712 125.505  24.118  1.00  0.00     0.006 C 
HETATM   23  C6  LIG X 999      46.758 126.204  23.130  1.00  0.00    -0.000 C 
BRANCH  18  24
HETATM   24  C1  LIG X 999      43.327 125.740  24.062  1.00  0.00     0.178 C 
HETATM   25  O1  LIG X 999      42.880 124.872  23.269  1.00  0.00    -0.648 OA
HETATM   26  O2  LIG X 999      42.459 126.684  24.598  1.00  0.00    -0.648 OA
ENDBRANCH  18  24
ENDBRANCH   1  17
TORSDOF 4
