REMARK VINA RESULT:      -4.7      7.731      9.680
REMARK  4 active torsions:
REMARK  status: ('A' for Active; 'I' for Inactive)
REMARK    1  A    between atoms: C3_4  and  O1_5 
REMARK    2  A    between atoms: C3_4  and  O2_6 
REMARK    3  A    between atoms: O2_6  and  C4_7 
REMARK    4  A    between atoms: C7_10  and  N2_11 
ROOT
HETATM    1  C4  LIG X 999      42.383 125.894  23.609  1.00  0.00     0.091 A 
HETATM    2  C5  LIG X 999      43.432 125.536  22.751  1.00  0.00     0.040 A 
HETATM    3  C6  LIG X 999      43.346 124.391  21.965  1.00  0.00     0.033 A 
HETATM    4  C7  LIG X 999      42.221 123.559  22.019  1.00  0.00     0.037 A 
HETATM    5  C8  LIG X 999      41.143 123.900  22.882  1.00  0.00     0.003 A 
HETATM    6  C9  LIG X 999      39.966 123.123  22.960  1.00  0.00     0.014 A 
HETATM    7  C10 LIG X 999      38.931 123.480  23.827  1.00  0.00     0.001 A 
HETATM    8  C11 LIG X 999      39.043 124.615  24.625  1.00  0.00     0.001 A 
HETATM    9  C12 LIG X 999      40.186 125.409  24.557  1.00  0.00     0.015 A 
HETATM   10  C13 LIG X 999      41.242 125.071  23.690  1.00  0.00     0.010 A 
ENDROOT
BRANCH   1  11
HETATM   11  O2  LIG X 999      42.471 127.038  24.419  1.00  0.00    -0.273 OA
BRANCH  11  12
HETATM   12  C3  LIG X 999      42.292 128.358  23.977  1.00  0.00     0.265 C 
HETATM   13  N1  LIG X 999      43.306 129.193  24.009  1.00  0.00    -0.350 N 
HETATM   14  C1  LIG X 999      44.614 128.720  24.487  1.00  0.00     0.153 C 
HETATM   15  C2  LIG X 999      43.163 130.589  23.574  1.00  0.00     0.153 C 
BRANCH  12  16
HETATM   16  O1  LIG X 999      41.020 128.762  23.551  1.00  0.00    -0.327 OA
HETATM   17  H7  LIG X 999      40.181 128.678  24.109  1.00  0.00     0.221 HD
ENDBRANCH  12  16
ENDBRANCH  11  12
ENDBRANCH   1  11
BRANCH   4  18
HETATM   18  N2  LIG X 999      42.218 122.375  21.204  1.00  0.00    -0.398 N 
HETATM   19  H10 LIG X 999      41.773 121.480  21.492  1.00  0.00     0.156 HD
HETATM   20  H11 LIG X 999      42.761 122.353  20.312  1.00  0.00     0.156 HD
ENDBRANCH   4  18
TORSDOF 4
