REMARK VINA RESULT:      -6.1      5.860      7.596
REMARK  4 active torsions:
REMARK  status: ('A' for Active; 'I' for Inactive)
REMARK    1  A    between atoms: C3_3  and  C4_4 
REMARK    2  A    between atoms: C4_4  and  C5_5 
REMARK    3  A    between atoms: C5_5  and  N1_6 
REMARK    4  A    between atoms: N4_15  and  C12_16 
ROOT
HETATM    1  C12 LIG X 999      47.247 125.088  22.746  1.00  0.00     0.055 A 
HETATM    2  C13 LIG X 999      48.433 125.566  23.326  1.00  0.00     0.032 A 
HETATM    3  C14 LIG X 999      49.670 125.300  22.735  1.00  0.00     0.014 A 
HETATM    4  C15 LIG X 999      49.739 124.561  21.545  1.00  0.00    -0.024 A 
HETATM    5  C16 LIG X 999      50.978 124.287  20.943  1.00  0.00     0.034 A 
HETATM    6  C17 LIG X 999      51.033 123.554  19.751  1.00  0.00     0.045 A 
HETATM    7  C18 LIG X 999      52.306 123.274  19.137  1.00  0.00     0.099 C 
HETATM    8  N5  LIG X 999      53.328 123.050  18.643  1.00  0.00    -0.191 NA
HETATM    9  C19 LIG X 999      49.853 123.093  19.156  1.00  0.00     0.023 A 
HETATM   10  C20 LIG X 999      48.615 123.361  19.747  1.00  0.00     0.014 A 
HETATM   11  C21 LIG X 999      48.547 124.093  20.941  1.00  0.00    -0.024 A 
HETATM   12  C22 LIG X 999      47.310 124.367  21.544  1.00  0.00     0.043 A 
ENDROOT
BRANCH   1  13
HETATM   13  N4  LIG X 999      45.970 125.376  23.338  1.00  0.00    -0.241 N 
HETATM   14  C2  LIG X 999      45.122 126.390  23.062  1.00  0.00     0.055 A 
HETATM   15  C1  LIG X 999      45.349 127.488  22.065  1.00  0.00     0.072 C 
HETATM   16  C3  LIG X 999      44.019 126.208  23.877  1.00  0.00     0.078 A 
HETATM   17  N2  LIG X 999      44.230 125.104  24.622  1.00  0.00    -0.162 NA
HETATM   18  N3  LIG X 999      45.420 124.628  24.283  1.00  0.00     0.010 NA
BRANCH  16  19
HETATM   19  C4  LIG X 999      42.733 126.985  23.888  1.00  0.00     0.093 C 
BRANCH  19  20
HETATM   20  C5  LIG X 999      41.635 126.211  24.625  1.00  0.00     0.279 C 
BRANCH  20  21
HETATM   21  N1  LIG X 999      40.723 125.563  23.657  1.00  0.00     0.093 N 
HETATM   22  C6  LIG X 999      39.334 126.047  23.770  1.00  0.00     0.273 C 
HETATM   23  C7  LIG X 999      38.441 124.856  24.074  1.00  0.00     0.036 C 
HETATM   24  C8  LIG X 999      39.241 123.663  23.594  1.00  0.00     0.016 C 
HETATM   25  C9  LIG X 999      38.874 122.376  24.342  1.00  0.00     0.012 C 
HETATM   26  C10 LIG X 999      40.691 124.099  23.814  1.00  0.00     0.222 C 
HETATM   27  C11 LIG X 999      41.641 123.452  22.801  1.00  0.00     0.043 C 
ENDBRANCH  20  21
ENDBRANCH  19  20
ENDBRANCH  16  19
ENDBRANCH   1  13
TORSDOF 4
