REMARK VINA RESULT:      -4.8      4.725      7.413
REMARK  5 active torsions:
REMARK  status: ('A' for Active; 'I' for Inactive)
REMARK    1  A    between atoms: O1_2  and  C1_3 
REMARK    2  A    between atoms: C1_3  and  O4_19 
REMARK       I    between atoms: N1_4  and  C2_5 
REMARK    3  A    between atoms: C2_5  and  C3_7 
REMARK    4  A    between atoms: C4_8  and  O3_9 
REMARK    5  A    between atoms: O4_19  and  C13_20 
ROOT
HETATM    1  C3  LIG X 999      44.073 131.363  17.787  1.00  0.00     0.068 A 
HETATM    2  C4  LIG X 999      45.227 130.669  18.204  1.00  0.00     0.082 A 
HETATM    3  C5  LIG X 999      45.510 130.538  19.572  1.00  0.00     0.049 A 
HETATM    4  C6  LIG X 999      44.640 131.074  20.532  1.00  0.00    -0.023 A 
HETATM    5  C7  LIG X 999      44.919 130.942  21.902  1.00  0.00     0.012 A 
HETATM    6  C8  LIG X 999      44.042 131.477  22.850  1.00  0.00     0.001 A 
HETATM    7  C9  LIG X 999      42.884 132.144  22.440  1.00  0.00     0.001 A 
HETATM    8  C10 LIG X 999      42.596 132.280  21.079  1.00  0.00     0.012 A 
HETATM    9  C11 LIG X 999      43.469 131.749  20.117  1.00  0.00    -0.025 A 
HETATM   10  C12 LIG X 999      43.192 131.883  18.749  1.00  0.00     0.032 A 
ENDROOT
BRANCH   1  11
HETATM   11  C2  LIG X 999      43.753 131.524  16.348  1.00  0.00     0.283 C 
HETATM   12  N1  LIG X 999      44.766 131.530  15.332  1.00  0.00    -0.162 NA
HETATM   13  C1  LIG X 999      45.958 132.038  15.450  1.00  0.00     0.289 C 
HETATM   14  O2  LIG X 999      42.547 131.624  15.998  1.00  0.00    -0.265 OA
BRANCH  13  15
HETATM   15  O1  LIG X 999      46.327 132.718  16.608  1.00  0.00    -0.325 OA
HETATM   16  H1  LIG X 999      46.859 132.251  17.333  1.00  0.00     0.221 HD
ENDBRANCH  13  15
BRANCH  13  17
HETATM   17  O4  LIG X 999      46.888 131.937  14.405  1.00  0.00    -0.294 OA
BRANCH  17  18
HETATM   18  C13 LIG X 999      46.999 130.837  13.495  1.00  0.00     0.224 C 
HETATM   19 CL1  LIG X 999      47.553 129.357  14.328  1.00  0.00    -0.095 Cl
HETATM   20  C14 LIG X 999      47.909 131.178  12.316  1.00  0.00     0.057 C 
ENDBRANCH  17  18
ENDBRANCH  13  17
ENDBRANCH   1  11
BRANCH   2  21
HETATM   21  O3  LIG X 999      46.083 130.094  17.264  1.00  0.00    -0.360 OA
HETATM   22  H2  LIG X 999      46.723 130.654  16.714  1.00  0.00     0.217 HD
ENDBRANCH   2  21
TORSDOF 5
