MODEL 1
REMARK VINA RESULT:      -8.3      0.000      0.000
REMARK  3 active torsions:
REMARK  status: ('A' for Active; 'I' for Inactive)
REMARK    1  A    between atoms: C2_2  and  C3_3 
REMARK       I    between atoms: C3_3  and  N1_5 
REMARK    2  A    between atoms: N1_5  and  C4_6 
REMARK    3  A    between atoms: C4_6  and  C6_8 
ROOT
HETATM    1  C6  LIG X 999      43.991 131.640  19.153  1.00  0.00    -0.035 A 
HETATM    2  C7  LIG X 999      45.197 130.966  19.417  1.00  0.00     0.010 A 
HETATM    3  C8  LIG X 999      45.990 130.492  18.370  1.00  0.00     0.013 A 
HETATM    4  C9  LIG X 999      45.588 130.678  17.040  1.00  0.00    -0.026 A 
HETATM    5  C10 LIG X 999      46.379 130.206  15.981  1.00  0.00     0.012 A 
HETATM    6  C11 LIG X 999      45.965 130.395  14.659  1.00  0.00     0.001 A 
HETATM    7  C12 LIG X 999      44.765 131.054  14.385  1.00  0.00     0.001 A 
HETATM    8  C13 LIG X 999      43.969 131.529  15.431  1.00  0.00     0.012 A 
HETATM    9  C14 LIG X 999      44.371 131.346  16.763  1.00  0.00    -0.025 A 
HETATM   10  C15 LIG X 999      43.580 131.819  17.821  1.00  0.00     0.021 A 
ENDROOT
BRANCH   1  11
HETATM   11  C4  LIG X 999      43.123 132.140  20.289  1.00  0.00     0.113 C 
HETATM   12  C5  LIG X 999      41.879 132.841  19.735  1.00  0.00     0.037 C 
BRANCH  11  13
HETATM   13  N1  LIG X 999      42.742 131.030  21.170  1.00  0.00    -0.353 N 
HETATM   14  C3  LIG X 999      43.331 130.851  22.466  1.00  0.00     0.217 C 
HETATM   15  O1  LIG X 999      44.174 131.681  22.903  1.00  0.00    -0.274 OA
HETATM   16  H6  LIG X 999      42.019 130.345  20.853  1.00  0.00     0.163 HD
BRANCH  14  17
HETATM   17  C2  LIG X 999      42.914 129.698  23.327  1.00  0.00     0.098 C 
HETATM   18  C1  LIG X 999      44.048 128.688  23.458  1.00  0.00     0.014 C 
ENDBRANCH  14  17
ENDBRANCH  11  13
ENDBRANCH   1  11
TORSDOF 3
ENDMDL
MODEL 2
REMARK VINA RESULT:      -8.2      1.796      3.312
REMARK  3 active torsions:
REMARK  status: ('A' for Active; 'I' for Inactive)
REMARK    1  A    between atoms: C2_2  and  C3_3 
REMARK       I    between atoms: C3_3  and  N1_5 
REMARK    2  A    between atoms: N1_5  and  C4_6 
REMARK    3  A    between atoms: C4_6  and  C6_8 
ROOT
HETATM    1  C6  LIG X 999      45.534 130.865  17.666  1.00  0.00    -0.035 A 
HETATM    2  C7  LIG X 999      45.221 132.071  17.015  1.00  0.00     0.010 A 
HETATM    3  C8  LIG X 999      45.654 132.307  15.709  1.00  0.00     0.013 A 
HETATM    4  C9  LIG X 999      46.414 131.343  15.032  1.00  0.00    -0.026 A 
HETATM    5  C10 LIG X 999      46.853 131.571  13.718  1.00  0.00     0.012 A 
HETATM    6  C11 LIG X 999      47.613 130.603  13.055  1.00  0.00     0.001 A 
HETATM    7  C12 LIG X 999      47.940 129.405  13.695  1.00  0.00     0.001 A 
HETATM    8  C13 LIG X 999      47.508 129.166  15.003  1.00  0.00     0.012 A 
HETATM    9  C14 LIG X 999      46.744 130.129  15.681  1.00  0.00    -0.025 A 
HETATM   10  C15 LIG X 999      46.306 129.901  16.994  1.00  0.00     0.021 A 
ENDROOT
BRANCH   1  11
HETATM   11  C4  LIG X 999      45.078 130.615  19.088  1.00  0.00     0.113 C 
HETATM   12  C5  LIG X 999      46.266 130.720  20.050  1.00  0.00     0.037 C 
BRANCH  11  13
HETATM   13  N1  LIG X 999      44.025 131.565  19.463  1.00  0.00    -0.353 N 
HETATM   14  C3  LIG X 999      43.345 131.487  20.724  1.00  0.00     0.217 C 
HETATM   15  O1  LIG X 999      43.670 130.611  21.571  1.00  0.00    -0.274 OA
HETATM   16  H6  LIG X 999      43.755 132.326  18.798  1.00  0.00     0.163 HD
BRANCH  14  17
HETATM   17  C2  LIG X 999      42.269 132.476  21.060  1.00  0.00     0.098 C 
HETATM   18  C1  LIG X 999      41.659 133.056  19.790  1.00  0.00     0.014 C 
ENDBRANCH  14  17
ENDBRANCH  11  13
ENDBRANCH   1  11
TORSDOF 3
ENDMDL
MODEL 3
REMARK VINA RESULT:      -8.1      1.675      2.519
REMARK  3 active torsions:
REMARK  status: ('A' for Active; 'I' for Inactive)
REMARK    1  A    between atoms: C2_2  and  C3_3 
REMARK       I    between atoms: C3_3  and  N1_5 
REMARK    2  A    between atoms: N1_5  and  C4_6 
REMARK    3  A    between atoms: C4_6  and  C6_8 
ROOT
HETATM    1  C6  LIG X 999      45.187 131.265  17.207  1.00  0.00    -0.035 A 
HETATM    2  C7  LIG X 999      45.582 129.936  17.439  1.00  0.00     0.010 A 
HETATM    3  C8  LIG X 999      46.394 129.265  16.522  1.00  0.00     0.013 A 
HETATM    4  C9  LIG X 999      46.821 129.911  15.354  1.00  0.00    -0.026 A 
HETATM    5  C10 LIG X 999      47.639 129.245  14.426  1.00  0.00     0.012 A 
HETATM    6  C11 LIG X 999      48.056 129.899  13.263  1.00  0.00     0.001 A 
HETATM    7  C12 LIG X 999      47.661 131.217  13.017  1.00  0.00     0.001 A 
HETATM    8  C13 LIG X 999      46.847 131.890  13.933  1.00  0.00     0.012 A 
HETATM    9  C14 LIG X 999      46.422 131.246  15.105  1.00  0.00    -0.025 A 
HETATM   10  C15 LIG X 999      45.605 131.912  16.031  1.00  0.00     0.021 A 
ENDROOT
BRANCH   1  11
HETATM   11  C4  LIG X 999      44.293 131.987  18.193  1.00  0.00     0.113 C 
HETATM   12  C5  LIG X 999      42.822 131.797  17.811  1.00  0.00     0.037 C 
BRANCH  11  13
HETATM   13  N1  LIG X 999      44.538 131.503  19.557  1.00  0.00    -0.353 N 
HETATM   14  C3  LIG X 999      43.662 131.826  20.647  1.00  0.00     0.217 C 
HETATM   15  O1  LIG X 999      42.622 132.510  20.447  1.00  0.00    -0.274 OA
HETATM   16  H6  LIG X 999      45.373 130.904  19.750  1.00  0.00     0.163 HD
BRANCH  14  17
HETATM   17  C2  LIG X 999      43.958 131.315  22.024  1.00  0.00     0.098 C 
HETATM   18  C1  LIG X 999      44.665 129.966  21.956  1.00  0.00     0.014 C 
ENDBRANCH  14  17
ENDBRANCH  11  13
ENDBRANCH   1  11
TORSDOF 3
ENDMDL
MODEL 4
REMARK VINA RESULT:      -8.1      3.243      6.459
REMARK  3 active torsions:
REMARK  status: ('A' for Active; 'I' for Inactive)
REMARK    1  A    between atoms: C2_2  and  C3_3 
REMARK       I    between atoms: C3_3  and  N1_5 
REMARK    2  A    between atoms: N1_5  and  C4_6 
REMARK    3  A    between atoms: C4_6  and  C6_8 
ROOT
HETATM    1  C6  LIG X 999      44.404 131.125  16.316  1.00  0.00    -0.035 A 
HETATM    2  C7  LIG X 999      45.595 130.788  16.983  1.00  0.00     0.010 A 
HETATM    3  C8  LIG X 999      45.695 130.916  18.369  1.00  0.00     0.013 A 
HETATM    4  C9  LIG X 999      44.606 131.390  19.114  1.00  0.00    -0.026 A 
HETATM    5  C10 LIG X 999      44.696 131.521  20.509  1.00  0.00     0.012 A 
HETATM    6  C11 LIG X 999      43.604 131.998  21.240  1.00  0.00     0.001 A 
HETATM    7  C12 LIG X 999      42.419 132.346  20.588  1.00  0.00     0.001 A 
HETATM    8  C13 LIG X 999      42.316 132.219  19.200  1.00  0.00     0.012 A 
HETATM    9  C14 LIG X 999      43.405 131.742  18.453  1.00  0.00    -0.025 A 
HETATM   10  C15 LIG X 999      43.314 131.611  17.059  1.00  0.00     0.021 A 
ENDROOT
BRANCH   1  11
HETATM   11  C4  LIG X 999      44.301 131.001  14.810  1.00  0.00     0.113 C 
HETATM   12  C5  LIG X 999      43.188 131.910  14.279  1.00  0.00     0.037 C 
BRANCH  11  13
HETATM   13  N1  LIG X 999      45.584 131.333  14.180  1.00  0.00    -0.353 N 
HETATM   14  C3  LIG X 999      46.611 130.351  13.984  1.00  0.00     0.217 C 
HETATM   15  O1  LIG X 999      46.417 129.150  14.318  1.00  0.00    -0.274 OA
HETATM   16  H6  LIG X 999      45.763 132.312  13.859  1.00  0.00     0.163 HD
BRANCH  14  17
HETATM   17  C2  LIG X 999      47.909 130.739  13.342  1.00  0.00     0.098 C 
HETATM   18  C1  LIG X 999      48.830 129.531  13.220  1.00  0.00     0.014 C 
ENDBRANCH  14  17
ENDBRANCH  11  13
ENDBRANCH   1  11
TORSDOF 3
ENDMDL
MODEL 5
REMARK VINA RESULT:      -7.8      1.142      2.345
REMARK  3 active torsions:
REMARK  status: ('A' for Active; 'I' for Inactive)
REMARK    1  A    between atoms: C2_2  and  C3_3 
REMARK       I    between atoms: C3_3  and  N1_5 
REMARK    2  A    between atoms: N1_5  and  C4_6 
REMARK    3  A    between atoms: C4_6  and  C6_8 
ROOT
HETATM    1  C6  LIG X 999      44.982 131.099  19.184  1.00  0.00    -0.035 A 
HETATM    2  C7  LIG X 999      43.769 131.690  18.787  1.00  0.00     0.010 A 
HETATM    3  C8  LIG X 999      43.447 131.812  17.434  1.00  0.00     0.013 A 
HETATM    4  C9  LIG X 999      44.335 131.351  16.453  1.00  0.00    -0.026 A 
HETATM    5  C10 LIG X 999      44.020 131.469  15.090  1.00  0.00     0.012 A 
HETATM    6  C11 LIG X 999      44.916 131.008  14.121  1.00  0.00     0.001 A 
HETATM    7  C12 LIG X 999      46.129 130.429  14.503  1.00  0.00     0.001 A 
HETATM    8  C13 LIG X 999      46.454 130.306  15.856  1.00  0.00     0.012 A 
HETATM    9  C14 LIG X 999      45.564 130.764  16.840  1.00  0.00    -0.025 A 
HETATM   10  C15 LIG X 999      45.880 130.646  18.202  1.00  0.00     0.021 A 
ENDROOT
BRANCH   1  11
HETATM   11  C4  LIG X 999      45.339 130.982  20.651  1.00  0.00     0.113 C 
HETATM   12  C5  LIG X 999      46.326 132.084  21.046  1.00  0.00     0.037 C 
BRANCH  11  13
HETATM   13  N1  LIG X 999      44.130 131.050  21.479  1.00  0.00    -0.353 N 
HETATM   14  C3  LIG X 999      43.878 130.111  22.535  1.00  0.00     0.217 C 
HETATM   15  O1  LIG X 999      44.723 129.215  22.806  1.00  0.00    -0.274 OA
HETATM   16  H6  LIG X 999      43.426 131.802  21.304  1.00  0.00     0.163 HD
BRANCH  14  17
HETATM   17  C2  LIG X 999      42.625 130.216  23.350  1.00  0.00     0.098 C 
HETATM   18  C1  LIG X 999      42.476 131.619  23.927  1.00  0.00     0.014 C 
ENDBRANCH  14  17
ENDBRANCH  11  13
ENDBRANCH   1  11
TORSDOF 3
ENDMDL
MODEL 6
REMARK VINA RESULT:      -7.4      3.153      6.451
REMARK  3 active torsions:
REMARK  status: ('A' for Active; 'I' for Inactive)
REMARK    1  A    between atoms: C2_2  and  C3_3 
REMARK       I    between atoms: C3_3  and  N1_5 
REMARK    2  A    between atoms: N1_5  and  C4_6 
REMARK    3  A    between atoms: C4_6  and  C6_8 
ROOT
HETATM    1  C6  LIG X 999      44.026 131.226  16.419  1.00  0.00    -0.035 A 
HETATM    2  C7  LIG X 999      42.855 131.790  16.956  1.00  0.00     0.010 A 
HETATM    3  C8  LIG X 999      42.747 132.029  18.328  1.00  0.00     0.013 A 
HETATM    4  C9  LIG X 999      43.805 131.703  19.187  1.00  0.00    -0.026 A 
HETATM    5  C10 LIG X 999      43.706 131.941  20.567  1.00  0.00     0.012 A 
HETATM    6  C11 LIG X 999      44.767 131.609  21.414  1.00  0.00     0.001 A 
HETATM    7  C12 LIG X 999      45.931 131.038  20.892  1.00  0.00     0.001 A 
HETATM    8  C13 LIG X 999      46.042 130.797  19.520  1.00  0.00     0.012 A 
HETATM    9  C14 LIG X 999      44.984 131.126  18.658  1.00  0.00    -0.025 A 
HETATM   10  C15 LIG X 999      45.084 130.887  17.279  1.00  0.00     0.021 A 
ENDROOT
BRANCH   1  11
HETATM   11  C4  LIG X 999      44.137 130.951  14.934  1.00  0.00     0.113 C 
HETATM   12  C5  LIG X 999      43.235 131.909  14.149  1.00  0.00     0.037 C 
BRANCH  11  13
HETATM   13  N1  LIG X 999      45.530 131.075  14.492  1.00  0.00    -0.353 N 
HETATM   14  C3  LIG X 999      46.425 129.953  14.473  1.00  0.00     0.217 C 
HETATM   15  O1  LIG X 999      46.016 128.807  14.802  1.00  0.00    -0.274 OA
HETATM   16  H6  LIG X 999      45.892 132.005  14.179  1.00  0.00     0.163 HD
BRANCH  14  17
HETATM   17  C2  LIG X 999      47.843 130.130  14.021  1.00  0.00     0.098 C 
HETATM   18  C1  LIG X 999      47.912 131.088  12.837  1.00  0.00     0.014 C 
ENDBRANCH  14  17
ENDBRANCH  11  13
ENDBRANCH   1  11
TORSDOF 3
ENDMDL
MODEL 7
REMARK VINA RESULT:      -7.3      0.842      1.898
REMARK  3 active torsions:
REMARK  status: ('A' for Active; 'I' for Inactive)
REMARK    1  A    between atoms: C2_2  and  C3_3 
REMARK       I    between atoms: C3_3  and  N1_5 
REMARK    2  A    between atoms: N1_5  and  C4_6 
REMARK    3  A    between atoms: C4_6  and  C6_8 
ROOT
HETATM    1  C6  LIG X 999      44.184 131.530  18.614  1.00  0.00    -0.035 A 
HETATM    2  C7  LIG X 999      43.227 131.942  17.670  1.00  0.00     0.010 A 
HETATM    3  C8  LIG X 999      43.444 131.746  16.305  1.00  0.00     0.013 A 
HETATM    4  C9  LIG X 999      44.626 131.140  15.858  1.00  0.00    -0.026 A 
HETATM    5  C10 LIG X 999      44.854 130.938  14.488  1.00  0.00     0.012 A 
HETATM    6  C11 LIG X 999      46.038 130.335  14.055  1.00  0.00     0.001 A 
HETATM    7  C12 LIG X 999      47.001 129.931  14.983  1.00  0.00     0.001 A 
HETATM    8  C13 LIG X 999      46.786 130.126  16.350  1.00  0.00     0.012 A 
HETATM    9  C14 LIG X 999      45.602 130.730  16.798  1.00  0.00    -0.025 A 
HETATM   10  C15 LIG X 999      45.376 130.932  18.169  1.00  0.00     0.021 A 
ENDROOT
BRANCH   1  11
HETATM   11  C4  LIG X 999      43.955 131.758  20.093  1.00  0.00     0.113 C 
HETATM   12  C5  LIG X 999      42.554 132.329  20.331  1.00  0.00     0.037 C 
BRANCH  11  13
HETATM   13  N1  LIG X 999      44.136 130.507  20.838  1.00  0.00    -0.353 N 
HETATM   14  C3  LIG X 999      44.354 130.491  22.257  1.00  0.00     0.217 C 
HETATM   15  O1  LIG X 999      44.354 131.567  22.913  1.00  0.00    -0.274 OA
HETATM   16  H6  LIG X 999      44.105 129.594  20.329  1.00  0.00     0.163 HD
BRANCH  14  17
HETATM   17  C2  LIG X 999      44.541 129.188  22.973  1.00  0.00     0.098 C 
HETATM   18  C1  LIG X 999      43.212 128.684  23.525  1.00  0.00     0.014 C 
ENDBRANCH  14  17
ENDBRANCH  11  13
ENDBRANCH   1  11
TORSDOF 3
ENDMDL
MODEL 8
REMARK VINA RESULT:      -6.9      2.829      6.476
REMARK  3 active torsions:
REMARK  status: ('A' for Active; 'I' for Inactive)
REMARK    1  A    between atoms: C2_2  and  C3_3 
REMARK       I    between atoms: C3_3  and  N1_5 
REMARK    2  A    between atoms: N1_5  and  C4_6 
REMARK    3  A    between atoms: C4_6  and  C6_8 
ROOT
HETATM    1  C6  LIG X 999      44.358 131.194  18.611  1.00  0.00    -0.035 A 
HETATM    2  C7  LIG X 999      45.590 130.853  19.197  1.00  0.00     0.010 A 
HETATM    3  C8  LIG X 999      45.758 130.904  20.582  1.00  0.00     0.013 A 
HETATM    4  C9  LIG X 999      44.698 131.304  21.407  1.00  0.00    -0.026 A 
HETATM    5  C10 LIG X 999      44.856 131.358  22.800  1.00  0.00     0.012 A 
HETATM    6  C11 LIG X 999      43.792 131.761  23.612  1.00  0.00     0.001 A 
HETATM    7  C12 LIG X 999      42.567 132.113  23.041  1.00  0.00     0.001 A 
HETATM    8  C13 LIG X 999      42.396 132.064  21.655  1.00  0.00     0.012 A 
HETATM    9  C14 LIG X 999      43.456 131.660  20.828  1.00  0.00    -0.025 A 
HETATM   10  C15 LIG X 999      43.296 131.607  19.435  1.00  0.00     0.021 A 
ENDROOT
BRANCH   1  11
HETATM   11  C4  LIG X 999      44.181 131.154  17.108  1.00  0.00     0.113 C 
HETATM   12  C5  LIG X 999      42.969 131.995  16.695  1.00  0.00     0.037 C 
BRANCH  11  13
HETATM   13  N1  LIG X 999      45.394 131.633  16.436  1.00  0.00    -0.353 N 
HETATM   14  C3  LIG X 999      45.743 131.216  15.108  1.00  0.00     0.217 C 
HETATM   15  O1  LIG X 999      44.981 130.448  14.461  1.00  0.00    -0.274 OA
HETATM   16  H6  LIG X 999      46.030 132.299  16.931  1.00  0.00     0.163 HD
BRANCH  14  17
HETATM   17  C2  LIG X 999      46.997 131.726  14.465  1.00  0.00     0.098 C 
HETATM   18  C1  LIG X 999      47.299 130.952  13.187  1.00  0.00     0.014 C 
ENDBRANCH  14  17
ENDBRANCH  11  13
ENDBRANCH   1  11
TORSDOF 3
ENDMDL
MODEL 9
REMARK VINA RESULT:      -6.7      1.428      2.891
REMARK  3 active torsions:
REMARK  status: ('A' for Active; 'I' for Inactive)
REMARK    1  A    between atoms: C2_2  and  C3_3 
REMARK       I    between atoms: C3_3  and  N1_5 
REMARK    2  A    between atoms: N1_5  and  C4_6 
REMARK    3  A    between atoms: C4_6  and  C6_8 
ROOT
HETATM    1  C6  LIG X 999      43.938 131.516  21.294  1.00  0.00    -0.035 A 
HETATM    2  C7  LIG X 999      42.740 131.996  20.735  1.00  0.00     0.010 A 
HETATM    3  C8  LIG X 999      42.577 132.060  19.350  1.00  0.00     0.013 A 
HETATM    4  C9  LIG X 999      43.613 131.652  18.498  1.00  0.00    -0.026 A 
HETATM    5  C10 LIG X 999      43.459 131.712  17.104  1.00  0.00     0.012 A 
HETATM    6  C11 LIG X 999      44.500 131.305  16.266  1.00  0.00     0.001 A 
HETATM    7  C12 LIG X 999      45.699 130.837  16.809  1.00  0.00     0.001 A 
HETATM    8  C13 LIG X 999      45.864 130.771  18.196  1.00  0.00     0.012 A 
HETATM    9  C14 LIG X 999      44.827 131.177  19.049  1.00  0.00    -0.025 A 
HETATM   10  C15 LIG X 999      44.982 131.117  20.443  1.00  0.00     0.021 A 
ENDROOT
BRANCH   1  11
HETATM   11  C4  LIG X 999      44.120 131.462  22.796  1.00  0.00     0.113 C 
HETATM   12  C5  LIG X 999      42.812 131.834  23.502  1.00  0.00     0.037 C 
BRANCH  11  13
HETATM   13  N1  LIG X 999      44.569 130.128  23.211  1.00  0.00    -0.353 N 
HETATM   14  C3  LIG X 999      43.659 129.025  23.339  1.00  0.00     0.217 C 
HETATM   15  O1  LIG X 999      42.439 129.169  23.055  1.00  0.00    -0.274 OA
HETATM   16  H6  LIG X 999      45.580 129.966  23.420  1.00  0.00     0.163 HD
BRANCH  14  17
HETATM   17  C2  LIG X 999      44.164 127.683  23.773  1.00  0.00     0.098 C 
HETATM   18  C1  LIG X 999      45.187 127.147  22.779  1.00  0.00     0.014 C 
ENDBRANCH  14  17
ENDBRANCH  11  13
ENDBRANCH   1  11
TORSDOF 3
ENDMDL
