MODEL 1
REMARK VINA RESULT:      -5.7      0.000      0.000
REMARK  5 active torsions:
REMARK  status: ('A' for Active; 'I' for Inactive)
REMARK    1  A    between atoms: C3_3  and  N1_4 
REMARK    2  A    between atoms: N1_4  and  C6_7 
REMARK    3  A    between atoms: C6_7  and  C7_8 
REMARK    4  A    between atoms: C9_10  and  C10_11 
REMARK    5  A    between atoms: C11_14  and  N4_15 
ROOT
HETATM    1  C1  LIG X 999      47.890 131.220  12.743  1.00  0.00     0.013 C 
HETATM    2  C2  LIG X 999      47.299 130.530  13.534  1.00  0.00    -0.089 C 
HETATM    3  C3  LIG X 999      46.573 129.680  14.502  1.00  0.00     0.329 C 
ENDROOT
BRANCH   3   4
HETATM    4  N1  LIG X 999      45.851 130.457  15.556  1.00  0.00    -0.061 N 
HETATM    5  C4  LIG X 999      46.201 131.899  15.454  1.00  0.00     0.273 C 
HETATM    6  C5  LIG X 999      44.381 130.315  15.395  1.00  0.00     0.273 C 
BRANCH   4   7
HETATM    7  C6  LIG X 999      46.272 129.993  16.916  1.00  0.00     0.275 C 
BRANCH   7   8
HETATM    8  C7  LIG X 999      45.488 130.605  18.062  1.00  0.00    -0.035 C 
HETATM    9  C8  LIG X 999      45.734 130.238  19.338  1.00  0.00     0.001 C 
HETATM   10  C9  LIG X 999      45.033 130.935  20.487  1.00  0.00     0.054 C 
HETATM   11  C12 LIG X 999      44.957 130.015  21.730  1.00  0.00     0.023 C 
HETATM   12  C16 LIG X 999      43.576 131.257  20.038  1.00  0.00     0.028 C 
HETATM   13  C13 LIG X 999      44.145 130.669  22.866  1.00  0.00     0.002 C 
HETATM   14  C14 LIG X 999      42.735 131.073  22.404  1.00  0.00     0.001 C 
HETATM   15  C15 LIG X 999      42.772 131.957  21.146  1.00  0.00     0.010 C 
HETATM   16  C17 LIG X 999      43.580 132.002  18.727  1.00  0.00    -0.020 C 
HETATM   17  C18 LIG X 999      44.458 131.643  17.782  1.00  0.00     0.005 C 
BRANCH  10  18
HETATM   18  C10 LIG X 999      45.843 132.183  20.809  1.00  0.00     0.184 A 
HETATM   19  N2  LIG X 999      45.458 133.438  20.494  1.00  0.00    -0.124 NA
HETATM   20  N3  LIG X 999      46.390 134.250  20.969  1.00  0.00    -0.099 NA
HETATM   21  C11 LIG X 999      47.299 133.459  21.561  1.00  0.00     0.326 A 
HETATM   22  O1  LIG X 999      46.975 132.192  21.475  1.00  0.00    -0.255 OA
BRANCH  21  23
HETATM   23  N4  LIG X 999      48.473 133.949  22.205  1.00  0.00    -0.023 NA
HETATM   24  N5  LIG X 999      48.962 135.031  21.880  1.00  0.00    -0.158 NA
HETATM   25  N6  LIG X 999      49.451 136.112  21.556  1.00  0.00     0.068 N 
ENDBRANCH  21  23
ENDBRANCH  10  18
ENDBRANCH   7   8
ENDBRANCH   4   7
ENDBRANCH   3   4
TORSDOF 5
ENDMDL
MODEL 2
REMARK VINA RESULT:      -5.7      3.558      4.945
REMARK  5 active torsions:
REMARK  status: ('A' for Active; 'I' for Inactive)
REMARK    1  A    between atoms: C3_3  and  N1_4 
REMARK    2  A    between atoms: N1_4  and  C6_7 
REMARK    3  A    between atoms: C6_7  and  C7_8 
REMARK    4  A    between atoms: C9_10  and  C10_11 
REMARK    5  A    between atoms: C11_14  and  N4_15 
ROOT
HETATM    1  C1  LIG X 999      46.799 131.215  14.147  1.00  0.00     0.013 C 
HETATM    2  C2  LIG X 999      46.323 131.612  15.180  1.00  0.00    -0.089 C 
HETATM    3  C3  LIG X 999      45.739 132.100  16.448  1.00  0.00     0.329 C 
ENDROOT
BRANCH   3   4
HETATM    4  N1  LIG X 999      44.914 131.077  17.161  1.00  0.00    -0.061 N 
HETATM    5  C4  LIG X 999      44.176 130.243  16.175  1.00  0.00     0.273 C 
HETATM    6  C5  LIG X 999      45.777 130.188  17.980  1.00  0.00     0.273 C 
BRANCH   4   7
HETATM    7  C6  LIG X 999      43.893 131.751  18.025  1.00  0.00     0.275 C 
BRANCH   7   8
HETATM    8  C7  LIG X 999      44.214 131.736  19.508  1.00  0.00    -0.035 C 
HETATM    9  C8  LIG X 999      43.263 131.425  20.415  1.00  0.00     0.001 C 
HETATM   10  C9  LIG X 999      43.614 131.296  21.883  1.00  0.00     0.054 C 
HETATM   11  C12 LIG X 999      42.375 131.558  22.775  1.00  0.00     0.023 C 
HETATM   12  C16 LIG X 999      44.684 132.379  22.219  1.00  0.00     0.028 C 
HETATM   13  C13 LIG X 999      42.745 131.544  24.271  1.00  0.00     0.002 C 
HETATM   14  C14 LIG X 999      43.866 132.547  24.594  1.00  0.00     0.001 C 
HETATM   15  C15 LIG X 999      45.098 132.340  23.699  1.00  0.00     0.010 C 
HETATM   16  C17 LIG X 999      45.844 132.289  21.260  1.00  0.00    -0.020 C 
HETATM   17  C18 LIG X 999      45.597 132.037  19.968  1.00  0.00     0.005 C 
BRANCH  10  18
HETATM   18  C10 LIG X 999      44.120 129.877  22.095  1.00  0.00     0.184 A 
HETATM   19  N2  LIG X 999      45.239 129.378  21.525  1.00  0.00    -0.124 NA
HETATM   20  N3  LIG X 999      45.374 128.141  21.976  1.00  0.00    -0.099 NA
HETATM   21  C11 LIG X 999      44.339 127.938  22.808  1.00  0.00     0.326 A 
HETATM   22  O1  LIG X 999      43.568 128.993  22.894  1.00  0.00    -0.255 OA
BRANCH  21  23
HETATM   23  N4  LIG X 999      44.118 126.717  23.510  1.00  0.00    -0.023 NA
HETATM   24  N5  LIG X 999      43.873 125.677  22.899  1.00  0.00    -0.158 NA
HETATM   25  N6  LIG X 999      43.628 124.638  22.289  1.00  0.00     0.068 N 
ENDBRANCH  21  23
ENDBRANCH  10  18
ENDBRANCH   7   8
ENDBRANCH   4   7
ENDBRANCH   3   4
TORSDOF 5
ENDMDL
MODEL 3
REMARK VINA RESULT:      -5.1      4.222      6.671
REMARK  5 active torsions:
REMARK  status: ('A' for Active; 'I' for Inactive)
REMARK    1  A    between atoms: C3_3  and  N1_4 
REMARK    2  A    between atoms: N1_4  and  C6_7 
REMARK    3  A    between atoms: C6_7  and  C7_8 
REMARK    4  A    between atoms: C9_10  and  C10_11 
REMARK    5  A    between atoms: C11_14  and  N4_15 
ROOT
HETATM    1  C1  LIG X 999      42.466 124.294  22.434  1.00  0.00     0.013 C 
HETATM    2  C2  LIG X 999      43.661 124.449  22.422  1.00  0.00    -0.089 C 
HETATM    3  C3  LIG X 999      45.127 124.636  22.406  1.00  0.00     0.329 C 
ENDROOT
BRANCH   3   4
HETATM    4  N1  LIG X 999      45.574 125.920  23.028  1.00  0.00    -0.061 N 
HETATM    5  C4  LIG X 999      46.894 125.733  23.687  1.00  0.00     0.273 C 
HETATM    6  C5  LIG X 999      45.706 126.982  21.998  1.00  0.00     0.273 C 
BRANCH   4   7
HETATM    7  C6  LIG X 999      44.604 126.343  24.088  1.00  0.00     0.275 C 
BRANCH   7   8
HETATM    8  C7  LIG X 999      43.990 127.713  23.870  1.00  0.00    -0.035 C 
HETATM    9  C8  LIG X 999      44.712 128.834  24.092  1.00  0.00     0.001 C 
HETATM   10  C9  LIG X 999      44.136 130.196  23.762  1.00  0.00     0.054 C 
HETATM   11  C12 LIG X 999      44.798 131.301  24.622  1.00  0.00     0.023 C 
HETATM   12  C16 LIG X 999      42.615 130.171  24.101  1.00  0.00     0.028 C 
HETATM   13  C13 LIG X 999      44.140 132.674  24.378  1.00  0.00     0.002 C 
HETATM   14  C14 LIG X 999      42.622 132.634  24.623  1.00  0.00     0.001 C 
HETATM   15  C15 LIG X 999      41.938 131.521  23.813  1.00  0.00     0.010 C 
HETATM   16  C17 LIG X 999      41.945 128.999  23.430  1.00  0.00    -0.020 C 
HETATM   17  C18 LIG X 999      42.590 127.827  23.378  1.00  0.00     0.005 C 
BRANCH  10  18
HETATM   18  C10 LIG X 999      44.410 130.448  22.286  1.00  0.00     0.184 A 
HETATM   19  N2  LIG X 999      45.285 129.733  21.545  1.00  0.00    -0.124 NA
HETATM   20  N3  LIG X 999      45.217 130.212  20.313  1.00  0.00    -0.099 NA
HETATM   21  C11 LIG X 999      44.300 131.192  20.351  1.00  0.00     0.326 A 
HETATM   22  O1  LIG X 999      43.794 131.343  21.550  1.00  0.00    -0.255 OA
BRANCH  21  23
HETATM   23  N4  LIG X 999      43.926 131.968  19.214  1.00  0.00    -0.023 NA
HETATM   24  N5  LIG X 999      44.558 131.885  18.161  1.00  0.00    -0.158 NA
HETATM   25  N6  LIG X 999      45.190 131.802  17.109  1.00  0.00     0.068 N 
ENDBRANCH  21  23
ENDBRANCH  10  18
ENDBRANCH   7   8
ENDBRANCH   4   7
ENDBRANCH   3   4
TORSDOF 5
ENDMDL
MODEL 4
REMARK VINA RESULT:      -4.0      1.135      1.845
REMARK  5 active torsions:
REMARK  status: ('A' for Active; 'I' for Inactive)
REMARK    1  A    between atoms: C3_3  and  N1_4 
REMARK    2  A    between atoms: N1_4  and  C6_7 
REMARK    3  A    between atoms: C6_7  and  C7_8 
REMARK    4  A    between atoms: C9_10  and  C10_11 
REMARK    5  A    between atoms: C11_14  and  N4_15 
ROOT
HETATM    1  C1  LIG X 999      47.258 130.711  13.639  1.00  0.00     0.013 C 
HETATM    2  C2  LIG X 999      46.756 131.295  14.565  1.00  0.00    -0.089 C 
HETATM    3  C3  LIG X 999      46.141 132.013  15.702  1.00  0.00     0.329 C 
ENDROOT
BRANCH   3   4
HETATM    4  N1  LIG X 999      45.221 131.163  16.520  1.00  0.00    -0.061 N 
HETATM    5  C4  LIG X 999      44.512 130.194  15.643  1.00  0.00     0.273 C 
HETATM    6  C5  LIG X 999      45.984 130.404  17.544  1.00  0.00     0.273 C 
BRANCH   4   7
HETATM    7  C6  LIG X 999      44.179 132.017  17.174  1.00  0.00     0.275 C 
BRANCH   7   8
HETATM    8  C7  LIG X 999      43.975 131.741  18.652  1.00  0.00    -0.035 C 
HETATM    9  C8  LIG X 999      44.798 130.899  19.314  1.00  0.00     0.001 C 
HETATM   10  C9  LIG X 999      44.666 130.715  20.813  1.00  0.00     0.054 C 
HETATM   11  C12 LIG X 999      45.217 129.337  21.253  1.00  0.00     0.023 C 
HETATM   12  C16 LIG X 999      43.150 130.763  21.171  1.00  0.00     0.028 C 
HETATM   13  C13 LIG X 999      44.982 129.091  22.758  1.00  0.00     0.002 C 
HETATM   14  C14 LIG X 999      43.498 129.227  23.136  1.00  0.00     0.001 C 
HETATM   15  C15 LIG X 999      42.907 130.571  22.677  1.00  0.00     0.010 C 
HETATM   16  C17 LIG X 999      42.514 132.008  20.607  1.00  0.00    -0.020 C 
HETATM   17  C18 LIG X 999      42.878 132.426  19.389  1.00  0.00     0.005 C 
BRANCH  10  18
HETATM   18  C10 LIG X 999      45.466 131.832  21.469  1.00  0.00     0.184 A 
HETATM   19  N2  LIG X 999      45.231 132.302  22.713  1.00  0.00    -0.124 NA
HETATM   20  N3  LIG X 999      46.147 133.229  22.947  1.00  0.00    -0.099 NA
HETATM   21  C11 LIG X 999      46.907 133.280  21.841  1.00  0.00     0.326 A 
HETATM   22  O1  LIG X 999      46.505 132.427  20.931  1.00  0.00    -0.255 OA
BRANCH  21  23
HETATM   23  N4  LIG X 999      48.019 134.159  21.686  1.00  0.00    -0.023 NA
HETATM   24  N5  LIG X 999      48.815 134.333  22.609  1.00  0.00    -0.158 NA
HETATM   25  N6  LIG X 999      49.611 134.507  23.530  1.00  0.00     0.068 N 
ENDBRANCH  21  23
ENDBRANCH  10  18
ENDBRANCH   7   8
ENDBRANCH   4   7
ENDBRANCH   3   4
TORSDOF 5
ENDMDL
MODEL 5
REMARK VINA RESULT:      -4.0      5.267      6.991
REMARK  5 active torsions:
REMARK  status: ('A' for Active; 'I' for Inactive)
REMARK    1  A    between atoms: C3_3  and  N1_4 
REMARK    2  A    between atoms: N1_4  and  C6_7 
REMARK    3  A    between atoms: C6_7  and  C7_8 
REMARK    4  A    between atoms: C9_10  and  C10_11 
REMARK    5  A    between atoms: C11_14  and  N4_15 
ROOT
HETATM    1  C1  LIG X 999      45.667 131.075  17.725  1.00  0.00     0.013 C 
HETATM    2  C2  LIG X 999      44.858 131.209  18.608  1.00  0.00    -0.089 C 
HETATM    3  C3  LIG X 999      43.864 131.375  19.690  1.00  0.00     0.329 C 
ENDROOT
BRANCH   3   4
HETATM    4  N1  LIG X 999      44.432 131.181  21.060  1.00  0.00    -0.061 N 
HETATM    5  C4  LIG X 999      45.215 132.381  21.459  1.00  0.00     0.273 C 
HETATM    6  C5  LIG X 999      43.346 130.974  22.051  1.00  0.00     0.273 C 
BRANCH   4   7
HETATM    7  C6  LIG X 999      45.372 130.015  21.067  1.00  0.00     0.275 C 
BRANCH   7   8
HETATM    8  C7  LIG X 999      44.979 128.895  22.013  1.00  0.00    -0.035 C 
HETATM    9  C8  LIG X 999      44.937 127.615  21.584  1.00  0.00     0.001 C 
HETATM   10  C9  LIG X 999      44.660 126.487  22.557  1.00  0.00     0.054 C 
HETATM   11  C12 LIG X 999      44.054 125.262  21.828  1.00  0.00     0.023 C 
HETATM   12  C16 LIG X 999      43.613 126.994  23.595  1.00  0.00     0.028 C 
HETATM   13  C13 LIG X 999      43.661 124.153  22.824  1.00  0.00     0.002 C 
HETATM   14  C14 LIG X 999      42.698 124.670  23.906  1.00  0.00     0.001 C 
HETATM   15  C15 LIG X 999      43.251 125.911  24.625  1.00  0.00     0.010 C 
HETATM   16  C17 LIG X 999      44.068 128.292  24.212  1.00  0.00    -0.020 C 
HETATM   17  C18 LIG X 999      44.665 129.204  23.435  1.00  0.00     0.005 C 
BRANCH  10  18
HETATM   18  C10 LIG X 999      45.991 126.112  23.193  1.00  0.00     0.184 A 
HETATM   19  N2  LIG X 999      46.414 126.569  24.391  1.00  0.00    -0.124 NA
HETATM   20  N3  LIG X 999      47.583 125.995  24.625  1.00  0.00    -0.099 NA
HETATM   21  C11 LIG X 999      47.822 125.206  23.564  1.00  0.00     0.326 A 
HETATM   22  O1  LIG X 999      46.854 125.264  22.684  1.00  0.00    -0.255 OA
BRANCH  21  23
HETATM   23  N4  LIG X 999      48.992 124.403  23.425  1.00  0.00    -0.023 NA
HETATM   24  N5  LIG X 999      49.553 124.294  22.334  1.00  0.00    -0.158 NA
HETATM   25  N6  LIG X 999      50.113 124.185  21.245  1.00  0.00     0.068 N 
ENDBRANCH  21  23
ENDBRANCH  10  18
ENDBRANCH   7   8
ENDBRANCH   4   7
ENDBRANCH   3   4
TORSDOF 5
ENDMDL
MODEL 6
REMARK VINA RESULT:      -4.0      8.310     10.007
REMARK  5 active torsions:
REMARK  status: ('A' for Active; 'I' for Inactive)
REMARK    1  A    between atoms: C3_3  and  N1_4 
REMARK    2  A    between atoms: N1_4  and  C6_7 
REMARK    3  A    between atoms: C6_7  and  C7_8 
REMARK    4  A    between atoms: C9_10  and  C10_11 
REMARK    5  A    between atoms: C11_14  and  N4_15 
ROOT
HETATM    1  C1  LIG X 999      53.259 124.581  21.434  1.00  0.00     0.013 C 
HETATM    2  C2  LIG X 999      52.375 123.763  21.388  1.00  0.00    -0.089 C 
HETATM    3  C3  LIG X 999      51.293 122.758  21.333  1.00  0.00     0.329 C 
ENDROOT
BRANCH   3   4
HETATM    4  N1  LIG X 999      50.178 123.128  20.407  1.00  0.00    -0.061 N 
HETATM    5  C4  LIG X 999      50.018 124.606  20.371  1.00  0.00     0.273 C 
HETATM    6  C5  LIG X 999      50.463 122.650  19.030  1.00  0.00     0.273 C 
BRANCH   4   7
HETATM    7  C6  LIG X 999      48.887 122.553  20.900  1.00  0.00     0.275 C 
BRANCH   7   8
HETATM    8  C7  LIG X 999      48.140 123.434  21.884  1.00  0.00    -0.035 C 
HETATM    9  C8  LIG X 999      47.024 124.095  21.506  1.00  0.00     0.001 C 
HETATM   10  C9  LIG X 999      46.215 124.880  22.519  1.00  0.00     0.054 C 
HETATM   11  C12 LIG X 999      45.409 126.009  21.830  1.00  0.00     0.023 C 
HETATM   12  C16 LIG X 999      47.209 125.542  23.520  1.00  0.00     0.028 C 
HETATM   13  C13 LIG X 999      44.673 126.886  22.864  1.00  0.00     0.002 C 
HETATM   14  C14 LIG X 999      45.638 127.469  23.910  1.00  0.00     0.001 C 
HETATM   15  C15 LIG X 999      46.483 126.378  24.586  1.00  0.00     0.010 C 
HETATM   16  C17 LIG X 999      48.148 124.509  24.092  1.00  0.00    -0.020 C 
HETATM   17  C18 LIG X 999      48.621 123.549  23.288  1.00  0.00     0.005 C 
BRANCH  10  18
HETATM   18  C10 LIG X 999      45.268 123.894  23.189  1.00  0.00     0.184 A 
HETATM   19  N2  LIG X 999      45.619 123.077  24.205  1.00  0.00    -0.124 NA
HETATM   20  N3  LIG X 999      44.529 122.408  24.547  1.00  0.00    -0.099 NA
HETATM   21  C11 LIG X 999      43.557 122.849  23.732  1.00  0.00     0.326 A 
HETATM   22  O1  LIG X 999      43.994 123.762  22.900  1.00  0.00    -0.255 OA
BRANCH  21  23
HETATM   23  N4  LIG X 999      42.213 122.375  23.776  1.00  0.00    -0.023 NA
HETATM   24  N5  LIG X 999      41.289 123.068  23.350  1.00  0.00    -0.158 NA
HETATM   25  N6  LIG X 999      40.365 123.759  22.924  1.00  0.00     0.068 N 
ENDBRANCH  21  23
ENDBRANCH  10  18
ENDBRANCH   7   8
ENDBRANCH   4   7
ENDBRANCH   3   4
TORSDOF 5
ENDMDL
MODEL 7
REMARK VINA RESULT:      -3.3      6.368      9.049
REMARK  5 active torsions:
REMARK  status: ('A' for Active; 'I' for Inactive)
REMARK    1  A    between atoms: C3_3  and  N1_4 
REMARK    2  A    between atoms: N1_4  and  C6_7 
REMARK    3  A    between atoms: C6_7  and  C7_8 
REMARK    4  A    between atoms: C9_10  and  C10_11 
REMARK    5  A    between atoms: C11_14  and  N4_15 
ROOT
HETATM    1  C1  LIG X 999      42.611 131.691  20.199  1.00  0.00     0.013 C 
HETATM    2  C2  LIG X 999      42.648 131.204  21.301  1.00  0.00    -0.089 C 
HETATM    3  C3  LIG X 999      42.690 130.607  22.653  1.00  0.00     0.329 C 
ENDROOT
BRANCH   3   4
HETATM    4  N1  LIG X 999      44.067 130.527  23.229  1.00  0.00    -0.061 N 
HETATM    5  C4  LIG X 999      45.060 130.311  22.144  1.00  0.00     0.273 C 
HETATM    6  C5  LIG X 999      44.410 131.786  23.940  1.00  0.00     0.273 C 
BRANCH   4   7
HETATM    7  C6  LIG X 999      44.167 129.360  24.162  1.00  0.00     0.275 C 
BRANCH   7   8
HETATM    8  C7  LIG X 999      44.809 128.124  23.558  1.00  0.00    -0.035 C 
HETATM    9  C8  LIG X 999      45.413 127.208  24.345  1.00  0.00     0.001 C 
HETATM   10  C9  LIG X 999      45.948 125.920  23.753  1.00  0.00     0.054 C 
HETATM   11  C12 LIG X 999      47.091 125.342  24.625  1.00  0.00     0.023 C 
HETATM   12  C16 LIG X 999      46.536 126.245  22.347  1.00  0.00     0.028 C 
HETATM   13  C13 LIG X 999      47.721 124.095  23.972  1.00  0.00     0.002 C 
HETATM   14  C14 LIG X 999      48.221 124.385  22.547  1.00  0.00     0.001 C 
HETATM   15  C15 LIG X 999      47.122 124.997  21.664  1.00  0.00     0.010 C 
HETATM   16  C17 LIG X 999      45.520 126.976  21.507  1.00  0.00    -0.020 C 
HETATM   17  C18 LIG X 999      44.747 127.903  22.087  1.00  0.00     0.005 C 
BRANCH  10  18
HETATM   18  C10 LIG X 999      44.785 124.940  23.698  1.00  0.00     0.184 A 
HETATM   19  N2  LIG X 999      44.860 123.706  23.154  1.00  0.00    -0.124 NA
HETATM   20  N3  LIG X 999      43.675 123.142  23.330  1.00  0.00    -0.099 NA
HETATM   21  C11 LIG X 999      42.930 124.051  23.982  1.00  0.00     0.326 A 
HETATM   22  O1  LIG X 999      43.598 125.153  24.217  1.00  0.00    -0.255 OA
BRANCH  21  23
HETATM   23  N4  LIG X 999      41.575 123.831  24.368  1.00  0.00    -0.023 NA
HETATM   24  N5  LIG X 999      40.744 123.443  23.547  1.00  0.00    -0.158 NA
HETATM   25  N6  LIG X 999      39.913 123.055  22.728  1.00  0.00     0.068 N 
ENDBRANCH  21  23
ENDBRANCH  10  18
ENDBRANCH   7   8
ENDBRANCH   4   7
ENDBRANCH   3   4
TORSDOF 5
ENDMDL
