REMARK VINA RESULT:      -6.6      2.648      4.372
REMARK  6 active torsions:
REMARK  status: ('A' for Active; 'I' for Inactive)
REMARK    1  A    between atoms: S1_2  and  C1_3 
REMARK    2  A    between atoms: C1_3  and  N2_15 
REMARK    3  A    between atoms: N1_4  and  C2_5 
REMARK    4  A    between atoms: N2_15  and  C12_17 
REMARK    5  A    between atoms: C12_17  and  C13_18 
REMARK    6  A    between atoms: C13_18  and  C14_19 
ROOT
HETATM    1  C2  LIG X 999      43.322 131.951  20.581  1.00  0.00     0.060 A 
HETATM    2  C3  LIG X 999      42.252 132.308  19.752  1.00  0.00     0.032 A 
HETATM    3  C4  LIG X 999      42.343 132.154  18.367  1.00  0.00     0.014 A 
HETATM    4  C5  LIG X 999      43.522 131.661  17.789  1.00  0.00    -0.026 A 
HETATM    5  C6  LIG X 999      43.626 131.502  16.398  1.00  0.00     0.012 A 
HETATM    6  C7  LIG X 999      44.811 131.020  15.834  1.00  0.00     0.001 A 
HETATM    7  C8  LIG X 999      45.898 130.697  16.650  1.00  0.00     0.001 A 
HETATM    8  C9  LIG X 999      45.807 130.851  18.036  1.00  0.00     0.012 A 
HETATM    9  C10 LIG X 999      44.623 131.330  18.616  1.00  0.00    -0.024 A 
HETATM   10  C11 LIG X 999      44.520 131.491  20.006  1.00  0.00     0.044 A 
ENDROOT
BRANCH   1  11
HETATM   11  N1  LIG X 999      43.207 132.168  21.995  1.00  0.00    -0.225 NA
HETATM   12  C1  LIG X 999      43.041 131.258  22.913  1.00  0.00     0.160 C 
BRANCH  12  13
HETATM   13  S1  LIG X 999      43.045 131.793  24.625  1.00  0.00    -0.105 SA
HETATM   14  H1  LIG X 999      44.223 131.073  24.902  1.00  0.00     0.110 HD
ENDBRANCH  12  13
BRANCH  12  15
HETATM   15  N2  LIG X 999      42.776 129.883  22.574  1.00  0.00    -0.369 N 
HETATM   16  H9  LIG X 999      42.060 129.660  21.847  1.00  0.00     0.161 HD
BRANCH  15  17
HETATM   17  C12 LIG X 999      43.330 128.757  23.323  1.00  0.00     0.122 C 
BRANCH  17  18
HETATM   18  C13 LIG X 999      44.744 128.435  22.825  1.00  0.00     0.030 C 
BRANCH  18  19
HETATM   19  C14 LIG X 999      44.901 126.960  22.446  1.00  0.00     0.088 C 
HETATM   20  S2  LIG X 999      43.707 125.941  23.294  1.00  0.00    -0.098 SA
ENDBRANCH  18  19
ENDBRANCH  17  18
ENDBRANCH  15  17
ENDBRANCH  12  15
ENDBRANCH   1  11
TORSDOF 6
