REMARK VINA RESULT:      -7.7      1.671      2.605
REMARK  2 active torsions:
REMARK  status: ('A' for Active; 'I' for Inactive)
REMARK    1  A    between atoms: C2_2  and  N1_3 
REMARK    2  A    between atoms: C3_6  and  O1_7 
ROOT
HETATM    1  N1  LIG X 999      44.882 131.800  14.938  1.00  0.00    -0.070 NA
HETATM    2  N2  LIG X 999      43.825 131.662  14.321  1.00  0.00    -0.162 NA
HETATM    3  N3  LIG X 999      42.771 131.524  13.702  1.00  0.00     0.068 N 
ENDROOT
BRANCH   1   4
HETATM    4  C2  LIG X 999      45.020 131.436  16.320  1.00  0.00     0.127 A 
HETATM    5  C1  LIG X 999      44.102 131.884  17.289  1.00  0.00     0.049 A 
HETATM    6  C11 LIG X 999      44.252 131.518  18.632  1.00  0.00    -0.023 A 
HETATM    7  C6  LIG X 999      45.340 130.687  19.017  1.00  0.00    -0.022 A 
HETATM    8  C10 LIG X 999      43.337 131.969  19.604  1.00  0.00     0.021 A 
HETATM    9  C5  LIG X 999      46.250 130.244  18.049  1.00  0.00     0.051 A 
HETATM   10  C7  LIG X 999      45.496 130.319  20.369  1.00  0.00     0.021 A 
HETATM   11  C3  LIG X 999      46.096 130.614  16.698  1.00  0.00     0.100 A 
HETATM   12  C8  LIG X 999      44.563 130.780  21.300  1.00  0.00    -0.024 A 
HETATM   13  C9  LIG X 999      43.521 131.575  20.931  1.00  0.00    -0.024 A 
HETATM   14  C15 LIG X 999      44.542 130.540  22.759  1.00  0.00     0.276 C 
HETATM   15  C12 LIG X 999      42.706 131.942  22.108  1.00  0.00     0.276 C 
HETATM   16  N4  LIG X 999      43.264 131.149  23.249  1.00  0.00    -0.067 N 
HETATM   17  C13 LIG X 999      42.312 130.082  23.639  1.00  0.00     0.272 C 
HETATM   18  C14 LIG X 999      43.516 132.021  24.419  1.00  0.00     0.272 C 
BRANCH  11  19
HETATM   19  O1  LIG X 999      46.991 130.186  15.704  1.00  0.00    -0.353 OA
HETATM   20  C4  LIG X 999      46.643 129.338  14.614  1.00  0.00     0.210 C 
ENDBRANCH  11  19
ENDBRANCH   1   4
TORSDOF 2
