REMARK VINA RESULT:      -8.5      1.853      6.519
REMARK  3 active torsions:
REMARK  status: ('A' for Active; 'I' for Inactive)
REMARK    1  A    between atoms: C3_3  and  O1_4 
REMARK    2  A    between atoms: O1_4  and  C4_5 
REMARK    3  A    between atoms: C5_7  and  C6_8 
ROOT
HETATM    1  C1  LIG X 999      41.648 132.472  19.006  1.00  0.00     0.014 C 
HETATM    2  C2  LIG X 999      42.713 132.295  19.544  1.00  0.00    -0.091 C 
HETATM    3  C3  LIG X 999      44.004 132.077  20.197  1.00  0.00     0.270 C 
ENDROOT
BRANCH   3   4
HETATM    4  O1  LIG X 999      44.983 131.785  19.208  1.00  0.00    -0.317 OA
BRANCH   4   5
HETATM    5  C4  LIG X 999      45.604 130.536  19.115  1.00  0.00     0.217 C 
HETATM    6  O2  LIG X 999      46.034 129.883  20.267  1.00  0.00    -0.164 OA
HETATM    7  C5  LIG X 999      45.812 129.964  17.926  1.00  0.00     0.079 C 
BRANCH   7   8
HETATM    8  C6  LIG X 999      45.382 130.572  16.643  1.00  0.00    -0.020 A 
HETATM    9  C7  LIG X 999      44.133 131.218  16.575  1.00  0.00     0.012 A 
HETATM   10  C8  LIG X 999      43.673 131.761  15.376  1.00  0.00     0.002 A 
HETATM   11  C9  LIG X 999      44.441 131.661  14.218  1.00  0.00     0.012 A 
HETATM   12  C10 LIG X 999      45.684 131.015  14.249  1.00  0.00    -0.025 A 
HETATM   13  C11 LIG X 999      46.451 130.917  13.077  1.00  0.00     0.012 A 
HETATM   14  C15 LIG X 999      46.169 130.462  15.465  1.00  0.00    -0.015 A 
HETATM   15  C12 LIG X 999      47.695 130.284  13.101  1.00  0.00     0.001 A 
HETATM   16  C13 LIG X 999      48.185 129.750  14.291  1.00  0.00     0.001 A 
HETATM   17  C14 LIG X 999      47.435 129.836  15.467  1.00  0.00     0.013 A 
ENDBRANCH   7   8
ENDBRANCH   4   5
ENDBRANCH   3   4
TORSDOF 3
