REMARK VINA RESULT:      -6.3      2.368      5.484
REMARK  1 active torsions:
REMARK  status: ('A' for Active; 'I' for Inactive)
REMARK    1  A    between atoms: C4_4  and  N1_5 
ROOT
HETATM    1  C1  LIG X 999      41.638 131.913  18.268  1.00  0.00     0.049 C 
HETATM    2  C2  LIG X 999      43.137 131.771  18.161  1.00  0.00    -0.045 C 
HETATM    3  C3  LIG X 999      43.674 131.869  16.869  1.00  0.00     0.055 C 
HETATM    4  C4  LIG X 999      44.989 131.485  16.621  1.00  0.00     0.099 C 
HETATM    5  N2  LIG X 999      45.743 130.977  17.628  1.00  0.00    -0.342 N 
HETATM    6  C5  LIG X 999      45.283 130.902  18.910  1.00  0.00     0.045 C 
HETATM    7  C6  LIG X 999      46.087 130.302  19.887  1.00  0.00     0.031 C 
HETATM    8  C7  LIG X 999      45.653 130.204  21.200  1.00  0.00     0.014 C 
HETATM    9  C8  LIG X 999      44.455 130.804  21.595  1.00  0.00    -0.025 C 
HETATM   10  C9  LIG X 999      44.095 130.787  22.952  1.00  0.00     0.012 C 
HETATM   11  C10 LIG X 999      42.977 131.492  23.392  1.00  0.00     0.001 C 
HETATM   12  C11 LIG X 999      42.238 132.251  22.491  1.00  0.00     0.001 C 
HETATM   13  C12 LIG X 999      42.577 132.265  21.135  1.00  0.00     0.013 C 
HETATM   14  C13 LIG X 999      43.640 131.475  20.638  1.00  0.00    -0.013 C 
HETATM   15  C14 LIG X 999      43.993 131.407  19.248  1.00  0.00     0.008 C 
HETATM   16  H7  LIG X 999      46.707 130.635  17.405  1.00  0.00     0.167 HD
ENDROOT
BRANCH   4  17
HETATM   17  N1  LIG X 999      45.521 131.569  15.296  1.00  0.00    -0.385 N 
HETATM   18  H5  LIG X 999      45.063 132.162  14.570  1.00  0.00     0.157 HD
HETATM   19  H6  LIG X 999      46.382 131.039  15.035  1.00  0.00     0.157 HD
ENDBRANCH   4  17
TORSDOF 1
