REMARK VINA RESULT:      -4.0      8.310     10.007
REMARK  5 active torsions:
REMARK  status: ('A' for Active; 'I' for Inactive)
REMARK    1  A    between atoms: C3_3  and  N1_4 
REMARK    2  A    between atoms: N1_4  and  C6_7 
REMARK    3  A    between atoms: C6_7  and  C7_8 
REMARK    4  A    between atoms: C9_10  and  C10_11 
REMARK    5  A    between atoms: C11_14  and  N4_15 
ROOT
HETATM    1  C1  LIG X 999      53.259 124.581  21.434  1.00  0.00     0.013 C 
HETATM    2  C2  LIG X 999      52.375 123.763  21.388  1.00  0.00    -0.089 C 
HETATM    3  C3  LIG X 999      51.293 122.758  21.333  1.00  0.00     0.329 C 
ENDROOT
BRANCH   3   4
HETATM    4  N1  LIG X 999      50.178 123.128  20.407  1.00  0.00    -0.061 N 
HETATM    5  C4  LIG X 999      50.018 124.606  20.371  1.00  0.00     0.273 C 
HETATM    6  C5  LIG X 999      50.463 122.650  19.030  1.00  0.00     0.273 C 
BRANCH   4   7
HETATM    7  C6  LIG X 999      48.887 122.553  20.900  1.00  0.00     0.275 C 
BRANCH   7   8
HETATM    8  C7  LIG X 999      48.140 123.434  21.884  1.00  0.00    -0.035 C 
HETATM    9  C8  LIG X 999      47.024 124.095  21.506  1.00  0.00     0.001 C 
HETATM   10  C9  LIG X 999      46.215 124.880  22.519  1.00  0.00     0.054 C 
HETATM   11  C12 LIG X 999      45.409 126.009  21.830  1.00  0.00     0.023 C 
HETATM   12  C16 LIG X 999      47.209 125.542  23.520  1.00  0.00     0.028 C 
HETATM   13  C13 LIG X 999      44.673 126.886  22.864  1.00  0.00     0.002 C 
HETATM   14  C14 LIG X 999      45.638 127.469  23.910  1.00  0.00     0.001 C 
HETATM   15  C15 LIG X 999      46.483 126.378  24.586  1.00  0.00     0.010 C 
HETATM   16  C17 LIG X 999      48.148 124.509  24.092  1.00  0.00    -0.020 C 
HETATM   17  C18 LIG X 999      48.621 123.549  23.288  1.00  0.00     0.005 C 
BRANCH  10  18
HETATM   18  C10 LIG X 999      45.268 123.894  23.189  1.00  0.00     0.184 A 
HETATM   19  N2  LIG X 999      45.619 123.077  24.205  1.00  0.00    -0.124 NA
HETATM   20  N3  LIG X 999      44.529 122.408  24.547  1.00  0.00    -0.099 NA
HETATM   21  C11 LIG X 999      43.557 122.849  23.732  1.00  0.00     0.326 A 
HETATM   22  O1  LIG X 999      43.994 123.762  22.900  1.00  0.00    -0.255 OA
BRANCH  21  23
HETATM   23  N4  LIG X 999      42.213 122.375  23.776  1.00  0.00    -0.023 NA
HETATM   24  N5  LIG X 999      41.289 123.068  23.350  1.00  0.00    -0.158 NA
HETATM   25  N6  LIG X 999      40.365 123.759  22.924  1.00  0.00     0.068 N 
ENDBRANCH  21  23
ENDBRANCH  10  18
ENDBRANCH   7   8
ENDBRANCH   4   7
ENDBRANCH   3   4
TORSDOF 5
