REMARK VINA RESULT:      -8.6      3.711      6.483
REMARK  3 active torsions:
REMARK  status: ('A' for Active; 'I' for Inactive)
REMARK    1  A    between atoms: C1_1  and  C2_6 
REMARK    2  A    between atoms: N1_2  and  N2_3 
REMARK    3  A    between atoms: C2_6  and  C3_8 
ROOT
HETATM    1  C3  LIG X 999      44.635 131.164  16.577  1.00  0.00     0.016 A 
HETATM    2  C4  LIG X 999      45.743 130.676  17.292  1.00  0.00     0.016 A 
HETATM    3  C5  LIG X 999      45.751 130.689  18.689  1.00  0.00     0.013 A 
HETATM    4  C6  LIG X 999      44.656 131.202  19.397  1.00  0.00    -0.026 A 
HETATM    5  C7  LIG X 999      44.655 131.219  20.800  1.00  0.00     0.012 A 
HETATM    6  C8  LIG X 999      43.558 131.740  21.494  1.00  0.00     0.001 A 
HETATM    7  C9  LIG X 999      42.460 132.247  20.795  1.00  0.00     0.001 A 
HETATM    8  C10 LIG X 999      42.449 132.236  19.399  1.00  0.00     0.012 A 
HETATM    9  C11 LIG X 999      43.541 131.713  18.688  1.00  0.00    -0.025 A 
HETATM   10  C12 LIG X 999      43.542 131.696  17.285  1.00  0.00     0.028 A 
ENDROOT
BRANCH   1  11
HETATM   11  C2  LIG X 999      44.656 131.152  15.094  1.00  0.00     0.201 C 
HETATM   12  O1  LIG X 999      43.703 131.685  14.464  1.00  0.00    -0.286 OA
BRANCH  11  13
HETATM   13  C1  LIG X 999      45.757 130.555  14.316  1.00  0.00     0.195 C 
HETATM   14  N1  LIG X 999      46.771 131.270  13.933  1.00  0.00    -0.164 NA
BRANCH  14  15
HETATM   15  N2  LIG X 999      47.837 130.768  13.163  1.00  0.00    -0.177 N 
HETATM   16  H2  LIG X 999      48.223 131.353  12.390  1.00  0.00     0.214 HD
HETATM   17  N3  LIG X 999      48.346 129.625  13.389  1.00  0.00    -0.031 N 
ENDBRANCH  14  15
ENDBRANCH  11  13
ENDBRANCH   1  11
TORSDOF 3
