REMARK VINA RESULT:      -6.6      0.000      0.000
REMARK  4 active torsions:
REMARK  status: ('A' for Active; 'I' for Inactive)
REMARK    1  A    between atoms: C2_2  and  C3_3 
REMARK    2  A    between atoms: C2_2  and  N1_9 
REMARK    3  A    between atoms: C3_3  and  C4_4 
REMARK       I    between atoms: N1_9  and  C8_10 
REMARK       I    between atoms: C8_10  and  N2_12 
REMARK    4  A    between atoms: N2_12  and  C9_13 
ROOT
HETATM    1  C9  LIG X 999      43.389 126.065  24.046  1.00  0.00     0.056 A 
HETATM    2  C10 LIG X 999      44.588 125.372  23.825  1.00  0.00     0.003 A 
HETATM    3  C11 LIG X 999      44.600 124.127  23.268  1.00  0.00    -0.021 A 
HETATM    4  C12 LIG X 999      43.426 123.474  22.905  1.00  0.00     0.022 A 
HETATM    5  C13 LIG X 999      42.197 124.130  23.105  1.00  0.00    -0.023 A 
HETATM    6  C14 LIG X 999      40.996 123.504  22.742  1.00  0.00     0.012 A 
HETATM    7  C15 LIG X 999      39.776 124.153  22.940  1.00  0.00     0.001 A 
HETATM    8  C16 LIG X 999      39.742 125.430  23.503  1.00  0.00     0.001 A 
HETATM    9  C17 LIG X 999      40.928 126.072  23.870  1.00  0.00     0.014 A 
HETATM   10  C18 LIG X 999      42.171 125.439  23.675  1.00  0.00     0.002 A 
HETATM   11  C19 LIG X 999      45.986 123.638  23.112  1.00  0.00     0.276 C 
HETATM   12  N3  LIG X 999      46.861 124.810  23.422  1.00  0.00    -0.067 N 
HETATM   13  C20 LIG X 999      47.430 125.365  22.170  1.00  0.00     0.272 C 
HETATM   14  C21 LIG X 999      47.969 124.414  24.321  1.00  0.00     0.272 C 
HETATM   15  C22 LIG X 999      45.978 125.827  24.075  1.00  0.00     0.278 C 
ENDROOT
BRANCH   1  16
HETATM   16  N2  LIG X 999      43.407 127.397  24.577  1.00  0.00    -0.307 N 
HETATM   17  C8  LIG X 999      43.818 128.528  23.799  1.00  0.00     0.321 C 
HETATM   18  N1  LIG X 999      43.761 129.841  24.373  1.00  0.00    -0.338 N 
HETATM   19  O1  LIG X 999      44.248 128.365  22.624  1.00  0.00    -0.247 OA
HETATM   20  H10 LIG X 999      43.363 129.945  25.334  1.00  0.00     0.164 HD
HETATM   21  H11 LIG X 999      43.224 127.529  25.597  1.00  0.00     0.170 HD
BRANCH  18  22
HETATM   22  C2  LIG X 999      44.128 131.055  23.637  1.00  0.00     0.086 C 
HETATM   23  C1  LIG X 999      44.323 132.208  24.623  1.00  0.00     0.032 C 
BRANCH  22  24
HETATM   24  C3  LIG X 999      43.037 131.401  22.611  1.00  0.00     0.071 C 
BRANCH  24  25
HETATM   25  C4  LIG X 999      43.591 131.440  21.219  1.00  0.00    -0.016 A 
HETATM   26  C5  LIG X 999      44.909 131.185  20.858  1.00  0.00     0.015 A 
HETATM   27  C6  LIG X 999      45.142 131.341  19.487  1.00  0.00     0.008 A 
HETATM   28  C7  LIG X 999      44.019 131.734  18.771  1.00  0.00     0.050 A 
HETATM   29  S1  LIG X 999      42.733 131.887  19.844  1.00  0.00    -0.106 SA
ENDBRANCH  24  25
ENDBRANCH  22  24
ENDBRANCH  18  22
ENDBRANCH   1  16
TORSDOF 4
