MODEL 1
REMARK VINA RESULT:      -8.0      0.000      0.000
REMARK  2 active torsions:
REMARK  status: ('A' for Active; 'I' for Inactive)
REMARK    1  A    between atoms: N1_1  and  C1_2 
REMARK    2  A    between atoms: C2_5  and  C3_6 
ROOT
HETATM    1  C3  LIG X 999      44.360 131.495  17.406  1.00  0.00     0.030 A 
HETATM    2  C4  LIG X 999      43.089 131.894  16.956  1.00  0.00     0.017 A 
HETATM    3  C5  LIG X 999      42.054 132.141  17.857  1.00  0.00     0.002 A 
HETATM    4  C6  LIG X 999      42.263 131.996  19.225  1.00  0.00     0.012 A 
HETATM    5  C7  LIG X 999      43.525 131.626  19.711  1.00  0.00    -0.025 A 
HETATM    6  C8  LIG X 999      43.730 131.509  21.095  1.00  0.00     0.012 A 
HETATM    7  C9  LIG X 999      44.989 131.179  21.595  1.00  0.00     0.001 A 
HETATM    8  C10 LIG X 999      46.055 130.976  20.721  1.00  0.00     0.001 A 
HETATM    9  C11 LIG X 999      45.870 131.084  19.341  1.00  0.00     0.013 A 
HETATM   10  C12 LIG X 999      44.597 131.386  18.806  1.00  0.00    -0.011 A 
ENDROOT
BRANCH   1  11
HETATM   11  C2  LIG X 999      45.380 131.170  16.379  1.00  0.00     0.205 A 
HETATM   12  N3  LIG X 999      45.958 132.088  15.576  1.00  0.00    -0.119 NA
HETATM   13  N2  LIG X 999      46.780 131.427  14.775  1.00  0.00    -0.103 NA
HETATM   14  C1  LIG X 999      46.663 130.133  15.121  1.00  0.00     0.265 A 
HETATM   15  O1  LIG X 999      45.807 129.962  16.096  1.00  0.00    -0.255 OA
BRANCH  14  16
HETATM   16  N1  LIG X 999      47.384 129.075  14.496  1.00  0.00    -0.362 N 
HETATM   17  H1  LIG X 999      46.907 128.176  14.264  1.00  0.00     0.159 HD
HETATM   18  H2  LIG X 999      48.396 129.194  14.267  1.00  0.00     0.159 HD
ENDBRANCH  14  16
ENDBRANCH   1  11
TORSDOF 2
ENDMDL
MODEL 2
REMARK VINA RESULT:      -8.0      1.135      2.897
REMARK  2 active torsions:
REMARK  status: ('A' for Active; 'I' for Inactive)
REMARK    1  A    between atoms: N1_1  and  C1_2 
REMARK    2  A    between atoms: C2_5  and  C3_6 
ROOT
HETATM    1  C3  LIG X 999      45.289 130.874  18.380  1.00  0.00     0.030 A 
HETATM    2  C4  LIG X 999      46.209 130.492  19.372  1.00  0.00     0.017 A 
HETATM    3  C5  LIG X 999      45.954 130.736  20.720  1.00  0.00     0.002 A 
HETATM    4  C6  LIG X 999      44.775 131.365  21.109  1.00  0.00     0.012 A 
HETATM    5  C7  LIG X 999      43.822 131.735  20.150  1.00  0.00    -0.025 A 
HETATM    6  C8  LIG X 999      42.626 132.345  20.558  1.00  0.00     0.012 A 
HETATM    7  C9  LIG X 999      41.652 132.685  19.620  1.00  0.00     0.001 A 
HETATM    8  C10 LIG X 999      41.858 132.407  18.270  1.00  0.00     0.001 A 
HETATM    9  C11 LIG X 999      43.044 131.804  17.844  1.00  0.00     0.013 A 
HETATM   10  C12 LIG X 999      44.060 131.479  18.771  1.00  0.00    -0.011 A 
ENDROOT
BRANCH   1  11
HETATM   11  C2  LIG X 999      45.675 130.655  16.965  1.00  0.00     0.205 A 
HETATM   12  N3  LIG X 999      45.620 129.457  16.346  1.00  0.00    -0.119 NA
HETATM   13  N2  LIG X 999      46.072 129.644  15.115  1.00  0.00    -0.103 NA
HETATM   14  C1  LIG X 999      46.389 130.949  15.038  1.00  0.00     0.265 A 
HETATM   15  O1  LIG X 999      46.156 131.577  16.163  1.00  0.00    -0.255 OA
BRANCH  14  16
HETATM   16  N1  LIG X 999      46.918 131.570  13.871  1.00  0.00    -0.362 N 
HETATM   17  H1  LIG X 999      47.851 132.036  13.898  1.00  0.00     0.159 HD
HETATM   18  H2  LIG X 999      46.372 131.563  12.980  1.00  0.00     0.159 HD
ENDBRANCH  14  16
ENDBRANCH   1  11
TORSDOF 2
ENDMDL
MODEL 3
REMARK VINA RESULT:      -6.4      2.693      5.139
REMARK  2 active torsions:
REMARK  status: ('A' for Active; 'I' for Inactive)
REMARK    1  A    between atoms: N1_1  and  C1_2 
REMARK    2  A    between atoms: C2_5  and  C3_6 
ROOT
HETATM    1  C3  LIG X 999      44.873 131.127  16.937  1.00  0.00     0.030 A 
HETATM    2  C4  LIG X 999      43.617 131.691  16.654  1.00  0.00     0.017 A 
HETATM    3  C5  LIG X 999      43.219 131.934  15.341  1.00  0.00     0.002 A 
HETATM    4  C6  LIG X 999      44.064 131.618  14.281  1.00  0.00     0.012 A 
HETATM    5  C7  LIG X 999      45.312 131.029  14.524  1.00  0.00    -0.025 A 
HETATM    6  C8  LIG X 999      46.144 130.690  13.445  1.00  0.00     0.012 A 
HETATM    7  C9  LIG X 999      47.372 130.070  13.669  1.00  0.00     0.001 A 
HETATM    8  C10 LIG X 999      47.774 129.768  14.969  1.00  0.00     0.001 A 
HETATM    9  C11 LIG X 999      46.962 130.100  16.056  1.00  0.00     0.013 A 
HETATM   10  C12 LIG X 999      45.727 130.760  15.859  1.00  0.00    -0.011 A 
ENDROOT
BRANCH   1  11
HETATM   11  C2  LIG X 999      45.254 130.980  18.364  1.00  0.00     0.205 A 
HETATM   12  N3  LIG X 999      45.838 129.878  18.878  1.00  0.00    -0.119 NA
HETATM   13  N2  LIG X 999      45.992 130.100  20.175  1.00  0.00    -0.103 NA
HETATM   14  C1  LIG X 999      45.489 131.327  20.396  1.00  0.00     0.265 A 
HETATM   15  O1  LIG X 999      45.030 131.874  19.299  1.00  0.00    -0.255 OA
BRANCH  14  16
HETATM   16  N1  LIG X 999      45.459 131.954  21.675  1.00  0.00    -0.362 N 
HETATM   17  H1  LIG X 999      45.626 131.395  22.540  1.00  0.00     0.159 HD
HETATM   18  H2  LIG X 999      45.268 132.977  21.753  1.00  0.00     0.159 HD
ENDBRANCH  14  16
ENDBRANCH   1  11
TORSDOF 2
ENDMDL
MODEL 4
REMARK VINA RESULT:      -5.4      8.957     10.364
REMARK  2 active torsions:
REMARK  status: ('A' for Active; 'I' for Inactive)
REMARK    1  A    between atoms: N1_1  and  C1_2 
REMARK    2  A    between atoms: C2_5  and  C3_6 
ROOT
HETATM    1  C3  LIG X 999      51.458 136.876  23.005  1.00  0.00     0.030 A 
HETATM    2  C4  LIG X 999      52.233 137.803  23.724  1.00  0.00     0.017 A 
HETATM    3  C5  LIG X 999      52.199 139.161  23.412  1.00  0.00     0.002 A 
HETATM    4  C6  LIG X 999      51.391 139.625  22.379  1.00  0.00     0.012 A 
HETATM    5  C7  LIG X 999      50.584 138.733  21.659  1.00  0.00    -0.025 A 
HETATM    6  C8  LIG X 999      49.753 139.218  20.636  1.00  0.00     0.012 A 
HETATM    7  C9  LIG X 999      48.917 138.349  19.937  1.00  0.00     0.001 A 
HETATM    8  C10 LIG X 999      48.892 136.993  20.261  1.00  0.00     0.001 A 
HETATM    9  C11 LIG X 999      49.714 136.492  21.272  1.00  0.00     0.013 A 
HETATM   10  C12 LIG X 999      50.595 137.346  21.975  1.00  0.00    -0.011 A 
ENDROOT
BRANCH   1  11
HETATM   11  C2  LIG X 999      51.616 135.441  23.344  1.00  0.00     0.205 A 
HETATM   12  N3  LIG X 999      52.748 134.737  23.130  1.00  0.00    -0.119 NA
HETATM   13  N2  LIG X 999      52.503 133.496  23.521  1.00  0.00    -0.103 NA
HETATM   14  C1  LIG X 999      51.229 133.495  23.952  1.00  0.00     0.265 A 
HETATM   15  O1  LIG X 999      50.674 134.675  23.845  1.00  0.00    -0.255 OA
BRANCH  14  16
HETATM   16  N1  LIG X 999      50.564 132.343  24.462  1.00  0.00    -0.362 N 
HETATM   17  H1  LIG X 999      49.523 132.280  24.437  1.00  0.00     0.159 HD
HETATM   18  H2  LIG X 999      51.117 131.554  24.865  1.00  0.00     0.159 HD
ENDBRANCH  14  16
ENDBRANCH   1  11
TORSDOF 2
ENDMDL
MODEL 5
REMARK VINA RESULT:      -5.4      3.073      4.681
REMARK  2 active torsions:
REMARK  status: ('A' for Active; 'I' for Inactive)
REMARK    1  A    between atoms: N1_1  and  C1_2 
REMARK    2  A    between atoms: C2_5  and  C3_6 
ROOT
HETATM    1  C3  LIG X 999      43.584 131.168  21.867  1.00  0.00     0.030 A 
HETATM    2  C4  LIG X 999      42.922 132.104  22.680  1.00  0.00     0.017 A 
HETATM    3  C5  LIG X 999      42.745 131.872  24.043  1.00  0.00     0.002 A 
HETATM    4  C6  LIG X 999      43.226 130.703  24.625  1.00  0.00     0.012 A 
HETATM    5  C7  LIG X 999      43.915 129.761  23.851  1.00  0.00    -0.025 A 
HETATM    6  C8  LIG X 999      44.419 128.598  24.455  1.00  0.00     0.012 A 
HETATM    7  C9  LIG X 999      45.139 127.669  23.706  1.00  0.00     0.001 A 
HETATM    8  C10 LIG X 999      45.375 127.899  22.351  1.00  0.00     0.001 A 
HETATM    9  C11 LIG X 999      44.880 129.047  21.731  1.00  0.00     0.013 A 
HETATM   10  C12 LIG X 999      44.118 129.989  22.461  1.00  0.00    -0.011 A 
ENDROOT
BRANCH   1  11
HETATM   11  C2  LIG X 999      43.655 131.452  20.413  1.00  0.00     0.205 A 
HETATM   12  N3  LIG X 999      42.583 131.763  19.653  1.00  0.00    -0.119 NA
HETATM   13  N2  LIG X 999      43.027 131.911  18.414  1.00  0.00    -0.103 NA
HETATM   14  C1  LIG X 999      44.349 131.677  18.470  1.00  0.00     0.265 A 
HETATM   15  O1  LIG X 999      44.745 131.390  19.684  1.00  0.00    -0.255 OA
BRANCH  14  16
HETATM   16  N1  LIG X 999      45.214 131.733  17.340  1.00  0.00    -0.362 N 
HETATM   17  H1  LIG X 999      44.902 131.357  16.417  1.00  0.00     0.159 HD
HETATM   18  H2  LIG X 999      46.167 132.150  17.429  1.00  0.00     0.159 HD
ENDBRANCH  14  16
ENDBRANCH   1  11
TORSDOF 2
ENDMDL
MODEL 6
REMARK VINA RESULT:      -5.3      7.664      9.160
REMARK  2 active torsions:
REMARK  status: ('A' for Active; 'I' for Inactive)
REMARK    1  A    between atoms: N1_1  and  C1_2 
REMARK    2  A    between atoms: C2_5  and  C3_6 
ROOT
HETATM    1  C3  LIG X 999      50.564 137.297  21.655  1.00  0.00     0.030 A 
HETATM    2  C4  LIG X 999      51.763 137.815  22.177  1.00  0.00     0.017 A 
HETATM    3  C5  LIG X 999      52.403 137.199  23.250  1.00  0.00     0.002 A 
HETATM    4  C6  LIG X 999      51.865 136.052  23.825  1.00  0.00     0.012 A 
HETATM    5  C7  LIG X 999      50.687 135.492  23.313  1.00  0.00    -0.025 A 
HETATM    6  C8  LIG X 999      50.168 134.320  23.886  1.00  0.00     0.012 A 
HETATM    7  C9  LIG X 999      49.018 133.730  23.364  1.00  0.00     0.001 A 
HETATM    8  C10 LIG X 999      48.384 134.295  22.259  1.00  0.00     0.001 A 
HETATM    9  C11 LIG X 999      48.883 135.463  21.678  1.00  0.00     0.013 A 
HETATM   10  C12 LIG X 999      50.028 136.100  22.208  1.00  0.00    -0.011 A 
ENDROOT
BRANCH   1  11
HETATM   11  C2  LIG X 999      49.903 138.061  20.569  1.00  0.00     0.205 A 
HETATM   12  N3  LIG X 999      49.348 139.280  20.736  1.00  0.00    -0.119 NA
HETATM   13  N2  LIG X 999      48.829 139.624  19.567  1.00  0.00    -0.103 NA
HETATM   14  C1  LIG X 999      49.084 138.596  18.738  1.00  0.00     0.265 A 
HETATM   15  O1  LIG X 999      49.735 137.633  19.339  1.00  0.00    -0.255 OA
BRANCH  14  16
HETATM   16  N1  LIG X 999      48.690 138.562  17.370  1.00  0.00    -0.362 N 
HETATM   17  H1  LIG X 999      49.187 139.147  16.663  1.00  0.00     0.159 HD
HETATM   18  H2  LIG X 999      47.899 137.951  17.068  1.00  0.00     0.159 HD
ENDBRANCH  14  16
ENDBRANCH   1  11
TORSDOF 2
ENDMDL
