REMARK VINA RESULT:      -8.7      2.016      2.950
REMARK  5 active torsions:
REMARK  status: ('A' for Active; 'I' for Inactive)
REMARK    1  A    between atoms: C2_2  and  C3_3 
REMARK    2  A    between atoms: C2_2  and  N1_13 
REMARK    3  A    between atoms: C14_15  and  C15_16 
REMARK    4  A    between atoms: C15_16  and  C16_17 
REMARK       I    between atoms: C16_17  and  N2_19 
REMARK    5  A    between atoms: N2_19  and  C17_20 
ROOT
HETATM    1  N1  LIG X 999      43.673 130.908  21.504  1.00  0.00    -0.274 N 
HETATM    2  C13 LIG X 999      44.618 130.000  21.813  1.00  0.00     0.137 A 
HETATM    3  C14 LIG X 999      44.113 129.268  22.864  1.00  0.00     0.078 A 
HETATM    4  N4  LIG X 999      42.897 129.757  23.183  1.00  0.00    -0.163 NA
HETATM    5  N5  LIG X 999      42.656 130.749  22.338  1.00  0.00     0.005 NA
ENDROOT
BRANCH   1   6
HETATM    6  C2  LIG X 999      43.742 131.966  20.493  1.00  0.00     0.134 C 
HETATM    7  C1  LIG X 999      42.356 132.574  20.234  1.00  0.00     0.039 C 
BRANCH   6   8
HETATM    8  C3  LIG X 999      44.409 131.447  19.230  1.00  0.00    -0.033 A 
HETATM    9  C4  LIG X 999      45.614 130.720  19.281  1.00  0.00     0.010 A 
HETATM   10  C5  LIG X 999      46.235 130.286  18.106  1.00  0.00     0.013 A 
HETATM   11  C6  LIG X 999      45.671 130.582  16.858  1.00  0.00    -0.026 A 
HETATM   12  C7  LIG X 999      46.289 130.149  15.673  1.00  0.00     0.012 A 
HETATM   13  C11 LIG X 999      44.471 131.329  16.792  1.00  0.00    -0.025 A 
HETATM   14  C8  LIG X 999      45.721 130.459  14.434  1.00  0.00     0.001 A 
HETATM   15  C9  LIG X 999      44.538 131.200  14.367  1.00  0.00     0.001 A 
HETATM   16  C10 LIG X 999      43.912 131.634  15.540  1.00  0.00     0.012 A 
HETATM   17  C12 LIG X 999      43.853 131.761  17.975  1.00  0.00     0.021 A 
ENDBRANCH   6   8
ENDBRANCH   1   6
BRANCH   3  18
HETATM   18  C15 LIG X 999      44.823 128.198  23.629  1.00  0.00     0.167 C 
BRANCH  18  19
HETATM   19  C16 LIG X 999      44.868 126.943  22.819  1.00  0.00     0.251 C 
HETATM   20  O1  LIG X 999      45.908 126.659  22.166  1.00  0.00    -0.271 OA
HETATM   21  N2  LIG X 999      43.724 126.079  22.798  1.00  0.00    -0.189 NA
BRANCH  21  22
HETATM   22  C17 LIG X 999      43.687 124.733  22.310  1.00  0.00     0.173 A 
HETATM   23  N3  LIG X 999      44.674 123.819  22.464  1.00  0.00    -0.344 N 
HETATM   24  C18 LIG X 999      44.333 122.607  21.951  1.00  0.00     0.097 A 
HETATM   25  H15 LIG X 999      45.583 123.988  22.945  1.00  0.00     0.167 HD
HETATM   26  C19 LIG X 999      43.057 122.543  21.399  1.00  0.00     0.070 A 
HETATM   27  S1  LIG X 999      42.339 124.057  21.568  1.00  0.00    -0.062 SA
ENDBRANCH  21  22
ENDBRANCH  18  19
ENDBRANCH   3  18
TORSDOF 5
