REMARK VINA RESULT:      -5.6      3.410      6.788
REMARK  4 active torsions:
REMARK  status: ('A' for Active; 'I' for Inactive)
REMARK    1  A    between atoms: C2_2  and  C3_3 
REMARK    2  A    between atoms: C2_2  and  N1_9 
REMARK    3  A    between atoms: C3_3  and  C4_4 
REMARK       I    between atoms: N1_9  and  C8_10 
REMARK       I    between atoms: C8_10  and  N2_12 
REMARK    4  A    between atoms: N2_12  and  C9_13 
ROOT
HETATM    1  C9  LIG X 999      44.063 126.514  22.944  1.00  0.00     0.056 A 
HETATM    2  C10 LIG X 999      43.154 125.539  23.380  1.00  0.00     0.003 A 
HETATM    3  C11 LIG X 999      41.989 125.876  24.004  1.00  0.00    -0.021 A 
HETATM    4  C12 LIG X 999      41.648 127.203  24.253  1.00  0.00     0.022 A 
HETATM    5  C13 LIG X 999      42.527 128.218  23.832  1.00  0.00    -0.023 A 
HETATM    6  C14 LIG X 999      42.209 129.565  24.060  1.00  0.00     0.012 A 
HETATM    7  C15 LIG X 999      43.080 130.573  23.643  1.00  0.00     0.001 A 
HETATM    8  C16 LIG X 999      44.274 130.249  22.998  1.00  0.00     0.001 A 
HETATM    9  C17 LIG X 999      44.609 128.913  22.761  1.00  0.00     0.014 A 
HETATM   10  C18 LIG X 999      43.744 127.879  23.167  1.00  0.00     0.002 A 
HETATM   11  C19 LIG X 999      41.200 124.669  24.327  1.00  0.00     0.276 C 
HETATM   12  N3  LIG X 999      41.893 123.541  23.630  1.00  0.00    -0.067 N 
HETATM   13  C20 LIG X 999      41.122 123.134  22.431  1.00  0.00     0.272 C 
HETATM   14  C21 LIG X 999      42.031 122.375  24.532  1.00  0.00     0.272 C 
HETATM   15  C22 LIG X 999      43.233 124.065  23.221  1.00  0.00     0.278 C 
ENDROOT
BRANCH   1  16
HETATM   16  N2  LIG X 999      45.252 126.135  22.238  1.00  0.00    -0.307 N 
HETATM   17  C8  LIG X 999      46.429 125.671  22.911  1.00  0.00     0.321 C 
HETATM   18  N1  LIG X 999      47.567 125.255  22.143  1.00  0.00    -0.338 N 
HETATM   19  O1  LIG X 999      46.470 125.651  24.172  1.00  0.00    -0.247 OA
HETATM   20  H10 LIG X 999      47.485 125.248  21.101  1.00  0.00     0.164 HD
HETATM   21  H11 LIG X 999      45.298 126.311  21.209  1.00  0.00     0.170 HD
BRANCH  18  22
HETATM   22  C2  LIG X 999      48.797 124.735  22.749  1.00  0.00     0.086 C 
HETATM   23  C1  LIG X 999      49.948 125.705  22.473  1.00  0.00     0.032 C 
BRANCH  22  24
HETATM   24  C3  LIG X 999      49.117 123.342  22.182  1.00  0.00     0.071 C 
BRANCH  24  25
HETATM   25  C4  LIG X 999      49.922 123.438  20.922  1.00  0.00    -0.016 A 
HETATM   26  C5  LIG X 999      49.412 123.481  19.630  1.00  0.00     0.015 A 
HETATM   27  C6  LIG X 999      50.409 123.525  18.649  1.00  0.00     0.008 A 
HETATM   28  C7  LIG X 999      51.700 123.499  19.162  1.00  0.00     0.050 A 
HETATM   29  S1  LIG X 999      51.601 123.423  20.839  1.00  0.00    -0.106 SA
ENDBRANCH  24  25
ENDBRANCH  22  24
ENDBRANCH  18  22
ENDBRANCH   1  16
TORSDOF 4
