REMARK VINA RESULT:      -8.4      0.000      0.000
REMARK  2 active torsions:
REMARK  status: ('A' for Active; 'I' for Inactive)
REMARK    1  A    between atoms: N1_1  and  C1_2 
REMARK    2  A    between atoms: C7_8  and  N2_9 
ROOT
HETATM    1  C1  LIG X 999      45.499 130.737  15.376  1.00  0.00     0.103 A 
HETATM    2  C2  LIG X 999      46.120 130.414  16.585  1.00  0.00     0.049 A 
HETATM    3  C3  LIG X 999      45.497 130.739  17.793  1.00  0.00     0.001 A 
HETATM    4  C4  LIG X 999      46.094 130.435  19.018  1.00  0.00     0.015 A 
HETATM    5  C5  LIG X 999      45.458 130.765  20.216  1.00  0.00     0.015 A 
HETATM    6  C6  LIG X 999      44.198 131.402  20.216  1.00  0.00     0.003 A 
HETATM    7  C7  LIG X 999      43.521 131.744  21.420  1.00  0.00     0.037 A 
HETATM    8  C8  LIG X 999      42.296 132.423  21.353  1.00  0.00     0.030 A 
HETATM    9  C9  LIG X 999      41.722 132.745  20.127  1.00  0.00     0.003 A 
HETATM   10  C10 LIG X 999      42.361 132.397  18.941  1.00  0.00     0.015 A 
HETATM   11  C11 LIG X 999      43.598 131.729  18.965  1.00  0.00     0.011 A 
HETATM   12  C12 LIG X 999      44.248 131.391  17.759  1.00  0.00     0.101 A 
HETATM   13  O1  LIG X 999      43.689 131.683  16.584  1.00  0.00    -0.272 OA
HETATM   14  C13 LIG X 999      44.254 131.388  15.417  1.00  0.00     0.314 A 
HETATM   15  O2  LIG X 999      43.660 131.697  14.351  1.00  0.00    -0.257 OA
ENDROOT
BRANCH   1  16
HETATM   16  N1  LIG X 999      46.128 130.409  14.132  1.00  0.00    -0.394 N 
HETATM   17  H1  LIG X 999      45.579 130.352  13.245  1.00  0.00     0.156 HD
HETATM   18  H2  LIG X 999      47.154 130.221  14.088  1.00  0.00     0.156 HD
ENDBRANCH   1  16
BRANCH   7  19
HETATM   19  N2  LIG X 999      44.035 131.407  22.720  1.00  0.00    -0.398 N 
HETATM   20  H6  LIG X 999      45.050 131.405  22.951  1.00  0.00     0.156 HD
HETATM   21  H7  LIG X 999      43.392 131.044  23.459  1.00  0.00     0.156 HD
ENDBRANCH   7  19
TORSDOF 2
