REMARK VINA RESULT:      -6.5      1.626      3.247
REMARK  7 active torsions:
REMARK  status: ('A' for Active; 'I' for Inactive)
REMARK    1  A    between atoms: N1_2  and  C2_3 
REMARK    2  A    between atoms: C2_3  and  C4_5 
REMARK    3  A    between atoms: C4_5  and  C5_6 
REMARK    4  A    between atoms: C5_6  and  C6_7 
REMARK    5  A    between atoms: C6_7  and  C7_8 
REMARK    6  A    between atoms: C7_8  and  N2_9 
REMARK    7  A    between atoms: N2_9  and  C8_10 
ROOT
HETATM    1  C8  LIG X 999      43.625 128.541  23.594  1.00  0.00     0.226 C 
HETATM    2  C9  LIG X 999      42.275 128.615  23.944  1.00  0.00     0.065 C 
HETATM    3  C10 LIG X 999      41.469 127.465  23.915  1.00  0.00    -0.045 C 
HETATM    4  C11 LIG X 999      39.982 127.697  24.012  1.00  0.00     0.049 C 
HETATM    5  C12 LIG X 999      42.075 126.192  23.662  1.00  0.00     0.010 C 
HETATM    6  C13 LIG X 999      43.421 126.205  23.195  1.00  0.00     0.070 C 
HETATM    7  C14 LIG X 999      44.021 125.046  22.707  1.00  0.00     0.033 C 
HETATM    8  C15 LIG X 999      43.323 123.847  22.678  1.00  0.00     0.014 C 
HETATM    9  C16 LIG X 999      42.046 123.763  23.241  1.00  0.00    -0.025 C 
HETATM   10  C17 LIG X 999      41.404 122.514  23.295  1.00  0.00     0.012 C 
HETATM   11  C18 LIG X 999      40.193 122.375  23.968  1.00  0.00     0.001 C 
HETATM   12  C19 LIG X 999      39.634 123.467  24.624  1.00  0.00     0.001 C 
HETATM   13  C20 LIG X 999      40.254 124.718  24.567  1.00  0.00     0.013 C 
HETATM   14  C21 LIG X 999      41.429 124.918  23.803  1.00  0.00    -0.013 C 
HETATM   15  N3  LIG X 999      44.145 127.354  23.197  1.00  0.00    -0.224 NA
ENDROOT
BRANCH   1  16
HETATM   16  N2  LIG X 999      44.460 129.716  23.622  1.00  0.00    -0.028 N 
HETATM   17  H17 LIG X 999      45.460 129.422  23.715  1.00  0.00     0.285 HD
HETATM   18  H18 LIG X 999      44.225 130.302  24.457  1.00  0.00     0.285 HD
BRANCH  16  19
HETATM   19  C7  LIG X 999      44.308 130.511  22.393  1.00  0.00     0.240 C 
BRANCH  19  20
HETATM   20  C6  LIG X 999      45.179 129.973  21.243  1.00  0.00     0.028 C 
BRANCH  20  21
HETATM   21  C5  LIG X 999      45.749 131.119  20.399  1.00  0.00     0.004 C 
BRANCH  21  22
HETATM   22  C4  LIG X 999      44.621 131.913  19.717  1.00  0.00     0.035 C 
BRANCH  22  23
HETATM   23  C2  LIG X 999      44.669 131.854  18.171  1.00  0.00     0.216 C 
HETATM   24  C3  LIG X 999      45.567 130.701  17.690  1.00  0.00     0.042 C 
BRANCH  23  25
HETATM   25  N1  LIG X 999      43.306 131.733  17.614  1.00  0.00     0.083 N 
HETATM   26  C1  LIG X 999      42.275 132.043  18.609  1.00  0.00     0.307 C 
HETATM   27  H4  LIG X 999      43.152 130.736  17.332  1.00  0.00     0.315 HD
ENDBRANCH  23  25
ENDBRANCH  22  23
ENDBRANCH  21  22
ENDBRANCH  20  21
ENDBRANCH  19  20
ENDBRANCH  16  19
ENDBRANCH   1  16
TORSDOF 7
