REMARK VINA RESULT:      -5.1      4.222      6.671
REMARK  5 active torsions:
REMARK  status: ('A' for Active; 'I' for Inactive)
REMARK    1  A    between atoms: C3_3  and  N1_4 
REMARK    2  A    between atoms: N1_4  and  C6_7 
REMARK    3  A    between atoms: C6_7  and  C7_8 
REMARK    4  A    between atoms: C9_10  and  C10_11 
REMARK    5  A    between atoms: C11_14  and  N4_15 
ROOT
HETATM    1  C1  LIG X 999      42.466 124.294  22.434  1.00  0.00     0.013 C 
HETATM    2  C2  LIG X 999      43.661 124.449  22.422  1.00  0.00    -0.089 C 
HETATM    3  C3  LIG X 999      45.127 124.636  22.406  1.00  0.00     0.329 C 
ENDROOT
BRANCH   3   4
HETATM    4  N1  LIG X 999      45.574 125.920  23.028  1.00  0.00    -0.061 N 
HETATM    5  C4  LIG X 999      46.894 125.733  23.687  1.00  0.00     0.273 C 
HETATM    6  C5  LIG X 999      45.706 126.982  21.998  1.00  0.00     0.273 C 
BRANCH   4   7
HETATM    7  C6  LIG X 999      44.604 126.343  24.088  1.00  0.00     0.275 C 
BRANCH   7   8
HETATM    8  C7  LIG X 999      43.990 127.713  23.870  1.00  0.00    -0.035 C 
HETATM    9  C8  LIG X 999      44.712 128.834  24.092  1.00  0.00     0.001 C 
HETATM   10  C9  LIG X 999      44.136 130.196  23.762  1.00  0.00     0.054 C 
HETATM   11  C12 LIG X 999      44.798 131.301  24.622  1.00  0.00     0.023 C 
HETATM   12  C16 LIG X 999      42.615 130.171  24.101  1.00  0.00     0.028 C 
HETATM   13  C13 LIG X 999      44.140 132.674  24.378  1.00  0.00     0.002 C 
HETATM   14  C14 LIG X 999      42.622 132.634  24.623  1.00  0.00     0.001 C 
HETATM   15  C15 LIG X 999      41.938 131.521  23.813  1.00  0.00     0.010 C 
HETATM   16  C17 LIG X 999      41.945 128.999  23.430  1.00  0.00    -0.020 C 
HETATM   17  C18 LIG X 999      42.590 127.827  23.378  1.00  0.00     0.005 C 
BRANCH  10  18
HETATM   18  C10 LIG X 999      44.410 130.448  22.286  1.00  0.00     0.184 A 
HETATM   19  N2  LIG X 999      45.285 129.733  21.545  1.00  0.00    -0.124 NA
HETATM   20  N3  LIG X 999      45.217 130.212  20.313  1.00  0.00    -0.099 NA
HETATM   21  C11 LIG X 999      44.300 131.192  20.351  1.00  0.00     0.326 A 
HETATM   22  O1  LIG X 999      43.794 131.343  21.550  1.00  0.00    -0.255 OA
BRANCH  21  23
HETATM   23  N4  LIG X 999      43.926 131.968  19.214  1.00  0.00    -0.023 NA
HETATM   24  N5  LIG X 999      44.558 131.885  18.161  1.00  0.00    -0.158 NA
HETATM   25  N6  LIG X 999      45.190 131.802  17.109  1.00  0.00     0.068 N 
ENDBRANCH  21  23
ENDBRANCH  10  18
ENDBRANCH   7   8
ENDBRANCH   4   7
ENDBRANCH   3   4
TORSDOF 5
