REMARK VINA RESULT:      -3.3      6.368      9.049
REMARK  5 active torsions:
REMARK  status: ('A' for Active; 'I' for Inactive)
REMARK    1  A    between atoms: C3_3  and  N1_4 
REMARK    2  A    between atoms: N1_4  and  C6_7 
REMARK    3  A    between atoms: C6_7  and  C7_8 
REMARK    4  A    between atoms: C9_10  and  C10_11 
REMARK    5  A    between atoms: C11_14  and  N4_15 
ROOT
HETATM    1  C1  LIG X 999      42.611 131.691  20.199  1.00  0.00     0.013 C 
HETATM    2  C2  LIG X 999      42.648 131.204  21.301  1.00  0.00    -0.089 C 
HETATM    3  C3  LIG X 999      42.690 130.607  22.653  1.00  0.00     0.329 C 
ENDROOT
BRANCH   3   4
HETATM    4  N1  LIG X 999      44.067 130.527  23.229  1.00  0.00    -0.061 N 
HETATM    5  C4  LIG X 999      45.060 130.311  22.144  1.00  0.00     0.273 C 
HETATM    6  C5  LIG X 999      44.410 131.786  23.940  1.00  0.00     0.273 C 
BRANCH   4   7
HETATM    7  C6  LIG X 999      44.167 129.360  24.162  1.00  0.00     0.275 C 
BRANCH   7   8
HETATM    8  C7  LIG X 999      44.809 128.124  23.558  1.00  0.00    -0.035 C 
HETATM    9  C8  LIG X 999      45.413 127.208  24.345  1.00  0.00     0.001 C 
HETATM   10  C9  LIG X 999      45.948 125.920  23.753  1.00  0.00     0.054 C 
HETATM   11  C12 LIG X 999      47.091 125.342  24.625  1.00  0.00     0.023 C 
HETATM   12  C16 LIG X 999      46.536 126.245  22.347  1.00  0.00     0.028 C 
HETATM   13  C13 LIG X 999      47.721 124.095  23.972  1.00  0.00     0.002 C 
HETATM   14  C14 LIG X 999      48.221 124.385  22.547  1.00  0.00     0.001 C 
HETATM   15  C15 LIG X 999      47.122 124.997  21.664  1.00  0.00     0.010 C 
HETATM   16  C17 LIG X 999      45.520 126.976  21.507  1.00  0.00    -0.020 C 
HETATM   17  C18 LIG X 999      44.747 127.903  22.087  1.00  0.00     0.005 C 
BRANCH  10  18
HETATM   18  C10 LIG X 999      44.785 124.940  23.698  1.00  0.00     0.184 A 
HETATM   19  N2  LIG X 999      44.860 123.706  23.154  1.00  0.00    -0.124 NA
HETATM   20  N3  LIG X 999      43.675 123.142  23.330  1.00  0.00    -0.099 NA
HETATM   21  C11 LIG X 999      42.930 124.051  23.982  1.00  0.00     0.326 A 
HETATM   22  O1  LIG X 999      43.598 125.153  24.217  1.00  0.00    -0.255 OA
BRANCH  21  23
HETATM   23  N4  LIG X 999      41.575 123.831  24.368  1.00  0.00    -0.023 NA
HETATM   24  N5  LIG X 999      40.744 123.443  23.547  1.00  0.00    -0.158 NA
HETATM   25  N6  LIG X 999      39.913 123.055  22.728  1.00  0.00     0.068 N 
ENDBRANCH  21  23
ENDBRANCH  10  18
ENDBRANCH   7   8
ENDBRANCH   4   7
ENDBRANCH   3   4
TORSDOF 5
