MODEL 1
REMARK VINA RESULT:      -5.6      0.000      0.000
REMARK  6 active torsions:
REMARK  status: ('A' for Active; 'I' for Inactive)
REMARK    1  A    between atoms: C8_8  and  O1_9 
REMARK    2  A    between atoms: O1_9  and  C9_10 
REMARK    3  A    between atoms: C9_10  and  C10_11 
REMARK    4  A    between atoms: C10_11  and  C11_12 
REMARK    5  A    between atoms: C11_12  and  N1_13 
REMARK    6  A    between atoms: C13_18  and  N4_19 
ROOT
HETATM    1  N1  LIG X 999      44.168 131.695  17.521  1.00  0.00    -0.116 NA
HETATM    2  N2  LIG X 999      44.171 131.563  16.296  1.00  0.00    -0.168 NA
HETATM    3  N3  LIG X 999      44.173 131.433  15.073  1.00  0.00     0.068 N 
ENDROOT
BRANCH   1   4
HETATM    4  C11 LIG X 999      42.919 131.762  18.267  1.00  0.00     0.191 C 
BRANCH   4   5
HETATM    5  C10 LIG X 999      43.192 131.841  19.772  1.00  0.00     0.051 C 
BRANCH   5   6
HETATM    6  C9  LIG X 999      44.675 131.638  20.079  1.00  0.00     0.170 C 
BRANCH   6   7
HETATM    7  O1  LIG X 999      44.848 131.545  21.478  1.00  0.00    -0.384 OA
BRANCH   7   8
HETATM    8  C8  LIG X 999      44.258 130.357  21.981  1.00  0.00     0.146 C 
HETATM    9  C7  LIG X 999      45.231 129.185  21.762  1.00  0.00     0.072 C 
HETATM   10  C5  LIG X 999      44.887 127.953  22.569  1.00  0.00    -0.047 A 
HETATM   11  C4  LIG X 999      44.051 128.020  23.711  1.00  0.00    -0.023 A 
HETATM   12  C6  LIG X 999      45.518 126.742  22.244  1.00  0.00     0.008 A 
HETATM   13  C3  LIG X 999      43.852 126.862  24.485  1.00  0.00     0.010 A 
HETATM   14  C13 LIG X 999      43.296 129.285  24.066  1.00  0.00     0.199 C 
HETATM   15  C2  LIG X 999      44.475 125.662  24.140  1.00  0.00     0.001 A 
HETATM   16  C1  LIG X 999      45.306 125.602  23.021  1.00  0.00     0.001 A 
HETATM   17  C12 LIG X 999      43.991 130.531  23.485  1.00  0.00     0.143 C 
HETATM   18 CL1  LIG X 999      43.003 131.996  23.788  1.00  0.00    -0.120 Cl
BRANCH  14  19
HETATM   19  N4  LIG X 999      41.924 129.200  23.568  1.00  0.00    -0.104 NA
HETATM   20  N5  LIG X 999      41.093 128.459  24.096  1.00  0.00    -0.167 NA
HETATM   21  N6  LIG X 999      40.264 127.720  24.623  1.00  0.00     0.068 N 
ENDBRANCH  14  19
ENDBRANCH   7   8
ENDBRANCH   6   7
ENDBRANCH   5   6
ENDBRANCH   4   5
ENDBRANCH   1   4
TORSDOF 6
ENDMDL
MODEL 2
REMARK VINA RESULT:      -5.3      3.967      4.900
REMARK  6 active torsions:
REMARK  status: ('A' for Active; 'I' for Inactive)
REMARK    1  A    between atoms: C8_8  and  O1_9 
REMARK    2  A    between atoms: O1_9  and  C9_10 
REMARK    3  A    between atoms: C9_10  and  C10_11 
REMARK    4  A    between atoms: C10_11  and  C11_12 
REMARK    5  A    between atoms: C11_12  and  N1_13 
REMARK    6  A    between atoms: C13_18  and  N4_19 
ROOT
HETATM    1  N1  LIG X 999      43.625 131.514  20.529  1.00  0.00    -0.116 NA
HETATM    2  N2  LIG X 999      42.835 131.827  19.638  1.00  0.00    -0.168 NA
HETATM    3  N3  LIG X 999      42.046 132.140  18.747  1.00  0.00     0.068 N 
ENDROOT
BRANCH   1   4
HETATM    4  C11 LIG X 999      43.170 131.301  21.896  1.00  0.00     0.191 C 
BRANCH   4   5
HETATM    5  C10 LIG X 999      44.106 130.339  22.634  1.00  0.00     0.051 C 
BRANCH   5   6
HETATM    6  C9  LIG X 999      43.317 129.280  23.404  1.00  0.00     0.170 C 
BRANCH   6   7
HETATM    7  O1  LIG X 999      44.221 128.345  23.958  1.00  0.00    -0.384 OA
BRANCH   7   8
HETATM    8  C8  LIG X 999      43.697 127.029  23.878  1.00  0.00     0.146 C 
HETATM    9  C7  LIG X 999      42.163 127.094  23.988  1.00  0.00     0.072 C 
HETATM   10  C5  LIG X 999      41.471 125.821  23.557  1.00  0.00    -0.047 A 
HETATM   11  C4  LIG X 999      42.116 124.863  22.736  1.00  0.00    -0.023 A 
HETATM   12  C6  LIG X 999      40.114 125.654  23.878  1.00  0.00     0.008 A 
HETATM   13  C3  LIG X 999      41.388 123.749  22.278  1.00  0.00     0.010 A 
HETATM   14  C13 LIG X 999      43.593 124.963  22.415  1.00  0.00     0.199 C 
HETATM   15  C2  LIG X 999      40.044 123.591  22.618  1.00  0.00     0.001 A 
HETATM   16  C1  LIG X 999      39.409 124.541  23.417  1.00  0.00     0.001 A 
HETATM   17  C12 LIG X 999      44.092 126.416  22.525  1.00  0.00     0.143 C 
HETATM   18 CL1  LIG X 999      45.868 126.489  22.290  1.00  0.00    -0.120 Cl
BRANCH  14  19
HETATM   19  N4  LIG X 999      44.356 124.104  23.319  1.00  0.00    -0.104 NA
HETATM   20  N5  LIG X 999      45.122 123.239  22.891  1.00  0.00    -0.167 NA
HETATM   21  N6  LIG X 999      45.886 122.375  22.464  1.00  0.00     0.068 N 
ENDBRANCH  14  19
ENDBRANCH   7   8
ENDBRANCH   6   7
ENDBRANCH   5   6
ENDBRANCH   4   5
ENDBRANCH   1   4
TORSDOF 6
ENDMDL
MODEL 3
REMARK VINA RESULT:      -5.0      3.705      5.997
REMARK  6 active torsions:
REMARK  status: ('A' for Active; 'I' for Inactive)
REMARK    1  A    between atoms: C8_8  and  O1_9 
REMARK    2  A    between atoms: O1_9  and  C9_10 
REMARK    3  A    between atoms: C9_10  and  C10_11 
REMARK    4  A    between atoms: C10_11  and  C11_12 
REMARK    5  A    between atoms: C11_12  and  N1_13 
REMARK    6  A    between atoms: C13_18  and  N4_19 
ROOT
HETATM    1  N1  LIG X 999      41.397 124.213  22.262  1.00  0.00    -0.116 NA
HETATM    2  N2  LIG X 999      42.051 123.384  21.630  1.00  0.00    -0.168 NA
HETATM    3  N3  LIG X 999      42.706 122.554  20.999  1.00  0.00     0.068 N 
ENDROOT
BRANCH   1   4
HETATM    4  C11 LIG X 999      42.047 125.332  22.931  1.00  0.00     0.191 C 
BRANCH   4   5
HETATM    5  C10 LIG X 999      43.542 125.056  23.117  1.00  0.00     0.051 C 
BRANCH   5   6
HETATM    6  C9  LIG X 999      44.356 126.348  23.049  1.00  0.00     0.170 C 
BRANCH   6   7
HETATM    7  O1  LIG X 999      43.980 127.186  24.122  1.00  0.00    -0.384 OA
BRANCH   7   8
HETATM    8  C8  LIG X 999      43.920 128.542  23.706  1.00  0.00     0.146 C 
HETATM    9  C7  LIG X 999      44.857 128.736  22.501  1.00  0.00     0.072 C 
HETATM   10  C5  LIG X 999      44.613 130.023  21.746  1.00  0.00    -0.047 A 
HETATM   11  C4  LIG X 999      43.392 130.734  21.859  1.00  0.00    -0.023 A 
HETATM   12  C6  LIG X 999      45.575 130.447  20.816  1.00  0.00     0.008 A 
HETATM   13  C3  LIG X 999      43.179 131.866  21.052  1.00  0.00     0.010 A 
HETATM   14  C13 LIG X 999      42.350 130.356  22.891  1.00  0.00     0.199 C 
HETATM   15  C2  LIG X 999      44.152 132.283  20.142  1.00  0.00     0.001 A 
HETATM   16  C1  LIG X 999      45.349 131.576  20.026  1.00  0.00     0.001 A 
HETATM   17  C12 LIG X 999      42.476 128.875  23.297  1.00  0.00     0.143 C 
HETATM   18 CL1  LIG X 999      41.335 128.489  24.625  1.00  0.00    -0.120 Cl
BRANCH  14  19
HETATM   19  N4  LIG X 999      42.486 131.209  24.070  1.00  0.00    -0.104 NA
HETATM   20  N5  LIG X 999      43.529 131.825  24.301  1.00  0.00    -0.167 NA
HETATM   21  N6  LIG X 999      44.568 132.439  24.531  1.00  0.00     0.068 N 
ENDBRANCH  14  19
ENDBRANCH   7   8
ENDBRANCH   6   7
ENDBRANCH   5   6
ENDBRANCH   4   5
ENDBRANCH   1   4
TORSDOF 6
ENDMDL
MODEL 4
REMARK VINA RESULT:      -4.8      2.915      3.913
REMARK  6 active torsions:
REMARK  status: ('A' for Active; 'I' for Inactive)
REMARK    1  A    between atoms: C8_8  and  O1_9 
REMARK    2  A    between atoms: O1_9  and  C9_10 
REMARK    3  A    between atoms: C9_10  and  C10_11 
REMARK    4  A    between atoms: C10_11  and  C11_12 
REMARK    5  A    between atoms: C11_12  and  N1_13 
REMARK    6  A    between atoms: C13_18  and  N4_19 
ROOT
HETATM    1  N1  LIG X 999      44.720 131.373  20.090  1.00  0.00    -0.116 NA
HETATM    2  N2  LIG X 999      43.693 131.697  19.491  1.00  0.00    -0.168 NA
HETATM    3  N3  LIG X 999      42.668 132.021  18.893  1.00  0.00     0.068 N 
ENDROOT
BRANCH   1   4
HETATM    4  C11 LIG X 999      44.790 131.425  21.544  1.00  0.00     0.191 C 
BRANCH   4   5
HETATM    5  C10 LIG X 999      43.738 130.503  22.169  1.00  0.00     0.051 C 
BRANCH   5   6
HETATM    6  C9  LIG X 999      44.369 129.554  23.188  1.00  0.00     0.170 C 
BRANCH   6   7
HETATM    7  O1  LIG X 999      43.399 128.614  23.604  1.00  0.00    -0.384 OA
BRANCH   7   8
HETATM    8  C8  LIG X 999      43.677 127.331  23.065  1.00  0.00     0.146 C 
HETATM    9  C7  LIG X 999      45.187 127.219  22.795  1.00  0.00     0.072 C 
HETATM   10  C5  LIG X 999      45.658 125.800  22.568  1.00  0.00    -0.047 A 
HETATM   11  C4  LIG X 999      44.896 124.685  22.996  1.00  0.00    -0.023 A 
HETATM   12  C6  LIG X 999      46.941 125.597  22.035  1.00  0.00     0.008 A 
HETATM   13  C3  LIG X 999      45.432 123.392  22.856  1.00  0.00     0.010 A 
HETATM   14  C13 LIG X 999      43.483 124.846  23.517  1.00  0.00     0.199 C 
HETATM   15  C2  LIG X 999      46.703 123.206  22.311  1.00  0.00     0.001 A 
HETATM   16  C1  LIG X 999      47.456 124.306  21.900  1.00  0.00     0.001 A 
HETATM   17  C12 LIG X 999      43.253 126.260  24.083  1.00  0.00     0.143 C 
HETATM   18 CL1  LIG X 999      41.537 126.476  24.554  1.00  0.00    -0.120 Cl
BRANCH  14  19
HETATM   19  N4  LIG X 999      42.525 124.576  22.446  1.00  0.00    -0.104 NA
HETATM   20  N5  LIG X 999      41.978 123.477  22.335  1.00  0.00    -0.167 NA
HETATM   21  N6  LIG X 999      41.432 122.382  22.224  1.00  0.00     0.068 N 
ENDBRANCH  14  19
ENDBRANCH   7   8
ENDBRANCH   6   7
ENDBRANCH   5   6
ENDBRANCH   4   5
ENDBRANCH   1   4
TORSDOF 6
ENDMDL
MODEL 5
REMARK VINA RESULT:      -4.8      2.783      3.698
REMARK  6 active torsions:
REMARK  status: ('A' for Active; 'I' for Inactive)
REMARK    1  A    between atoms: C8_8  and  O1_9 
REMARK    2  A    between atoms: O1_9  and  C9_10 
REMARK    3  A    between atoms: C9_10  and  C10_11 
REMARK    4  A    between atoms: C10_11  and  C11_12 
REMARK    5  A    between atoms: C11_12  and  N1_13 
REMARK    6  A    between atoms: C13_18  and  N4_19 
ROOT
HETATM    1  N1  LIG X 999      45.988 130.693  14.429  1.00  0.00    -0.116 NA
HETATM    2  N2  LIG X 999      46.983 130.038  14.116  1.00  0.00    -0.168 NA
HETATM    3  N3  LIG X 999      47.977 129.383  13.804  1.00  0.00     0.068 N 
ENDROOT
BRANCH   1   4
HETATM    4  C11 LIG X 999      46.052 131.702  15.477  1.00  0.00     0.191 C 
BRANCH   4   5
HETATM    5  C10 LIG X 999      45.222 131.274  16.692  1.00  0.00     0.051 C 
BRANCH   5   6
HETATM    6  C9  LIG X 999      45.889 130.120  17.440  1.00  0.00     0.170 C 
BRANCH   6   7
HETATM    7  O1  LIG X 999      46.331 130.582  18.699  1.00  0.00    -0.384 OA
BRANCH   7   8
HETATM    8  C8  LIG X 999      45.338 130.372  19.691  1.00  0.00     0.146 C 
HETATM    9  C7  LIG X 999      45.784 129.221  20.609  1.00  0.00     0.072 C 
HETATM   10  C5  LIG X 999      45.004 129.141  21.902  1.00  0.00    -0.047 A 
HETATM   11  C4  LIG X 999      44.273 130.247  22.401  1.00  0.00    -0.023 A 
HETATM   12  C6  LIG X 999      45.119 127.980  22.683  1.00  0.00     0.008 A 
HETATM   13  C3  LIG X 999      43.655 130.150  23.661  1.00  0.00     0.010 A 
HETATM   14  C13 LIG X 999      44.065 131.497  21.571  1.00  0.00     0.199 C 
HETATM   15  C2  LIG X 999      43.766 128.983  24.419  1.00  0.00     0.001 A 
HETATM   16  C1  LIG X 999      44.496 127.899  23.930  1.00  0.00     0.001 A 
HETATM   17  C12 LIG X 999      45.177 131.659  20.516  1.00  0.00     0.143 C 
HETATM   18 CL1  LIG X 999      44.830 133.057  19.450  1.00  0.00    -0.120 Cl
BRANCH  14  19
HETATM   19  N4  LIG X 999      42.759 131.447  20.916  1.00  0.00    -0.104 NA
HETATM   20  N5  LIG X 999      42.056 132.452  20.805  1.00  0.00    -0.167 NA
HETATM   21  N6  LIG X 999      41.354 133.455  20.695  1.00  0.00     0.068 N 
ENDBRANCH  14  19
ENDBRANCH   7   8
ENDBRANCH   6   7
ENDBRANCH   5   6
ENDBRANCH   4   5
ENDBRANCH   1   4
TORSDOF 6
ENDMDL
MODEL 6
REMARK VINA RESULT:      -4.4      3.685      6.137
REMARK  6 active torsions:
REMARK  status: ('A' for Active; 'I' for Inactive)
REMARK    1  A    between atoms: C8_8  and  O1_9 
REMARK    2  A    between atoms: O1_9  and  C9_10 
REMARK    3  A    between atoms: C9_10  and  C10_11 
REMARK    4  A    between atoms: C10_11  and  C11_12 
REMARK    5  A    between atoms: C11_12  and  N1_13 
REMARK    6  A    between atoms: C13_18  and  N4_19 
ROOT
HETATM    1  N1  LIG X 999      46.546 124.304  22.611  1.00  0.00    -0.116 NA
HETATM    2  N2  LIG X 999      47.244 123.903  21.680  1.00  0.00    -0.168 NA
HETATM    3  N3  LIG X 999      47.942 123.502  20.749  1.00  0.00     0.068 N 
ENDROOT
BRANCH   1   4
HETATM    4  C11 LIG X 999      47.145 124.901  23.797  1.00  0.00     0.191 C 
BRANCH   4   5
HETATM    5  C10 LIG X 999      46.167 125.872  24.468  1.00  0.00     0.051 C 
BRANCH   5   6
HETATM    6  C9  LIG X 999      45.453 126.741  23.434  1.00  0.00     0.170 C 
BRANCH   6   7
HETATM    7  O1  LIG X 999      44.287 127.285  24.016  1.00  0.00    -0.384 OA
BRANCH   7   8
HETATM    8  C8  LIG X 999      44.101 128.632  23.610  1.00  0.00     0.146 C 
HETATM    9  C7  LIG X 999      44.974 128.906  22.373  1.00  0.00     0.072 C 
HETATM   10  C5  LIG X 999      44.597 130.170  21.635  1.00  0.00    -0.047 A 
HETATM   11  C4  LIG X 999      43.328 130.778  21.796  1.00  0.00    -0.023 A 
HETATM   12  C6  LIG X 999      45.487 130.674  20.672  1.00  0.00     0.008 A 
HETATM   13  C3  LIG X 999      42.993 131.892  21.003  1.00  0.00     0.010 A 
HETATM   14  C13 LIG X 999      42.359 130.314  22.864  1.00  0.00     0.199 C 
HETATM   15  C2  LIG X 999      43.894 132.389  20.062  1.00  0.00     0.001 A 
HETATM   16  C1  LIG X 999      45.140 131.782  19.897  1.00  0.00     0.001 A 
HETATM   17  C12 LIG X 999      42.620 128.847  23.257  1.00  0.00     0.143 C 
HETATM   18 CL1  LIG X 999      41.565 128.366  24.624  1.00  0.00    -0.120 Cl
BRANCH  14  19
HETATM   19  N4  LIG X 999      42.469 131.173  24.042  1.00  0.00    -0.104 NA
HETATM   20  N5  LIG X 999      43.516 131.766  24.309  1.00  0.00    -0.167 NA
HETATM   21  N6  LIG X 999      44.560 132.357  24.577  1.00  0.00     0.068 N 
ENDBRANCH  14  19
ENDBRANCH   7   8
ENDBRANCH   6   7
ENDBRANCH   5   6
ENDBRANCH   4   5
ENDBRANCH   1   4
TORSDOF 6
ENDMDL
MODEL 7
REMARK VINA RESULT:      -4.1      4.424      5.635
REMARK  6 active torsions:
REMARK  status: ('A' for Active; 'I' for Inactive)
REMARK    1  A    between atoms: C8_8  and  O1_9 
REMARK    2  A    between atoms: O1_9  and  C9_10 
REMARK    3  A    between atoms: C9_10  and  C10_11 
REMARK    4  A    between atoms: C10_11  and  C11_12 
REMARK    5  A    between atoms: C11_12  and  N1_13 
REMARK    6  A    between atoms: C13_18  and  N4_19 
ROOT
HETATM    1  N1  LIG X 999      46.931 130.902  13.282  1.00  0.00    -0.116 NA
HETATM    2  N2  LIG X 999      47.837 130.071  13.356  1.00  0.00    -0.168 NA
HETATM    3  N3  LIG X 999      48.742 129.241  13.429  1.00  0.00     0.068 N 
ENDROOT
BRANCH   1   4
HETATM    4  C11 LIG X 999      45.828 130.897  14.233  1.00  0.00     0.191 C 
BRANCH   4   5
HETATM    5  C10 LIG X 999      46.090 131.889  15.371  1.00  0.00     0.051 C 
BRANCH   5   6
HETATM    6  C9  LIG X 999      44.782 132.375  15.995  1.00  0.00     0.170 C 
BRANCH   6   7
HETATM    7  O1  LIG X 999      44.235 131.338  16.784  1.00  0.00    -0.384 OA
BRANCH   7   8
HETATM    8  C8  LIG X 999      44.552 131.528  18.155  1.00  0.00     0.146 C 
HETATM    9  C7  LIG X 999      43.260 131.849  18.926  1.00  0.00     0.072 C 
HETATM   10  C5  LIG X 999      43.401 131.713  20.425  1.00  0.00    -0.047 A 
HETATM   11  C4  LIG X 999      44.445 130.955  21.010  1.00  0.00    -0.023 A 
HETATM   12  C6  LIG X 999      42.393 132.248  21.244  1.00  0.00     0.008 A 
HETATM   13  C3  LIG X 999      44.464 130.774  22.406  1.00  0.00     0.010 A 
HETATM   14  C13 LIG X 999      45.589 130.411  20.179  1.00  0.00     0.199 C 
HETATM   15  C2  LIG X 999      43.463 131.325  23.207  1.00  0.00     0.001 A 
HETATM   16  C1  LIG X 999      42.430 132.062  22.627  1.00  0.00     0.001 A 
HETATM   17  C12 LIG X 999      45.175 130.234  18.706  1.00  0.00     0.143 C 
HETATM   18 CL1  LIG X 999      46.583 129.736  17.714  1.00  0.00    -0.120 Cl
BRANCH  14  19
HETATM   19  N4  LIG X 999      46.739 131.310  20.270  1.00  0.00    -0.104 NA
HETATM   20  N5  LIG X 999      46.696 132.343  20.940  1.00  0.00    -0.167 NA
HETATM   21  N6  LIG X 999      46.653 133.374  21.609  1.00  0.00     0.068 N 
ENDBRANCH  14  19
ENDBRANCH   7   8
ENDBRANCH   6   7
ENDBRANCH   5   6
ENDBRANCH   4   5
ENDBRANCH   1   4
TORSDOF 6
ENDMDL
MODEL 8
REMARK VINA RESULT:      -3.7      3.104      6.468
REMARK  6 active torsions:
REMARK  status: ('A' for Active; 'I' for Inactive)
REMARK    1  A    between atoms: C8_8  and  O1_9 
REMARK    2  A    between atoms: O1_9  and  C9_10 
REMARK    3  A    between atoms: C9_10  and  C10_11 
REMARK    4  A    between atoms: C10_11  and  C11_12 
REMARK    5  A    between atoms: C11_12  and  N1_13 
REMARK    6  A    between atoms: C13_18  and  N4_19 
ROOT
HETATM    1  N1  LIG X 999      45.999 126.595  23.804  1.00  0.00    -0.116 NA
HETATM    2  N2  LIG X 999      46.545 125.831  23.007  1.00  0.00    -0.168 NA
HETATM    3  N3  LIG X 999      47.090 125.069  22.209  1.00  0.00     0.068 N 
ENDROOT
BRANCH   1   4
HETATM    4  C11 LIG X 999      44.658 127.107  23.556  1.00  0.00     0.191 C 
BRANCH   4   5
HETATM    5  C10 LIG X 999      44.660 128.639  23.530  1.00  0.00     0.051 C 
BRANCH   5   6
HETATM    6  C9  LIG X 999      44.899 129.169  22.117  1.00  0.00     0.170 C 
BRANCH   6   7
HETATM    7  O1  LIG X 999      45.230 130.541  22.189  1.00  0.00    -0.384 OA
BRANCH   7   8
HETATM    8  C8  LIG X 999      44.751 131.235  21.048  1.00  0.00     0.146 C 
HETATM    9  C7  LIG X 999      45.606 130.846  19.830  1.00  0.00     0.072 C 
HETATM   10  C5  LIG X 999      44.983 131.226  18.506  1.00  0.00    -0.047 A 
HETATM   11  C4  LIG X 999      43.597 131.493  18.384  1.00  0.00    -0.023 A 
HETATM   12  C6  LIG X 999      45.783 131.185  17.353  1.00  0.00     0.008 A 
HETATM   13  C3  LIG X 999      43.054 131.736  17.109  1.00  0.00     0.010 A 
HETATM   14  C13 LIG X 999      42.704 131.611  19.602  1.00  0.00     0.199 C 
HETATM   15  C2  LIG X 999      43.865 131.707  15.974  1.00  0.00     0.001 A 
HETATM   16  C1  LIG X 999      45.228 131.433  16.096  1.00  0.00     0.001 A 
HETATM   17  C12 LIG X 999      43.286 130.837  20.800  1.00  0.00     0.143 C 
HETATM   18 CL1  LIG X 999      42.295 131.114  22.267  1.00  0.00    -0.120 Cl
BRANCH  14  19
HETATM   19  N4  LIG X 999      42.531 133.019  19.955  1.00  0.00    -0.104 NA
HETATM   20  N5  LIG X 999      41.551 133.406  20.595  1.00  0.00    -0.167 NA
HETATM   21  N6  LIG X 999      40.574 133.792  21.233  1.00  0.00     0.068 N 
ENDBRANCH  14  19
ENDBRANCH   7   8
ENDBRANCH   6   7
ENDBRANCH   5   6
ENDBRANCH   4   5
ENDBRANCH   1   4
TORSDOF 6
ENDMDL
MODEL 9
REMARK VINA RESULT:      -3.6      6.340      8.555
REMARK  6 active torsions:
REMARK  status: ('A' for Active; 'I' for Inactive)
REMARK    1  A    between atoms: C8_8  and  O1_9 
REMARK    2  A    between atoms: O1_9  and  C9_10 
REMARK    3  A    between atoms: C9_10  and  C10_11 
REMARK    4  A    between atoms: C10_11  and  C11_12 
REMARK    5  A    between atoms: C11_12  and  N1_13 
REMARK    6  A    between atoms: C13_18  and  N4_19 
ROOT
HETATM    1  N1  LIG X 999      42.541 124.598  22.556  1.00  0.00    -0.116 NA
HETATM    2  N2  LIG X 999      41.946 125.379  23.298  1.00  0.00    -0.168 NA
HETATM    3  N3  LIG X 999      41.351 126.161  24.040  1.00  0.00     0.068 N 
ENDROOT
BRANCH   1   4
HETATM    4  C11 LIG X 999      43.995 124.511  22.566  1.00  0.00     0.191 C 
BRANCH   4   5
HETATM    5  C10 LIG X 999      44.621 125.896  22.378  1.00  0.00     0.051 C 
BRANCH   5   6
HETATM    6  C9  LIG X 999      46.147 125.819  22.375  1.00  0.00     0.170 C 
BRANCH   6   7
HETATM    7  O1  LIG X 999      46.551 124.654  23.065  1.00  0.00    -0.384 OA
BRANCH   7   8
HETATM    8  C8  LIG X 999      47.880 124.297  22.718  1.00  0.00     0.146 C 
HETATM    9  C7  LIG X 999      47.916 123.883  21.237  1.00  0.00     0.072 C 
HETATM   10  C5  LIG X 999      49.311 123.834  20.656  1.00  0.00    -0.047 A 
HETATM   11  C4  LIG X 999      50.396 124.514  21.262  1.00  0.00    -0.023 A 
HETATM   12  C6  LIG X 999      49.498 123.202  19.416  1.00  0.00     0.008 A 
HETATM   13  C3  LIG X 999      51.647 124.522  20.620  1.00  0.00     0.010 A 
HETATM   14  C13 LIG X 999      50.262 125.155  22.628  1.00  0.00     0.199 C 
HETATM   15  C2  LIG X 999      51.821 123.876  19.395  1.00  0.00     0.001 A 
HETATM   16  C1  LIG X 999      50.748 123.216  18.795  1.00  0.00     0.001 A 
HETATM   17  C12 LIG X 999      48.796 125.512  22.938  1.00  0.00     0.143 C 
HETATM   18 CL1  LIG X 999      48.641 126.129  24.614  1.00  0.00    -0.120 Cl
BRANCH  14  19
HETATM   19  N4  LIG X 999      50.783 124.252  23.653  1.00  0.00    -0.104 NA
HETATM   20  N5  LIG X 999      51.992 124.157  23.873  1.00  0.00    -0.167 NA
HETATM   21  N6  LIG X 999      53.197 124.061  24.091  1.00  0.00     0.068 N 
ENDBRANCH  14  19
ENDBRANCH   7   8
ENDBRANCH   6   7
ENDBRANCH   5   6
ENDBRANCH   4   5
ENDBRANCH   1   4
TORSDOF 6
ENDMDL
