REMARK VINA RESULT:      -4.7      6.568      7.634
REMARK  3 active torsions:
REMARK  status: ('A' for Active; 'I' for Inactive)
REMARK    1  A    between atoms: C3_3  and  S1_4 
REMARK    2  A    between atoms: S1_4  and  N1_7 
REMARK    3  A    between atoms: C10_16  and  N4_17 
ROOT
HETATM    1  N1  LIG X 999      44.568 130.207  22.003  1.00  0.00     0.026 NA
HETATM    2  N2  LIG X 999      43.864 131.006  21.387  1.00  0.00    -0.150 NA
HETATM    3  N3  LIG X 999      43.162 131.806  20.772  1.00  0.00     0.069 N 
ENDROOT
BRANCH   1   4
HETATM    4  S1  LIG X 999      43.909 129.311  23.325  1.00  0.00     0.311 S 
HETATM    5  O1  LIG X 999      42.419 129.504  23.357  1.00  0.00    -0.196 OA
HETATM    6  O2  LIG X 999      44.484 129.817  24.618  1.00  0.00    -0.196 OA
BRANCH   4   7
HETATM    7  C3  LIG X 999      44.280 127.601  23.125  1.00  0.00     0.084 A 
HETATM    8  C2  LIG X 999      43.316 126.630  23.414  1.00  0.00     0.026 A 
HETATM    9  C1  LIG X 999      43.608 125.276  23.239  1.00  0.00     0.009 A 
HETATM   10  C6  LIG X 999      44.872 124.871  22.783  1.00  0.00    -0.050 A 
HETATM   11  C5  LIG X 999      45.847 125.851  22.473  1.00  0.00    -0.023 A 
HETATM   12  C7  LIG X 999      45.106 123.404  22.509  1.00  0.00     0.039 C 
HETATM   13  C4  LIG X 999      45.537 127.210  22.650  1.00  0.00     0.035 A 
HETATM   14  C10 LIG X 999      47.247 125.467  22.029  1.00  0.00     0.179 C 
HETATM   15  C9  LIG X 999      47.282 124.055  21.426  1.00  0.00     0.035 C 
HETATM   16  C8  LIG X 999      46.589 123.053  22.351  1.00  0.00     0.007 C 
BRANCH  14  17
HETATM   17  N4  LIG X 999      48.169 125.530  23.161  1.00  0.00    -0.105 NA
HETATM   18  N5  LIG X 999      49.376 125.711  22.997  1.00  0.00    -0.167 NA
HETATM   19  N6  LIG X 999      50.581 125.894  22.832  1.00  0.00     0.068 N 
ENDBRANCH  14  17
ENDBRANCH   4   7
ENDBRANCH   1   4
TORSDOF 3
