REMARK VINA RESULT:      -6.7      2.447      3.345
REMARK  4 active torsions:
REMARK  status: ('A' for Active; 'I' for Inactive)
REMARK    1  A    between atoms: C3_3  and  O1_4 
REMARK    2  A    between atoms: O1_4  and  C4_5 
REMARK    3  A    between atoms: C4_5  and  O2_6 
REMARK    4  A    between atoms: C5_8  and  C6_9 
ROOT
HETATM    1  C1  LIG X 999      48.076 135.116  21.861  1.00  0.00     0.014 C 
HETATM    2  C2  LIG X 999      47.724 133.980  21.660  1.00  0.00    -0.091 C 
HETATM    3  C3  LIG X 999      47.292 132.604  21.418  1.00  0.00     0.266 C 
ENDROOT
BRANCH   3   4
HETATM    4  O1  LIG X 999      46.063 132.626  20.730  1.00  0.00    -0.319 OA
BRANCH   4   5
HETATM    5  C4  LIG X 999      45.204 131.664  21.297  1.00  0.00     0.314 A 
HETATM    6  O3  LIG X 999      45.675 130.368  21.015  1.00  0.00    -0.312 OA
HETATM    7  C5  LIG X 999      44.435 130.723  20.440  1.00  0.00     0.254 A 
BRANCH   5   8
HETATM    8  O2  LIG X 999      44.898 131.778  22.659  1.00  0.00    -0.341 OA
HETATM    9  H4  LIG X 999      45.292 132.642  22.944  1.00  0.00     0.215 HD
ENDBRANCH   5   8
BRANCH   7  10
HETATM   10  C6  LIG X 999      44.531 130.946  18.957  1.00  0.00    -0.021 A 
HETATM   11  C7  LIG X 999      43.583 131.731  18.280  1.00  0.00     0.011 A 
HETATM   12  C8  LIG X 999      43.688 131.936  16.902  1.00  0.00     0.013 A 
HETATM   13  C9  LIG X 999      44.751 131.369  16.183  1.00  0.00    -0.026 A 
HETATM   14  C10 LIG X 999      44.864 131.564  14.797  1.00  0.00     0.012 A 
HETATM   15  C14 LIG X 999      45.724 130.597  16.863  1.00  0.00    -0.025 A 
HETATM   16  C11 LIG X 999      45.931 130.998  14.094  1.00  0.00     0.001 A 
HETATM   17  C12 LIG X 999      46.891 130.236  14.766  1.00  0.00     0.001 A 
HETATM   18  C13 LIG X 999      46.790 130.035  16.146  1.00  0.00     0.012 A 
HETATM   19  C15 LIG X 999      45.611 130.401  18.248  1.00  0.00     0.022 A 
ENDBRANCH   7  10
ENDBRANCH   4   5
ENDBRANCH   3   4
TORSDOF 4
