REMARK VINA RESULT:      -5.2      2.932      3.866
REMARK  5 active torsions:
REMARK  status: ('A' for Active; 'I' for Inactive)
REMARK    1  A    between atoms: C1_1  and  N1_2 
REMARK    2  A    between atoms: C2_5  and  O1_6 
REMARK    3  A    between atoms: C2_5  and  C5_12 
REMARK    4  A    between atoms: O1_6  and  C3_7 
REMARK    5  A    between atoms: C3_7  and  C4_9 
ROOT
HETATM    1  N1  LIG X 999      42.285 132.410  21.307  1.00  0.00    -0.082 NA
HETATM    2  N2  LIG X 999      41.293 133.139  21.318  1.00  0.00    -0.163 NA
HETATM    3  N3  LIG X 999      40.302 133.867  21.329  1.00  0.00     0.068 N 
ENDROOT
BRANCH   1   4
HETATM    4  C1  LIG X 999      42.923 132.071  20.076  1.00  0.00     0.193 C 
HETATM    5  C2  LIG X 999      44.133 131.502  20.076  1.00  0.00     0.101 C 
BRANCH   5   6
HETATM    6  O1  LIG X 999      44.746 131.207  21.303  1.00  0.00    -0.324 OA
BRANCH   6   7
HETATM    7  C3  LIG X 999      44.278 130.232  22.244  1.00  0.00     0.273 C 
HETATM    8 CL1  LIG X 999      45.081 128.644  22.061  1.00  0.00    -0.090 Cl
BRANCH   7   9
HETATM    9  C4  LIG X 999      44.350 130.741  23.692  1.00  0.00     0.309 C 
HETATM   10  F1  LIG X 999      44.766 129.721  24.527  1.00  0.00    -0.229 F 
HETATM   11 CL2  LIG X 999      42.792 131.385  24.284  1.00  0.00    -0.086 Cl
ENDBRANCH   7   9
ENDBRANCH   6   7
ENDBRANCH   5   6
BRANCH   5  12
HETATM   12  C5  LIG X 999      44.782 131.124  18.799  1.00  0.00    -0.000 A 
HETATM   13  C6  LIG X 999      45.918 130.300  18.817  1.00  0.00     0.015 A 
HETATM   14  C7  LIG X 999      46.547 129.931  17.625  1.00  0.00     0.013 A 
HETATM   15  C8  LIG X 999      46.047 130.381  16.395  1.00  0.00    -0.026 A 
HETATM   16  C9  LIG X 999      46.674 130.019  15.192  1.00  0.00     0.012 A 
HETATM   17  C13 LIG X 999      44.899 131.209  16.366  1.00  0.00    -0.025 A 
HETATM   18  C10 LIG X 999      46.166 130.475  13.972  1.00  0.00     0.001 A 
HETATM   19  C11 LIG X 999      45.033 131.293  13.944  1.00  0.00     0.001 A 
HETATM   20  C12 LIG X 999      44.399 131.661  15.134  1.00  0.00     0.012 A 
HETATM   21  C14 LIG X 999      44.273 131.573  17.568  1.00  0.00     0.026 A 
ENDBRANCH   5  12
ENDBRANCH   1   4
TORSDOF 5
