REMARK VINA RESULT:      -6.2      3.186      6.219
REMARK  3 active torsions:
REMARK  status: ('A' for Active; 'I' for Inactive)
REMARK    1  A    between atoms: O1_2  and  C1_3 
REMARK    2  A    between atoms: C1_3  and  C3_8 
REMARK    3  A    between atoms: C2_4  and  N1_5 
ROOT
HETATM    1  C3  LIG X 999      44.519 131.379  18.888  1.00  0.00    -0.001 A 
HETATM    2  C4  LIG X 999      43.368 132.184  18.986  1.00  0.00     0.015 A 
HETATM    3  C5  LIG X 999      42.673 132.288  20.193  1.00  0.00     0.013 A 
HETATM    4  C6  LIG X 999      43.116 131.591  21.325  1.00  0.00    -0.026 A 
HETATM    5  C7  LIG X 999      42.424 131.689  22.542  1.00  0.00     0.012 A 
HETATM    6  C8  LIG X 999      42.876 130.989  23.664  1.00  0.00     0.001 A 
HETATM    7  C9  LIG X 999      44.019 130.189  23.581  1.00  0.00     0.001 A 
HETATM    8  C10 LIG X 999      44.718 130.084  22.375  1.00  0.00     0.012 A 
HETATM    9  C11 LIG X 999      44.274 130.782  21.240  1.00  0.00    -0.025 A 
HETATM   10  C12 LIG X 999      44.967 130.685  20.024  1.00  0.00     0.026 A 
ENDROOT
BRANCH   1  11
HETATM   11  C1  LIG X 999      45.270 131.272  17.611  1.00  0.00     0.090 C 
HETATM   12  C2  LIG X 999      45.033 132.117  16.597  1.00  0.00     0.118 C 
BRANCH  11  13
HETATM   13  O1  LIG X 999      46.229 130.269  17.455  1.00  0.00    -0.358 OA
HETATM   14  H1  LIG X 999      47.210 130.432  17.643  1.00  0.00     0.217 HD
ENDBRANCH  11  13
BRANCH  12  15
HETATM   15  N1  LIG X 999      45.750 132.031  15.363  1.00  0.00    -0.406 N 
HETATM   16  H3  LIG X 999      45.284 131.615  14.527  1.00  0.00     0.155 HD
HETATM   17  H4  LIG X 999      46.731 132.374  15.267  1.00  0.00     0.155 HD
ENDBRANCH  12  15
ENDBRANCH   1  11
TORSDOF 3
