REMARK VINA RESULT:      -7.6      1.919      6.348
REMARK  2 active torsions:
REMARK  status: ('A' for Active; 'I' for Inactive)
REMARK    1  A    between atoms: C3_3  and  S1_4 
REMARK    2  A    between atoms: S1_4  and  C4_5 
ROOT
HETATM    1  C1  LIG X 999      42.947 131.709  23.891  1.00  0.00     0.013 C 
HETATM    2  C2  LIG X 999      43.093 131.566  22.702  1.00  0.00    -0.107 C 
HETATM    3  C3  LIG X 999      43.271 131.389  21.259  1.00  0.00     0.172 C 
ENDROOT
BRANCH   3   4
HETATM    4  S1  LIG X 999      45.019 131.032  20.877  1.00  0.00    -0.118 SA
BRANCH   4   5
HETATM    5  C4  LIG X 999      44.814 131.139  19.096  1.00  0.00     0.002 A 
HETATM    6  C5  LIG X 999      43.666 131.733  18.559  1.00  0.00     0.019 A 
HETATM    7  C6  LIG X 999      43.498 131.820  17.175  1.00  0.00     0.013 A 
HETATM    8  C7  LIG X 999      44.483 131.317  16.313  1.00  0.00    -0.026 A 
HETATM    9  C8  LIG X 999      44.326 131.397  14.921  1.00  0.00     0.012 A 
HETATM   10  C12 LIG X 999      45.651 130.722  16.853  1.00  0.00    -0.025 A 
HETATM   11  C9  LIG X 999      45.316 130.892  14.072  1.00  0.00     0.001 A 
HETATM   12  C10 LIG X 999      46.467 130.305  14.606  1.00  0.00     0.001 A 
HETATM   13  C11 LIG X 999      46.636 130.218  15.991  1.00  0.00     0.012 A 
HETATM   14  C13 LIG X 999      45.807 130.642  18.245  1.00  0.00     0.030 A 
ENDBRANCH   4   5
ENDBRANCH   3   4
TORSDOF 2
