REMARK VINA RESULT:      -7.7      0.000      0.000
REMARK  5 active torsions:
REMARK  status: ('A' for Active; 'I' for Inactive)
REMARK    1  A    between atoms: C6_6  and  C7_7 
REMARK       I    between atoms: C7_7  and  N1_9 
REMARK    2  A    between atoms: N1_9  and  C8_11 
REMARK    3  A    between atoms: C8_11  and  C9_12 
REMARK    4  A    between atoms: C9_12  and  N2_13 
REMARK    5  A    between atoms: C13_19  and  N5_20 
ROOT
HETATM    1  N2  LIG X 999      46.753 131.005  13.379  1.00  0.00    -0.114 NA
HETATM    2  N3  LIG X 999      47.691 130.209  13.391  1.00  0.00    -0.168 NA
HETATM    3  N4  LIG X 999      48.629 129.413  13.403  1.00  0.00     0.068 N 
ENDROOT
BRANCH   1   4
HETATM    4  C9  LIG X 999      45.703 130.929  14.383  1.00  0.00     0.208 C 
BRANCH   4   5
HETATM    5  C8  LIG X 999      45.855 132.080  15.376  1.00  0.00     0.147 C 
BRANCH   5   6
HETATM    6  N1  LIG X 999      45.794 131.594  16.755  1.00  0.00    -0.355 N 
HETATM    7  C7  LIG X 999      44.568 131.628  17.502  1.00  0.00     0.251 C 
HETATM    8  O1  LIG X 999      43.494 131.940  16.917  1.00  0.00    -0.268 OA
HETATM    9  H4  LIG X 999      46.647 131.175  17.187  1.00  0.00     0.162 HD
BRANCH   7  10
HETATM   10  C6  LIG X 999      44.537 131.286  18.945  1.00  0.00     0.032 A 
HETATM   11  C1  LIG X 999      45.533 130.483  19.520  1.00  0.00     0.017 A 
HETATM   12  C2  LIG X 999      45.491 130.165  20.878  1.00  0.00     0.011 A 
HETATM   13  C3  LIG X 999      44.447 130.632  21.695  1.00  0.00    -0.024 A 
HETATM   14  C4  LIG X 999      43.473 131.493  21.136  1.00  0.00    -0.049 A 
HETATM   15  C13 LIG X 999      44.467 130.315  23.184  1.00  0.00     0.179 C 
HETATM   16  C5  LIG X 999      43.517 131.794  19.765  1.00  0.00     0.024 A 
HETATM   17  C10 LIG X 999      42.330 132.036  21.961  1.00  0.00     0.039 C 
HETATM   18  C11 LIG X 999      42.644 132.037  23.458  1.00  0.00     0.007 C 
HETATM   19  C12 LIG X 999      43.141 130.659  23.889  1.00  0.00     0.035 C 
BRANCH  15  20
HETATM   20  N5  LIG X 999      44.807 128.912  23.422  1.00  0.00    -0.105 NA
HETATM   21  N6  LIG X 999      43.941 128.037  23.471  1.00  0.00    -0.167 NA
HETATM   22  N7  LIG X 999      43.078 127.162  23.521  1.00  0.00     0.068 N 
ENDBRANCH  15  20
ENDBRANCH   7  10
ENDBRANCH   5   6
ENDBRANCH   4   5
ENDBRANCH   1   4
TORSDOF 5
