REMARK VINA RESULT:      -6.9      5.120      6.956
REMARK  5 active torsions:
REMARK  status: ('A' for Active; 'I' for Inactive)
REMARK    1  A    between atoms: O1_2  and  S1_3 
REMARK    2  A    between atoms: S1_3  and  C1_4 
REMARK    3  A    between atoms: S1_3  and  C11_14 
REMARK    4  A    between atoms: C11_14  and  C12_15 
REMARK    5  A    between atoms: C12_15  and  N1_16 
ROOT
HETATM    1  N1  LIG X 999      42.835 131.811  23.361  1.00  0.00    -0.115 NA
HETATM    2  N2  LIG X 999      42.469 130.770  23.907  1.00  0.00    -0.168 NA
HETATM    3  N3  LIG X 999      42.104 129.730  24.452  1.00  0.00     0.068 N 
ENDROOT
BRANCH   1   4
HETATM    4  C12 LIG X 999      43.272 131.805  21.972  1.00  0.00     0.201 C 
BRANCH   4   5
HETATM    5  C11 LIG X 999      44.040 130.523  21.663  1.00  0.00     0.121 C 
BRANCH   5   6
HETATM    6  S1  LIG X 999      45.503 130.860  20.696  1.00  0.00    -0.056 S 
BRANCH   6   7
HETATM    7  O1  LIG X 999      46.332 132.205  21.269  1.00  0.00    -0.336 OA
HETATM    8  H1  LIG X 999      47.280 132.037  21.037  1.00  0.00     0.227 HD
ENDBRANCH   6   7
BRANCH   6   9
HETATM    9  C1  LIG X 999      45.153 131.011  18.984  1.00  0.00     0.017 A 
HETATM   10  C2  LIG X 999      43.989 131.666  18.568  1.00  0.00     0.021 A 
HETATM   11  C3  LIG X 999      43.707 131.804  17.206  1.00  0.00     0.013 A 
HETATM   12  C4  LIG X 999      44.590 131.287  16.247  1.00  0.00    -0.026 A 
HETATM   13  C5  LIG X 999      44.317 131.420  14.876  1.00  0.00     0.012 A 
HETATM   14  C9  LIG X 999      45.770 130.624  16.666  1.00  0.00    -0.025 A 
HETATM   15  C6  LIG X 999      45.207 130.901  13.931  1.00  0.00     0.001 A 
HETATM   16  C7  LIG X 999      46.372 130.248  14.344  1.00  0.00     0.001 A 
HETATM   17  C8  LIG X 999      46.655 130.108  15.706  1.00  0.00     0.012 A 
HETATM   18  C10 LIG X 999      46.043 130.491  18.036  1.00  0.00     0.032 A 
ENDBRANCH   6   9
ENDBRANCH   5   6
ENDBRANCH   4   5
ENDBRANCH   1   4
TORSDOF 5
