REMARK VINA RESULT:      -8.1      3.284      5.459
REMARK  2 active torsions:
REMARK  status: ('A' for Active; 'I' for Inactive)
REMARK    1  A    between atoms: C1_1  and  N1_14 
REMARK    2  A    between atoms: C2_2  and  C3_4 
ROOT
HETATM    1  C3  LIG X 999      45.566 131.162  17.337  1.00  0.00     0.003 A 
HETATM    2  C4  LIG X 999      45.407 132.336  16.577  1.00  0.00     0.015 A 
HETATM    3  C5  LIG X 999      45.936 132.429  15.287  1.00  0.00     0.013 A 
HETATM    4  C6  LIG X 999      46.641 131.352  14.734  1.00  0.00    -0.026 A 
HETATM    5  C7  LIG X 999      47.177 131.436  13.439  1.00  0.00     0.012 A 
HETATM    6  C8  LIG X 999      47.882 130.357  12.900  1.00  0.00     0.001 A 
HETATM    7  C9  LIG X 999      48.060 129.190  13.648  1.00  0.00     0.001 A 
HETATM    8  C10 LIG X 999      47.533 129.094  14.939  1.00  0.00     0.012 A 
HETATM    9  C11 LIG X 999      46.821 130.171  15.491  1.00  0.00    -0.025 A 
HETATM   10  C12 LIG X 999      46.288 130.087  16.787  1.00  0.00     0.026 A 
ENDROOT
BRANCH   1  11
HETATM   11  C2  LIG X 999      45.024 131.043  18.715  1.00  0.00     0.132 C 
HETATM   12  C1  LIG X 999      43.876 131.631  19.081  1.00  0.00     0.121 C 
HETATM   13  O1  LIG X 999      45.726 130.276  19.643  1.00  0.00    -0.190 OA
BRANCH  12  14
HETATM   14  N1  LIG X 999      43.365 131.515  20.412  1.00  0.00    -0.406 N 
HETATM   15  H9  LIG X 999      42.407 131.842  20.669  1.00  0.00     0.155 HD
HETATM   16  H10 LIG X 999      43.960 131.087  21.155  1.00  0.00     0.155 HD
ENDBRANCH  12  14
ENDBRANCH   1  11
TORSDOF 2
