REMARK VINA RESULT:      -3.7      6.255      8.851
REMARK  3 active torsions:
REMARK  status: ('A' for Active; 'I' for Inactive)
REMARK    1  A    between atoms: C3_3  and  O1_4 
REMARK    2  A    between atoms: O1_4  and  C4_5 
REMARK    3  A    between atoms: C15_16  and  C16_17 
ROOT
HETATM    1  C1  LIG X 999      42.526 127.941  23.859  1.00  0.00     0.014 C 
HETATM    2  C2  LIG X 999      42.386 126.766  23.628  1.00  0.00    -0.091 C 
HETATM    3  C3  LIG X 999      42.217 125.340  23.349  1.00  0.00     0.268 C 
ENDROOT
BRANCH   3   4
HETATM    4  O1  LIG X 999      43.405 124.838  22.745  1.00  0.00    -0.339 OA
BRANCH   4   5
HETATM    5  C4  LIG X 999      44.566 124.459  23.442  1.00  0.00     0.083 C 
HETATM    6  C5  LIG X 999      44.563 123.284  24.242  1.00  0.00     0.038 C 
HETATM    7  C6  LIG X 999      45.685 122.526  24.625  1.00  0.00     0.003 C 
HETATM    8  C7  LIG X 999      46.942 122.571  24.014  1.00  0.00     0.002 C 
HETATM    9  C8  LIG X 999      47.130 122.897  22.667  1.00  0.00     0.020 C 
HETATM   10  C9  LIG X 999      48.173 123.732  22.239  1.00  0.00     0.016 C 
HETATM   11  C10 LIG X 999      48.657 123.581  20.891  1.00  0.00    -0.078 C 
HETATM   12  C12 LIG X 999      48.708 124.773  23.026  1.00  0.00     0.020 C 
HETATM   13  C11 LIG X 999      49.061 123.455  19.763  1.00  0.00     0.018 C 
HETATM   14  C13 LIG X 999      48.052 125.408  24.101  1.00  0.00     0.002 C 
HETATM   15  C14 LIG X 999      46.663 125.405  24.317  1.00  0.00     0.017 C 
HETATM   16  C15 LIG X 999      45.701 125.287  23.293  1.00  0.00     0.035 C 
BRANCH  16  17
HETATM   17  C16 LIG X 999      45.838 126.085  22.052  1.00  0.00     0.272 C 
HETATM   18  O2  LIG X 999      45.414 127.271  21.987  1.00  0.00    -0.301 OA
ENDBRANCH  16  17
ENDBRANCH   4   5
ENDBRANCH   3   4
TORSDOF 3
