REMARK VINA RESULT:      -4.6      4.606      6.128
REMARK  2 active torsions:
REMARK  status: ('A' for Active; 'I' for Inactive)
REMARK       I    between atoms: N1_1  and  C1_2 
REMARK    1  A    between atoms: C1_2  and  C2_4 
REMARK    2  A    between atoms: C11_13  and  O2_14 
ROOT
HETATM    1  C2  LIG X 999      44.328 130.961  20.349  1.00  0.00     0.116 C 
HETATM    2  C3  LIG X 999      43.716 132.343  20.015  1.00  0.00     0.017 C 
HETATM    3  C4  LIG X 999      42.288 132.490  20.564  1.00  0.00     0.002 C 
HETATM    4  C5  LIG X 999      42.220 132.192  22.070  1.00  0.00     0.012 C 
HETATM    5  C6  LIG X 999      42.802 130.799  22.352  1.00  0.00     0.047 C 
HETATM    6  C7  LIG X 999      42.672 130.384  23.797  1.00  0.00    -0.019 C 
HETATM    7  C8  LIG X 999      43.399 129.354  24.248  1.00  0.00    -0.004 C 
HETATM    8  C9  LIG X 999      44.421 128.725  23.382  1.00  0.00    -0.001 C 
HETATM    9  C10 LIG X 999      44.810 129.317  22.242  1.00  0.00     0.012 C 
HETATM   10  C11 LIG X 999      44.286 130.703  21.883  1.00  0.00     0.095 C 
ENDROOT
BRANCH   1  11
HETATM   11  C1  LIG X 999      45.732 130.871  19.794  1.00  0.00     0.222 C 
HETATM   12  N1  LIG X 999      45.975 130.225  18.543  1.00  0.00    -0.370 N 
HETATM   13  H1  LIG X 999      45.192 129.803  17.995  1.00  0.00     0.159 HD
HETATM   14  H2  LIG X 999      46.946 130.161  18.164  1.00  0.00     0.159 HD
HETATM   15  O1  LIG X 999      46.702 131.352  20.439  1.00  0.00    -0.273 OA
ENDBRANCH   1  11
BRANCH  10  16
HETATM   16  O2  LIG X 999      45.077 131.682  22.525  1.00  0.00    -0.384 OA
HETATM   17  H15 LIG X 999      45.887 131.852  21.978  1.00  0.00     0.211 HD
ENDBRANCH  10  16
TORSDOF 2
