REMARK VINA RESULT:      -8.2      0.000      0.000
REMARK  2 active torsions:
REMARK  status: ('A' for Active; 'I' for Inactive)
REMARK    1  A    between atoms: N1_1  and  C1_2 
REMARK    2  A    between atoms: C2_5  and  C3_6 
ROOT
HETATM    1  C3  LIG X 999      44.330 131.412  17.358  1.00  0.00     0.030 A 
HETATM    2  C4  LIG X 999      43.060 131.839  16.930  1.00  0.00     0.017 A 
HETATM    3  C5  LIG X 999      42.074 132.189  17.851  1.00  0.00     0.002 A 
HETATM    4  C6  LIG X 999      42.331 132.118  19.217  1.00  0.00     0.012 A 
HETATM    5  C7  LIG X 999      43.575 131.671  19.680  1.00  0.00    -0.025 A 
HETATM    6  C8  LIG X 999      43.812 131.580  21.060  1.00  0.00     0.012 A 
HETATM    7  C9  LIG X 999      45.032 131.101  21.535  1.00  0.00     0.001 A 
HETATM    8  C10 LIG X 999      46.020 130.696  20.639  1.00  0.00     0.001 A 
HETATM    9  C11 LIG X 999      45.803 130.782  19.262  1.00  0.00     0.013 A 
HETATM   10  C12 LIG X 999      44.589 131.295  18.754  1.00  0.00    -0.011 A 
ENDROOT
BRANCH   1  11
HETATM   11  C2  LIG X 999      45.348 131.142  16.316  1.00  0.00     0.203 A 
HETATM   12  N3  LIG X 999      45.928 132.103  15.561  1.00  0.00    -0.145 NA
HETATM   13  N2  LIG X 999      46.794 131.475  14.785  1.00  0.00    -0.240 N 
HETATM   14  C1  LIG X 999      46.723 130.171  15.090  1.00  0.00     0.240 A 
HETATM   15  H3  LIG X 999      47.410 131.933  14.078  1.00  0.00     0.193 HD
HETATM   16  O1  LIG X 999      45.840 129.952  16.032  1.00  0.00    -0.257 OA
BRANCH  14  17
HETATM   17  N1  LIG X 999      47.506 129.156  14.469  1.00  0.00    -0.364 N 
HETATM   18  H1  LIG X 999      47.127 128.631  13.649  1.00  0.00     0.159 HD
HETATM   19  H2  LIG X 999      48.460 128.932  14.826  1.00  0.00     0.159 HD
ENDBRANCH  14  17
ENDBRANCH   1  11
TORSDOF 2
