REMARK VINA RESULT:      -8.1      1.704      2.443
REMARK  2 active torsions:
REMARK  status: ('A' for Active; 'I' for Inactive)
REMARK    1  A    between atoms: C6_6  and  C7_7 
REMARK    2  A    between atoms: C7_7  and  N1_8 
ROOT
HETATM    1  N1  LIG X 999      45.475 131.293  19.631  1.00  0.00    -0.106 NA
HETATM    2  N2  LIG X 999      45.068 131.287  20.793  1.00  0.00    -0.167 NA
HETATM    3  N3  LIG X 999      44.662 131.280  21.954  1.00  0.00     0.068 N 
ENDROOT
BRANCH   1   4
HETATM    4  C7  LIG X 999      44.609 130.883  18.529  1.00  0.00     0.174 C 
HETATM    5  C8  LIG X 999      43.331 131.721  18.548  1.00  0.00     0.042 C 
BRANCH   4   6
HETATM    6  C6  LIG X 999      45.320 131.035  17.200  1.00  0.00    -0.030 A 
HETATM    7  C5  LIG X 999      46.047 129.965  16.649  1.00  0.00     0.021 A 
HETATM    8  C4  LIG X 999      46.719 130.115  15.427  1.00  0.00    -0.025 A 
HETATM    9  C3  LIG X 999      47.441 129.047  14.871  1.00  0.00     0.012 A 
HETATM   10  C11 LIG X 999      46.671 131.356  14.747  1.00  0.00    -0.026 A 
HETATM   11  C2  LIG X 999      48.106 129.209  13.652  1.00  0.00     0.001 A 
HETATM   12  C1  LIG X 999      48.058 130.434  12.981  1.00  0.00     0.001 A 
HETATM   13  C12 LIG X 999      47.344 131.506  13.525  1.00  0.00     0.012 A 
HETATM   14  C10 LIG X 999      45.954 132.424  15.305  1.00  0.00     0.013 A 
HETATM   15  C9  LIG X 999      45.287 132.265  16.522  1.00  0.00     0.010 A 
ENDBRANCH   4   6
ENDBRANCH   1   4
TORSDOF 2
