REMARK VINA RESULT:      -9.3      0.000      0.000
REMARK  6 active torsions:
REMARK  status: ('A' for Active; 'I' for Inactive)
REMARK    1  A    between atoms: O1_2  and  C1_3 
REMARK    2  A    between atoms: C1_3  and  C4_6 
REMARK    3  A    between atoms: C4_6  and  O2_7 
REMARK    4  A    between atoms: C4_6  and  O3_9 
REMARK    5  A    between atoms: O3_9  and  C5_10 
REMARK    6  A    between atoms: C10_15  and  N1_16 
ROOT
HETATM    1  N1  LIG X 999      42.757 131.747  23.333  1.00  0.00    -0.073 NA
HETATM    2  N2  LIG X 999      42.312 130.797  23.980  1.00  0.00    -0.162 NA
HETATM    3  N3  LIG X 999      41.866 129.849  24.625  1.00  0.00     0.068 N 
ENDROOT
BRANCH   1   4
HETATM    4  C10 LIG X 999      43.451 131.571  22.091  1.00  0.00     0.094 A 
HETATM    5  C9  LIG X 999      42.760 131.793  20.894  1.00  0.00     0.046 A 
HETATM    6  C8  LIG X 999      43.404 131.632  19.658  1.00  0.00    -0.024 A 
HETATM    7  C7  LIG X 999      42.713 131.851  18.459  1.00  0.00     0.015 A 
HETATM    8  C13 LIG X 999      44.763 131.242  19.620  1.00  0.00    -0.023 A 
HETATM    9  C6  LIG X 999      43.363 131.687  17.233  1.00  0.00     0.038 A 
HETATM   10  C5  LIG X 999      44.709 131.309  17.181  1.00  0.00     0.073 A 
HETATM   11  C14 LIG X 999      45.408 131.080  18.383  1.00  0.00     0.049 A 
HETATM   12  C12 LIG X 999      45.453 131.019  20.820  1.00  0.00     0.014 A 
HETATM   13  C11 LIG X 999      44.804 131.182  22.047  1.00  0.00     0.035 A 
BRANCH  10  14
HETATM   14  O3  LIG X 999      45.301 131.162  15.916  1.00  0.00    -0.314 OA
BRANCH  14  15
HETATM   15  C4  LIG X 999      45.367 129.952  15.157  1.00  0.00     0.321 C 
BRANCH  15  16
HETATM   16  C1  LIG X 999      46.593 129.984  14.289  1.00  0.00     0.094 C 
HETATM   17  C2  LIG X 999      46.796 131.013  13.447  1.00  0.00     0.006 C 
HETATM   18  C3  LIG X 999      47.993 131.115  12.552  1.00  0.00     0.038 C 
BRANCH  16  19
HETATM   19  O1  LIG X 999      47.499 128.925  14.392  1.00  0.00    -0.360 OA
HETATM   20  H1  LIG X 999      48.181 128.704  13.676  1.00  0.00     0.217 HD
ENDBRANCH  16  19
ENDBRANCH  15  16
BRANCH  15  21
HETATM   21  O2  LIG X 999      45.445 128.846  16.018  1.00  0.00    -0.365 OA
HETATM   22  H7  LIG X 999      45.004 128.087  15.559  1.00  0.00     0.213 HD
ENDBRANCH  15  21
ENDBRANCH  14  15
ENDBRANCH  10  14
ENDBRANCH   1   4
TORSDOF 6
