REMARK VINA RESULT:      -8.1      0.000      0.000
REMARK  3 active torsions:
REMARK  status: ('A' for Active; 'I' for Inactive)
REMARK    1  A    between atoms: C7_9  and  C8_10 
REMARK    2  A    between atoms: C9_13  and  N4_14 
REMARK    3  A    between atoms: N7_23  and  C14_24 
ROOT
HETATM    1  N4  LIG X 999      46.445 129.714  14.086  1.00  0.00    -0.023 NA
HETATM    2  N5  LIG X 999      47.622 129.601  13.747  1.00  0.00    -0.158 NA
HETATM    3  N6  LIG X 999      48.800 129.489  13.408  1.00  0.00     0.068 N 
ENDROOT
BRANCH   1   4
HETATM    4  C9  LIG X 999      46.090 130.454  15.253  1.00  0.00     0.326 A 
HETATM    5  N3  LIG X 999      45.964 131.792  15.276  1.00  0.00    -0.099 NA
HETATM    6  N2  LIG X 999      45.629 132.100  16.520  1.00  0.00    -0.119 NA
HETATM    7  C8  LIG X 999      45.574 130.939  17.204  1.00  0.00     0.205 A 
HETATM    8  O1  LIG X 999      45.848 129.919  16.425  1.00  0.00    -0.252 OA
BRANCH   7   9
HETATM    9  C7  LIG X 999      45.194 130.836  18.627  1.00  0.00     0.032 A 
HETATM   10  C6  LIG X 999      44.024 131.456  19.168  1.00  0.00     0.020 A 
HETATM   11  C1  LIG X 999      42.890 132.121  18.445  1.00  0.00     0.060 A 
HETATM   12  C5  LIG X 999      43.867 131.378  20.541  1.00  0.00     0.019 A 
HETATM   13  N1  LIG X 999      42.817 132.111  17.152  1.00  0.00    -0.299 NA
HETATM   14  C2  LIG X 999      41.769 132.717  19.250  1.00  0.00     0.034 A 
HETATM   15  H1  LIG X 999      42.015 132.539  16.639  1.00  0.00     0.187 HD
HETATM   16  C3  LIG X 999      41.733 132.601  20.594  1.00  0.00     0.033 A 
HETATM   17  C4  LIG X 999      42.833 131.888  21.262  1.00  0.00     0.048 A 
HETATM   18  N7  LIG X 999      42.998 131.579  22.572  1.00  0.00    -0.324 N 
HETATM   19  C13 LIG X 999      44.146 130.850  22.641  1.00  0.00     0.193 A 
HETATM   20  C12 LIG X 999      44.706 130.722  21.381  1.00  0.00     0.032 A 
HETATM   21  O2  LIG X 999      44.658 130.303  23.812  1.00  0.00    -0.171 OA
HETATM   22  C11 LIG X 999      45.829 130.065  20.895  1.00  0.00     0.018 A 
HETATM   23  C10 LIG X 999      46.073 130.130  19.505  1.00  0.00     0.018 A 
BRANCH  18  24
HETATM   24  C14 LIG X 999      42.076 131.865  23.671  1.00  0.00     0.127 C 
HETATM   25  C15 LIG X 999      42.690 132.882  24.624  1.00  0.00     0.027 C 
ENDBRANCH  18  24
ENDBRANCH   7   9
ENDBRANCH   1   4
TORSDOF 3
