REMARK VINA RESULT:      -6.9      2.404      5.181
REMARK  1 active torsions:
REMARK  status: ('A' for Active; 'I' for Inactive)
REMARK    1  A    between atoms: C2_5  and  C3_6 
ROOT
HETATM    1  C3  LIG X 999      44.904 131.097  16.960  1.00  0.00     0.030 A 
HETATM    2  C4  LIG X 999      43.655 131.695  16.695  1.00  0.00     0.017 A 
HETATM    3  C5  LIG X 999      43.229 131.947  15.396  1.00  0.00     0.002 A 
HETATM    4  C6  LIG X 999      44.033 131.609  14.318  1.00  0.00     0.012 A 
HETATM    5  C7  LIG X 999      45.282 131.013  14.526  1.00  0.00    -0.025 A 
HETATM    6  C8  LIG X 999      46.072 130.682  13.413  1.00  0.00     0.012 A 
HETATM    7  C9  LIG X 999      47.318 130.087  13.586  1.00  0.00     0.001 A 
HETATM    8  C10 LIG X 999      47.788 129.816  14.866  1.00  0.00     0.001 A 
HETATM    9  C11 LIG X 999      47.016 130.137  15.987  1.00  0.00     0.013 A 
HETATM   10  C12 LIG X 999      45.744 130.743  15.851  1.00  0.00    -0.011 A 
ENDROOT
BRANCH   1  11
HETATM   11  C2  LIG X 999      45.230 130.887  18.406  1.00  0.00     0.203 A 
HETATM   12  O1  LIG X 999      44.719 131.624  19.375  1.00  0.00    -0.255 OA
HETATM   13  C1  LIG X 999      45.234 131.142  20.477  1.00  0.00     0.262 A 
HETATM   14  N1  LIG X 999      44.982 131.594  21.662  1.00  0.00    -0.260 NA
HETATM   15  N3  LIG X 999      46.059 130.120  20.224  1.00  0.00    -0.238 N 
HETATM   16  H1  LIG X 999      44.328 132.397  21.800  1.00  0.00     0.190 HD
HETATM   17  N2  LIG X 999      46.063 129.951  18.913  1.00  0.00    -0.145 NA
HETATM   18  H9  LIG X 999      46.606 129.549  20.907  1.00  0.00     0.193 HD
ENDBRANCH   1  11
TORSDOF 1
