REMARK VINA RESULT:      -5.6      5.742      7.643
REMARK  3 active torsions:
REMARK  status: ('A' for Active; 'I' for Inactive)
REMARK    1  A    between atoms: C3_3  and  S1_4 
REMARK    2  A    between atoms: S1_4  and  C4_5 
REMARK    3  A    between atoms: C8_9  and  N1_10 
ROOT
HETATM    1  C1  LIG X 999      42.998 131.905  20.648  1.00  0.00     0.013 C 
HETATM    2  C2  LIG X 999      43.466 131.251  21.547  1.00  0.00    -0.107 C 
HETATM    3  C3  LIG X 999      44.036 130.455  22.636  1.00  0.00     0.172 C 
ENDROOT
BRANCH   3   4
HETATM    4  S1  LIG X 999      42.713 129.802  23.709  1.00  0.00    -0.117 SA
BRANCH   4   5
HETATM    5  C4  LIG X 999      43.203 128.077  23.537  1.00  0.00     0.015 A 
HETATM    6  C5  LIG X 999      44.567 127.825  23.210  1.00  0.00     0.020 A 
HETATM    7  C6  LIG X 999      45.019 126.526  22.893  1.00  0.00     0.018 A 
HETATM    8  C7  LIG X 999      44.080 125.501  22.913  1.00  0.00     0.026 A 
HETATM    9  C8  LIG X 999      44.122 124.162  22.557  1.00  0.00     0.175 A 
HETATM   10  C10 LIG X 999      42.793 125.744  23.263  1.00  0.00     0.019 A 
HETATM   11  N4  LIG X 999      42.884 123.606  22.669  1.00  0.00    -0.337 N 
HETATM   12  H6  LIG X 999      42.600 122.629  22.432  1.00  0.00     0.167 HD
HETATM   13  C9  LIG X 999      42.079 124.600  23.105  1.00  0.00     0.046 A 
HETATM   14  C14 LIG X 999      40.622 124.593  23.289  1.00  0.00     0.033 C 
HETATM   15  C13 LIG X 999      40.023 125.735  23.684  1.00  0.00     0.034 C 
HETATM   16  C12 LIG X 999      40.817 126.977  23.962  1.00  0.00     0.060 C 
HETATM   17  C11 LIG X 999      42.284 126.984  23.615  1.00  0.00     0.022 A 
HETATM   18  N5  LIG X 999      40.238 127.928  24.625  1.00  0.00    -0.299 NA
HETATM   19  H7  LIG X 999      40.710 128.786  24.972  1.00  0.00     0.187 HD
BRANCH   9  20
HETATM   20  N1  LIG X 999      45.279 123.474  22.080  1.00  0.00    -0.053 NA
HETATM   21  N2  LIG X 999      46.147 123.070  22.855  1.00  0.00    -0.160 NA
HETATM   22  N3  LIG X 999      47.014 122.668  23.629  1.00  0.00     0.068 N 
ENDBRANCH   9  20
ENDBRANCH   4   5
ENDBRANCH   3   4
TORSDOF 3
