REMARK VINA RESULT:      -7.4      1.490      5.255
REMARK  1 active torsions:
REMARK  status: ('A' for Active; 'I' for Inactive)
REMARK    1  A    between atoms: C12_13  and  N2_14 
ROOT
HETATM    1  C1  LIG X 999      45.315 132.306  21.982  1.00  0.00     0.272 C 
HETATM    2  N1  LIG X 999      44.741 131.118  21.306  1.00  0.00    -0.067 N 
HETATM    3  C2  LIG X 999      44.194 130.199  22.330  1.00  0.00     0.272 C 
HETATM    4  C3  LIG X 999      45.792 130.435  20.490  1.00  0.00     0.276 C 
HETATM    5  C4  LIG X 999      45.438 130.701  19.080  1.00  0.00    -0.021 A 
HETATM    6  C5  LIG X 999      46.179 130.374  17.951  1.00  0.00     0.022 A 
HETATM    7  C6  LIG X 999      45.661 130.693  16.684  1.00  0.00    -0.023 A 
HETATM    8  C7  LIG X 999      46.393 130.365  15.532  1.00  0.00     0.012 A 
HETATM    9  C8  LIG X 999      45.885 130.657  14.267  1.00  0.00     0.001 A 
HETATM   10  C9  LIG X 999      44.641 131.273  14.138  1.00  0.00     0.001 A 
HETATM   11  C10 LIG X 999      43.895 131.608  15.272  1.00  0.00     0.014 A 
HETATM   12  C11 LIG X 999      44.391 131.339  16.566  1.00  0.00     0.001 A 
HETATM   13  C12 LIG X 999      43.664 131.668  17.749  1.00  0.00     0.045 A 
HETATM   14  C13 LIG X 999      44.230 131.323  18.989  1.00  0.00     0.003 A 
HETATM   15  C14 LIG X 999      43.670 131.540  20.347  1.00  0.00     0.278 C 
ENDROOT
BRANCH  13  16
HETATM   16  N2  LIG X 999      42.393 132.339  17.716  1.00  0.00    -0.398 N 
HETATM   17  H14 LIG X 999      42.015 132.798  16.862  1.00  0.00     0.156 HD
HETATM   18  H15 LIG X 999      41.831 132.462  18.588  1.00  0.00     0.156 HD
ENDBRANCH  13  16
TORSDOF 1
