MODEL 1
REMARK VINA RESULT:      -7.6      0.000      0.000
REMARK  1 active torsions:
REMARK  status: ('A' for Active; 'I' for Inactive)
REMARK    1  A    between atoms: C8_8  and  N1_9 
ROOT
HETATM    1  N1  LIG X 999      46.558 130.111  16.532  1.00  0.00    -0.072 NA
HETATM    2  N2  LIG X 999      46.806 129.986  15.332  1.00  0.00    -0.162 NA
HETATM    3  N3  LIG X 999      47.056 129.859  14.134  1.00  0.00     0.068 N 
ENDROOT
BRANCH   1   4
HETATM    4  C8  LIG X 999      45.356 130.734  17.005  1.00  0.00     0.104 A 
HETATM    5  C7  LIG X 999      44.327 131.149  16.103  1.00  0.00     0.038 A 
HETATM    6  C6  LIG X 999      43.144 131.764  16.577  1.00  0.00     0.035 A 
HETATM    7  C5  LIG X 999      43.007 131.956  17.951  1.00  0.00     0.073 A 
HETATM    8  C4  LIG X 999      43.998 131.554  18.795  1.00  0.00     0.021 A 
HETATM    9  N4  LIG X 999      41.915 132.549  18.662  1.00  0.00    -0.209 NA
HETATM   10  C3  LIG X 999      43.684 131.824  20.086  1.00  0.00     0.047 A 
HETATM   11  C9  LIG X 999      45.177 130.948  18.392  1.00  0.00     0.009 A 
HETATM   12  C2  LIG X 999      44.562 131.495  21.118  1.00  0.00     0.018 A 
HETATM   13  C11 LIG X 999      42.368 132.454  20.023  1.00  0.00     0.278 A 
HETATM   14  C1  LIG X 999      45.783 130.872  20.766  1.00  0.00     0.002 A 
HETATM   15  C10 LIG X 999      46.094 130.598  19.407  1.00  0.00     0.015 A 
HETATM   16  O1  LIG X 999      41.706 132.864  21.012  1.00  0.00    -0.265 OA
ENDBRANCH   1   4
TORSDOF 1
ENDMDL
MODEL 2
REMARK VINA RESULT:      -6.9      2.010      3.044
REMARK  1 active torsions:
REMARK  status: ('A' for Active; 'I' for Inactive)
REMARK    1  A    between atoms: C8_8  and  N1_9 
ROOT
HETATM    1  N1  LIG X 999      43.850 131.568  15.935  1.00  0.00    -0.072 NA
HETATM    2  N2  LIG X 999      44.532 131.338  14.936  1.00  0.00    -0.162 NA
HETATM    3  N3  LIG X 999      45.212 131.109  13.937  1.00  0.00     0.068 N 
ENDROOT
BRANCH   1   4
HETATM    4  C8  LIG X 999      44.333 131.329  17.265  1.00  0.00     0.104 A 
HETATM    5  C7  LIG X 999      45.591 130.691  17.498  1.00  0.00     0.038 A 
HETATM    6  C6  LIG X 999      46.060 130.458  18.812  1.00  0.00     0.035 A 
HETATM    7  C5  LIG X 999      45.261 130.868  19.878  1.00  0.00     0.073 A 
HETATM    8  C4  LIG X 999      44.065 131.474  19.637  1.00  0.00     0.021 A 
HETATM    9  N4  LIG X 999      45.517 130.742  21.281  1.00  0.00    -0.209 NA
HETATM   10  C3  LIG X 999      43.435 131.798  20.794  1.00  0.00     0.047 A 
HETATM   11  C9  LIG X 999      43.553 131.728  18.375  1.00  0.00     0.009 A 
HETATM   12  C2  LIG X 999      42.192 132.428  20.777  1.00  0.00     0.018 A 
HETATM   13  C11 LIG X 999      44.339 131.343  21.847  1.00  0.00     0.278 A 
HETATM   14  C1  LIG X 999      41.619 132.715  19.515  1.00  0.00     0.002 A 
HETATM   15  C10 LIG X 999      42.294 132.367  18.314  1.00  0.00     0.015 A 
HETATM   16  O1  LIG X 999      44.134 131.452  23.083  1.00  0.00    -0.265 OA
ENDBRANCH   1   4
TORSDOF 1
ENDMDL
MODEL 3
REMARK VINA RESULT:      -6.7      1.695      3.111
REMARK  1 active torsions:
REMARK  status: ('A' for Active; 'I' for Inactive)
REMARK    1  A    between atoms: C8_8  and  N1_9 
ROOT
HETATM    1  N1  LIG X 999      45.199 131.129  16.829  1.00  0.00    -0.072 NA
HETATM    2  N2  LIG X 999      45.231 130.111  16.137  1.00  0.00    -0.162 NA
HETATM    3  N3  LIG X 999      45.264 129.095  15.445  1.00  0.00     0.068 N 
ENDROOT
BRANCH   1   4
HETATM    4  C8  LIG X 999      45.069 131.082  18.257  1.00  0.00     0.104 A 
HETATM    5  C7  LIG X 999      46.089 130.513  19.081  1.00  0.00     0.038 A 
HETATM    6  C6  LIG X 999      45.952 130.470  20.489  1.00  0.00     0.035 A 
HETATM    7  C5  LIG X 999      44.792 130.997  21.053  1.00  0.00     0.073 A 
HETATM    8  C4  LIG X 999      43.830 131.534  20.252  1.00  0.00     0.021 A 
HETATM    9  N4  LIG X 999      44.428 131.066  22.436  1.00  0.00    -0.209 NA
HETATM   10  C3  LIG X 999      42.782 131.992  20.981  1.00  0.00     0.047 A 
HETATM   11  C9  LIG X 999      43.906 131.605  18.871  1.00  0.00     0.009 A 
HETATM   12  C2  LIG X 999      41.684 132.582  20.358  1.00  0.00     0.018 A 
HETATM   13  C11 LIG X 999      43.142 131.705  22.367  1.00  0.00     0.278 A 
HETATM   14  C1  LIG X 999      41.706 132.683  18.946  1.00  0.00     0.002 A 
HETATM   15  C10 LIG X 999      42.813 132.197  18.200  1.00  0.00     0.015 A 
HETATM   16  O1  LIG X 999      42.438 131.973  23.375  1.00  0.00    -0.265 OA
ENDBRANCH   1   4
TORSDOF 1
ENDMDL
MODEL 4
REMARK VINA RESULT:      -6.6      2.985      5.209
REMARK  1 active torsions:
REMARK  status: ('A' for Active; 'I' for Inactive)
REMARK    1  A    between atoms: C8_8  and  N1_9 
ROOT
HETATM    1  N1  LIG X 999      44.250 131.464  22.664  1.00  0.00    -0.072 NA
HETATM    2  N2  LIG X 999      44.255 130.530  23.468  1.00  0.00    -0.162 NA
HETATM    3  N3  LIG X 999      44.257 129.599  24.272  1.00  0.00     0.068 N 
ENDROOT
BRANCH   1   4
HETATM    4  C8  LIG X 999      44.592 131.286  21.282  1.00  0.00     0.104 A 
HETATM    5  C7  LIG X 999      45.835 130.698  20.891  1.00  0.00     0.038 A 
HETATM    6  C6  LIG X 999      46.165 130.527  19.526  1.00  0.00     0.035 A 
HETATM    7  C5  LIG X 999      45.243 130.948  18.569  1.00  0.00     0.073 A 
HETATM    8  C4  LIG X 999      44.064 131.507  18.961  1.00  0.00     0.021 A 
HETATM    9  N4  LIG X 999      45.349 130.883  17.142  1.00  0.00    -0.209 NA
HETATM   10  C3  LIG X 999      43.303 131.851  17.892  1.00  0.00     0.047 A 
HETATM   11  C9  LIG X 999      43.686 131.701  20.279  1.00  0.00     0.009 A 
HETATM   12  C2  LIG X 999      42.053 132.441  18.067  1.00  0.00     0.018 A 
HETATM   13  C11 LIG X 999      44.100 131.464  16.730  1.00  0.00     0.278 A 
HETATM   14  C1  LIG X 999      41.612 132.664  19.393  1.00  0.00     0.002 A 
HETATM   15  C10 LIG X 999      42.424 132.296  20.500  1.00  0.00     0.015 A 
HETATM   16  O1  LIG X 999      43.758 131.609  15.528  1.00  0.00    -0.265 OA
ENDBRANCH   1   4
TORSDOF 1
ENDMDL
MODEL 5
REMARK VINA RESULT:      -6.4      2.773      5.810
REMARK  1 active torsions:
REMARK  status: ('A' for Active; 'I' for Inactive)
REMARK    1  A    between atoms: C8_8  and  N1_9 
ROOT
HETATM    1  N1  LIG X 999      42.342 132.317  18.231  1.00  0.00    -0.072 NA
HETATM    2  N2  LIG X 999      42.089 132.676  19.382  1.00  0.00    -0.162 NA
HETATM    3  N3  LIG X 999      41.835 133.035  20.530  1.00  0.00     0.068 N 
ENDROOT
BRANCH   1   4
HETATM    4  C8  LIG X 999      43.572 131.666  17.884  1.00  0.00     0.104 A 
HETATM    5  C7  LIG X 999      44.477 131.197  18.888  1.00  0.00     0.038 A 
HETATM    6  C6  LIG X 999      45.689 130.557  18.537  1.00  0.00     0.035 A 
HETATM    7  C5  LIG X 999      45.979 130.393  17.184  1.00  0.00     0.073 A 
HETATM    8  C4  LIG X 999      45.105 130.846  16.242  1.00  0.00     0.021 A 
HETATM    9  N4  LIG X 999      47.130 129.784  16.589  1.00  0.00    -0.209 NA
HETATM   10  C3  LIG X 999      45.561 130.597  14.989  1.00  0.00     0.047 A 
HETATM   11  C9  LIG X 999      43.907 131.480  16.522  1.00  0.00     0.009 A 
HETATM   12  C2  LIG X 999      44.819 130.979  13.872  1.00  0.00     0.018 A 
HETATM   13  C11 LIG X 999      46.842 129.924  15.187  1.00  0.00     0.278 A 
HETATM   14  C1  LIG X 999      43.583 131.631  14.097  1.00  0.00     0.002 A 
HETATM   15  C10 LIG X 999      43.124 131.884  15.417  1.00  0.00     0.015 A 
HETATM   16  O1  LIG X 999      47.602 129.516  14.271  1.00  0.00    -0.265 OA
ENDBRANCH   1   4
TORSDOF 1
ENDMDL
MODEL 6
REMARK VINA RESULT:      -6.4      1.831      2.213
REMARK  1 active torsions:
REMARK  status: ('A' for Active; 'I' for Inactive)
REMARK    1  A    between atoms: C8_8  and  N1_9 
ROOT
HETATM    1  N1  LIG X 999      44.499 131.243  16.427  1.00  0.00    -0.072 NA
HETATM    2  N2  LIG X 999      44.022 131.412  15.304  1.00  0.00    -0.162 NA
HETATM    3  N3  LIG X 999      43.547 131.580  14.181  1.00  0.00     0.068 N 
ENDROOT
BRANCH   1   4
HETATM    4  C8  LIG X 999      43.781 131.580  17.623  1.00  0.00     0.104 A 
HETATM    5  C7  LIG X 999      42.487 132.185  17.570  1.00  0.00     0.038 A 
HETATM    6  C6  LIG X 999      41.787 132.515  18.754  1.00  0.00     0.035 A 
HETATM    7  C5  LIG X 999      42.392 132.233  19.978  1.00  0.00     0.073 A 
HETATM    8  C4  LIG X 999      43.626 131.655  20.008  1.00  0.00     0.021 A 
HETATM    9  N4  LIG X 999      41.887 132.471  21.296  1.00  0.00    -0.209 NA
HETATM   10  C3  LIG X 999      44.046 131.460  21.282  1.00  0.00     0.047 A 
HETATM   11  C9  LIG X 999      44.360 131.311  18.885  1.00  0.00     0.009 A 
HETATM   12  C2  LIG X 999      45.287 130.880  21.543  1.00  0.00     0.018 A 
HETATM   13  C11 LIG X 999      42.959 131.970  22.113  1.00  0.00     0.278 A 
HETATM   14  C1  LIG X 999      46.082 130.506  20.433  1.00  0.00     0.002 A 
HETATM   15  C10 LIG X 999      45.624 130.719  19.106  1.00  0.00     0.015 A 
HETATM   16  O1  LIG X 999      42.943 131.978  23.372  1.00  0.00    -0.265 OA
ENDBRANCH   1   4
TORSDOF 1
ENDMDL
MODEL 7
REMARK VINA RESULT:      -6.3      2.797      4.999
REMARK  1 active torsions:
REMARK  status: ('A' for Active; 'I' for Inactive)
REMARK    1  A    between atoms: C8_8  and  N1_9 
ROOT
HETATM    1  N1  LIG X 999      42.647 132.184  22.500  1.00  0.00    -0.072 NA
HETATM    2  N2  LIG X 999      42.546 131.175  23.200  1.00  0.00    -0.162 NA
HETATM    3  N3  LIG X 999      42.445 130.169  23.900  1.00  0.00     0.068 N 
ENDROOT
BRANCH   1   4
HETATM    4  C8  LIG X 999      42.743 132.118  21.070  1.00  0.00     0.104 A 
HETATM    5  C7  LIG X 999      41.681 132.573  20.229  1.00  0.00     0.038 A 
HETATM    6  C6  LIG X 999      41.784 132.503  18.820  1.00  0.00     0.035 A 
HETATM    7  C5  LIG X 999      42.952 131.978  18.270  1.00  0.00     0.073 A 
HETATM    8  C4  LIG X 999      43.954 131.549  19.088  1.00  0.00     0.021 A 
HETATM    9  N4  LIG X 999      43.286 131.806  16.889  1.00  0.00    -0.209 NA
HETATM   10  C3  LIG X 999      45.003 131.073  18.372  1.00  0.00     0.047 A 
HETATM   11  C9  LIG X 999      43.911 131.591  20.472  1.00  0.00     0.009 A 
HETATM   12  C2  LIG X 999      46.139 130.581  19.013  1.00  0.00     0.018 A 
HETATM   13  C11 LIG X 999      44.600 131.227  16.977  1.00  0.00     0.278 A 
HETATM   14  C1  LIG X 999      46.153 130.600  20.428  1.00  0.00     0.002 A 
HETATM   15  C10 LIG X 999      45.044 131.102  21.160  1.00  0.00     0.015 A 
HETATM   16  O1  LIG X 999      45.292 130.905  15.976  1.00  0.00    -0.265 OA
ENDBRANCH   1   4
TORSDOF 1
ENDMDL
