REMARK VINA RESULT:      -5.5      8.582     10.129
REMARK  1 active torsions:
REMARK  status: ('A' for Active; 'I' for Inactive)
REMARK    1  A    between atoms: C11_13  and  N2_14 
ROOT
HETATM    1  N2  LIG X 999      49.453 139.008  19.960  1.00  0.00    -0.053 NA
HETATM    2  N3  LIG X 999      48.602 139.142  19.081  1.00  0.00    -0.160 NA
HETATM    3  N4  LIG X 999      47.753 139.277  18.202  1.00  0.00     0.068 N 
ENDROOT
BRANCH   1   4
HETATM    4  C11 LIG X 999      49.510 137.826  20.760  1.00  0.00     0.175 A 
HETATM    5  C10 LIG X 999      50.516 137.526  21.669  1.00  0.00     0.026 A 
HETATM    6  C5  LIG X 999      50.168 136.326  22.191  1.00  0.00     0.017 A 
HETATM    7  C9  LIG X 999      51.681 138.169  22.086  1.00  0.00     0.016 A 
HETATM    8  C4  LIG X 999      49.009 135.910  21.631  1.00  0.00     0.046 A 
HETATM    9  C6  LIG X 999      50.893 135.646  23.143  1.00  0.00     0.005 A 
HETATM   10  C3  LIG X 999      48.404 134.625  22.025  1.00  0.00     0.033 A 
HETATM   11  N5  LIG X 999      48.578 136.828  20.736  1.00  0.00    -0.337 N 
HETATM   12  C2  LIG X 999      49.039 133.876  22.958  1.00  0.00     0.034 A 
HETATM   13  C1  LIG X 999      50.330 134.341  23.579  1.00  0.00     0.059 A 
HETATM   14  N1  LIG X 999      50.937 133.625  24.470  1.00  0.00    -0.300 NA
HETATM   15  H1  LIG X 999      50.557 132.706  24.790  1.00  0.00     0.187 HD
HETATM   16  H7  LIG X 999      47.714 136.778  20.152  1.00  0.00     0.167 HD
HETATM   17  C7  LIG X 999      52.081 136.256  23.598  1.00  0.00     0.015 A 
HETATM   18  C8  LIG X 999      52.471 137.518  23.067  1.00  0.00     0.002 A 
ENDBRANCH   1   4
TORSDOF 1
