REMARK VINA RESULT:      -7.6      1.335      2.514
REMARK  1 active torsions:
REMARK  status: ('A' for Active; 'I' for Inactive)
REMARK    1  A    between atoms: C12_13  and  N2_14 
ROOT
HETATM    1  C1  LIG X 999      45.116 129.360  15.183  1.00  0.00     0.272 C 
HETATM    2  N1  LIG X 999      45.456 130.682  15.761  1.00  0.00    -0.067 N 
HETATM    3  C2  LIG X 999      46.340 131.407  14.819  1.00  0.00     0.272 C 
HETATM    4  C3  LIG X 999      44.206 131.464  16.020  1.00  0.00     0.276 C 
HETATM    5  C4  LIG X 999      44.055 131.495  17.490  1.00  0.00    -0.021 A 
HETATM    6  C5  LIG X 999      42.982 132.004  18.213  1.00  0.00     0.022 A 
HETATM    7  C6  LIG X 999      43.030 131.964  19.618  1.00  0.00    -0.023 A 
HETATM    8  C7  LIG X 999      41.959 132.477  20.364  1.00  0.00     0.012 A 
HETATM    9  C8  LIG X 999      42.001 132.462  21.757  1.00  0.00     0.001 A 
HETATM   10  C9  LIG X 999      43.112 131.941  22.418  1.00  0.00     0.001 A 
HETATM   11  C10 LIG X 999      44.190 131.424  21.695  1.00  0.00     0.014 A 
HETATM   12  C11 LIG X 999      44.170 131.412  20.283  1.00  0.00     0.001 A 
HETATM   13  C12 LIG X 999      45.247 130.891  19.505  1.00  0.00     0.045 A 
HETATM   14  C13 LIG X 999      45.144 130.960  18.106  1.00  0.00     0.003 A 
HETATM   15  C14 LIG X 999      46.126 130.506  17.088  1.00  0.00     0.278 C 
ENDROOT
BRANCH  13  16
HETATM   16  N2  LIG X 999      46.415 130.298  20.098  1.00  0.00    -0.398 N 
HETATM   17  H14 LIG X 999      46.533 129.261  20.124  1.00  0.00     0.156 HD
HETATM   18  H15 LIG X 999      47.145 130.853  20.590  1.00  0.00     0.156 HD
ENDBRANCH  13  16
TORSDOF 1
