REMARK VINA RESULT:      -8.2      2.368      6.258
REMARK  4 active torsions:
REMARK  status: ('A' for Active; 'I' for Inactive)
REMARK    1  A    between atoms: C3_3  and  O1_4 
REMARK    2  A    between atoms: O1_4  and  C4_5 
REMARK    3  A    between atoms: C4_5  and  O2_6 
REMARK    4  A    between atoms: C5_8  and  C6_9 
ROOT
HETATM    1  C1  LIG X 999      47.984 130.489  13.407  1.00  0.00     0.014 C 
HETATM    2  C2  LIG X 999      47.183 129.883  14.076  1.00  0.00    -0.091 C 
HETATM    3  C3  LIG X 999      46.214 129.150  14.891  1.00  0.00     0.266 C 
ENDROOT
BRANCH   3   4
HETATM    4  O1  LIG X 999      45.824 129.962  15.973  1.00  0.00    -0.319 OA
BRANCH   4   5
HETATM    5  C4  LIG X 999      44.906 130.928  15.513  1.00  0.00     0.314 A 
HETATM    6  O3  LIG X 999      45.365 132.221  15.829  1.00  0.00    -0.312 OA
HETATM    7  C5  LIG X 999      44.176 131.806  16.466  1.00  0.00     0.254 A 
BRANCH   5   8
HETATM    8  O2  LIG X 999      44.512 130.872  14.171  1.00  0.00    -0.341 OA
HETATM    9  H4  LIG X 999      45.091 131.525  13.700  1.00  0.00     0.215 HD
ENDBRANCH   5   8
BRANCH   7  10
HETATM   10  C6  LIG X 999      44.377 131.514  17.927  1.00  0.00    -0.021 A 
HETATM   11  C7  LIG X 999      45.546 130.884  18.384  1.00  0.00     0.011 A 
HETATM   12  C8  LIG X 999      45.723 130.625  19.746  1.00  0.00     0.013 A 
HETATM   13  C9  LIG X 999      44.739 131.003  20.671  1.00  0.00    -0.026 A 
HETATM   14  C10 LIG X 999      44.903 130.742  22.040  1.00  0.00     0.012 A 
HETATM   15  C14 LIG X 999      43.568 131.660  20.218  1.00  0.00    -0.025 A 
HETATM   16  C11 LIG X 999      43.917 131.129  22.952  1.00  0.00     0.001 A 
HETATM   17  C12 LIG X 999      42.763 131.778  22.505  1.00  0.00     0.001 A 
HETATM   18  C13 LIG X 999      42.586 132.044  21.143  1.00  0.00     0.012 A 
HETATM   19  C15 LIG X 999      43.402 131.920  18.849  1.00  0.00     0.022 A 
ENDBRANCH   7  10
ENDBRANCH   4   5
ENDBRANCH   3   4
TORSDOF 4
