REMARK VINA RESULT:      -6.0      4.488      5.749
REMARK  2 active torsions:
REMARK  status: ('A' for Active; 'I' for Inactive)
REMARK    1  A    between atoms: N1_1  and  C1_2 
REMARK    2  A    between atoms: C2_5  and  C3_6 
ROOT
HETATM    1  C3  LIG X 999      43.420 131.581  21.179  1.00  0.00     0.030 A 
HETATM    2  C4  LIG X 999      42.230 132.330  21.194  1.00  0.00     0.017 A 
HETATM    3  C5  LIG X 999      41.674 132.819  20.014  1.00  0.00     0.002 A 
HETATM    4  C6  LIG X 999      42.294 132.574  18.792  1.00  0.00     0.012 A 
HETATM    5  C7  LIG X 999      43.495 131.855  18.740  1.00  0.00    -0.025 A 
HETATM    6  C8  LIG X 999      44.123 131.636  17.504  1.00  0.00     0.012 A 
HETATM    7  C9  LIG X 999      45.337 130.955  17.442  1.00  0.00     0.001 A 
HETATM    8  C10 LIG X 999      45.943 130.498  18.610  1.00  0.00     0.001 A 
HETATM    9  C11 LIG X 999      45.331 130.702  19.850  1.00  0.00     0.013 A 
HETATM   10  C12 LIG X 999      44.084 131.361  19.939  1.00  0.00    -0.011 A 
ENDROOT
BRANCH   1  11
HETATM   11  C2  LIG X 999      43.897 131.025  22.468  1.00  0.00     0.205 A 
HETATM   12  N3  LIG X 999      44.053 131.757  23.592  1.00  0.00    -0.119 NA
HETATM   13  N2  LIG X 999      44.456 130.920  24.536  1.00  0.00    -0.103 NA
HETATM   14  C1  LIG X 999      44.522 129.713  23.949  1.00  0.00     0.265 A 
HETATM   15  O1  LIG X 999      44.178 129.762  22.687  1.00  0.00    -0.255 OA
BRANCH  14  16
HETATM   16  N1  LIG X 999      44.917 128.522  24.624  1.00  0.00    -0.362 N 
HETATM   17  H1  LIG X 999      45.471 128.579  25.507  1.00  0.00     0.159 HD
HETATM   18  H2  LIG X 999      44.655 127.587  24.241  1.00  0.00     0.159 HD
ENDBRANCH  14  16
ENDBRANCH   1  11
TORSDOF 2
