REMARK VINA RESULT:      -6.3      2.360      5.456
REMARK  1 active torsions:
REMARK  status: ('A' for Active; 'I' for Inactive)
REMARK    1  A    between atoms: N1_2  and  C1_3 
ROOT
HETATM    1  C1  LIG X 999      44.938 131.528  16.525  1.00  0.00     0.120 C 
HETATM    2  C2  LIG X 999      43.627 131.899  16.806  1.00  0.00     0.057 C 
HETATM    3  C3  LIG X 999      43.120 131.784  18.107  1.00  0.00    -0.045 C 
HETATM    4  C4  LIG X 999      41.622 131.910  18.249  1.00  0.00     0.049 C 
HETATM    5  C5  LIG X 999      44.003 131.417  19.173  1.00  0.00     0.008 C 
HETATM    6  C6  LIG X 999      43.679 131.469  20.571  1.00  0.00    -0.013 C 
HETATM    7  C7  LIG X 999      42.620 132.246  21.098  1.00  0.00     0.013 C 
HETATM    8  C8  LIG X 999      42.310 132.216  22.460  1.00  0.00     0.001 C 
HETATM    9  C9  LIG X 999      43.076 131.455  23.337  1.00  0.00     0.001 C 
HETATM   10  C10 LIG X 999      44.190 130.764  22.867  1.00  0.00     0.012 C 
HETATM   11  C11 LIG X 999      44.522 130.797  21.503  1.00  0.00    -0.025 C 
HETATM   12  C12 LIG X 999      45.715 130.212  21.078  1.00  0.00     0.014 C 
HETATM   13  C13 LIG X 999      46.120 130.327  19.755  1.00  0.00     0.031 C 
HETATM   14  C14 LIG X 999      45.290 130.928  18.802  1.00  0.00     0.045 C 
HETATM   15  N2  LIG X 999      45.724 131.019  17.511  1.00  0.00    -0.341 N 
HETATM   16  H12 LIG X 999      46.687 130.690  17.269  1.00  0.00     0.167 HD
ENDROOT
BRANCH   1  17
HETATM   17  N1  LIG X 999      45.384 131.633  15.312  1.00  0.00    -0.284 NA
HETATM   18  H1  LIG X 999      45.051 131.012  14.541  1.00  0.00     0.188 HD
ENDBRANCH   1  17
TORSDOF 1
