REMARK VINA RESULT:      -8.0      4.746      6.315
REMARK  3 active torsions:
REMARK  status: ('A' for Active; 'I' for Inactive)
REMARK    1  A    between atoms: O1_2  and  C1_3 
REMARK    2  A    between atoms: C1_3  and  C3_8 
REMARK    3  A    between atoms: C2_4  and  N1_5 
ROOT
HETATM    1  N1  LIG X 999      43.423 131.445  22.328  1.00  0.00    -0.082 NA
HETATM    2  N2  LIG X 999      43.831 130.487  22.984  1.00  0.00    -0.163 NA
HETATM    3  N3  LIG X 999      44.237 129.530  23.640  1.00  0.00     0.068 N 
ENDROOT
BRANCH   1   4
HETATM    4  C2  LIG X 999      43.473 131.424  20.901  1.00  0.00     0.193 C 
HETATM    5  C1  LIG X 999      44.636 131.256  20.251  1.00  0.00     0.096 C 
BRANCH   5   6
HETATM    6  O1  LIG X 999      45.826 131.068  20.963  1.00  0.00    -0.358 OA
HETATM    7  H1  LIG X 999      46.445 131.828  21.214  1.00  0.00     0.217 HD
ENDBRANCH   5   6
BRANCH   5   8
HETATM    8  C3  LIG X 999      44.701 131.241  18.767  1.00  0.00    -0.001 A 
HETATM    9  C4  LIG X 999      43.647 131.807  18.029  1.00  0.00     0.015 A 
HETATM   10  C5  LIG X 999      43.668 131.801  16.632  1.00  0.00     0.013 A 
HETATM   11  C6  LIG X 999      44.742 131.219  15.945  1.00  0.00    -0.026 A 
HETATM   12  C7  LIG X 999      44.771 131.208  14.542  1.00  0.00     0.012 A 
HETATM   13  C11 LIG X 999      45.802 130.631  16.674  1.00  0.00    -0.025 A 
HETATM   14  C8  LIG X 999      45.844 130.618  13.868  1.00  0.00     0.001 A 
HETATM   15  C9  LIG X 999      46.891 130.035  14.586  1.00  0.00     0.001 A 
HETATM   16  C10 LIG X 999      46.872 130.040  15.985  1.00  0.00     0.012 A 
HETATM   17  C12 LIG X 999      45.774 130.642  18.077  1.00  0.00     0.026 A 
ENDBRANCH   5   8
ENDBRANCH   1   4
TORSDOF 3
