REMARK VINA RESULT:      -5.7      2.673      3.341
REMARK  4 active torsions:
REMARK  status: ('A' for Active; 'I' for Inactive)
REMARK    1  A    between atoms: C5_5  and  N1_6 
REMARK    2  A    between atoms: C7_10  and  S1_11 
REMARK    3  A    between atoms: S1_11  and  C8_14 
REMARK    4  A    between atoms: C8_14  and  C9_15 
ROOT
HETATM    1  N1  LIG X 999      41.840 132.802  19.169  1.00  0.00    -0.072 NA
HETATM    2  N2  LIG X 999      41.288 133.217  20.190  1.00  0.00    -0.162 NA
HETATM    3  N3  LIG X 999      40.736 133.631  21.208  1.00  0.00     0.068 N 
ENDROOT
BRANCH   1   4
HETATM    4  C5  LIG X 999      43.019 131.981  19.207  1.00  0.00     0.105 A 
HETATM    5  C4  LIG X 999      43.518 131.523  20.448  1.00  0.00     0.006 A 
HETATM    6  C3  LIG X 999      42.883 131.854  21.662  1.00  0.00     0.014 A 
HETATM    7  C13 LIG X 999      44.686 130.718  20.480  1.00  0.00    -0.022 A 
HETATM    8  C2  LIG X 999      43.398 131.396  22.878  1.00  0.00     0.001 A 
HETATM    9  C1  LIG X 999      44.549 130.606  22.901  1.00  0.00     0.001 A 
HETATM   10  C14 LIG X 999      45.192 130.268  21.710  1.00  0.00     0.012 A 
HETATM   11  C12 LIG X 999      45.334 130.377  19.286  1.00  0.00     0.035 A 
HETATM   12  C7  LIG X 999      44.837 130.826  18.058  1.00  0.00     0.063 A 
HETATM   13  C6  LIG X 999      43.691 131.628  18.021  1.00  0.00     0.058 A 
BRANCH  12  14
HETATM   14  S1  LIG X 999      45.684 130.425  16.566  1.00  0.00     0.186 S 
HETATM   15  O1  LIG X 999      44.845 129.487  15.744  1.00  0.00    -0.222 OA
HETATM   16  O2  LIG X 999      46.986 129.745  16.886  1.00  0.00    -0.222 OA
BRANCH  14  17
HETATM   17  C8  LIG X 999      45.996 131.911  15.633  1.00  0.00     0.239 C 
BRANCH  17  18
HETATM   18  C9  LIG X 999      46.718 131.585  14.401  1.00  0.00    -0.092 C 
HETATM   19  C10 LIG X 999      47.309 131.301  13.390  1.00  0.00    -0.110 C 
HETATM   20  C11 LIG X 999      48.020 130.947  12.162  1.00  0.00     0.112 C 
ENDBRANCH  17  18
ENDBRANCH  14  17
ENDBRANCH  12  14
ENDBRANCH   1   4
TORSDOF 4
