MODEL 1
REMARK VINA RESULT:      -6.5      0.000      0.000
REMARK  2 active torsions:
REMARK  status: ('A' for Active; 'I' for Inactive)
REMARK    1  A    between atoms: C9_10  and  N2_11 
REMARK       I    between atoms: N2_11  and  C10_12 
REMARK    2  A    between atoms: C10_12  and  C11_14 
ROOT
HETATM    1  C11 LIG X 999      46.939 130.488  13.599  1.00  0.00     0.282 C 
HETATM    2 CL1  LIG X 999      47.613 132.137  13.590  1.00  0.00    -0.099 Cl
HETATM    3  C12 LIG X 999      48.032 129.514  13.676  1.00  0.00     0.089 C 
HETATM    4  N3  LIG X 999      48.895 128.744  13.737  1.00  0.00    -0.195 NA
ENDROOT
BRANCH   1   5
HETATM    5  C10 LIG X 999      46.012 130.311  14.761  1.00  0.00     0.276 C 
HETATM    6  N2  LIG X 999      45.389 131.464  15.344  1.00  0.00    -0.212 NA
HETATM    7  O1  LIG X 999      45.728 129.152  15.169  1.00  0.00    -0.268 OA
BRANCH   6   8
HETATM    8  C9  LIG X 999      44.681 131.511  16.591  1.00  0.00     0.061 A 
HETATM    9  C8  LIG X 999      43.341 131.920  16.583  1.00  0.00     0.032 A 
HETATM   10  C7  LIG X 999      42.612 132.000  17.772  1.00  0.00     0.014 A 
HETATM   11  C6  LIG X 999      43.220 131.688  18.994  1.00  0.00    -0.025 A 
HETATM   12  C5  LIG X 999      42.494 131.765  20.198  1.00  0.00     0.021 A 
HETATM   13  C14 LIG X 999      44.589 131.296  19.017  1.00  0.00    -0.023 A 
HETATM   14  C4  LIG X 999      43.146 131.459  21.392  1.00  0.00    -0.024 A 
HETATM   15  C3  LIG X 999      42.581 131.452  22.759  1.00  0.00     0.276 C 
HETATM   16  C16 LIG X 999      44.456 131.088  21.416  1.00  0.00    -0.024 A 
HETATM   17  N1  LIG X 999      43.737 131.187  23.673  1.00  0.00    -0.067 N 
HETATM   18  C1  LIG X 999      44.072 132.413  24.437  1.00  0.00     0.272 C 
HETATM   19  C2  LIG X 999      43.413 130.100  24.625  1.00  0.00     0.272 C 
HETATM   20  C17 LIG X 999      44.889 130.797  22.800  1.00  0.00     0.276 C 
HETATM   21  C15 LIG X 999      45.209 130.992  20.245  1.00  0.00     0.021 A 
HETATM   22  C13 LIG X 999      45.309 131.219  17.815  1.00  0.00     0.044 A 
ENDBRANCH   6   8
ENDBRANCH   1   5
TORSDOF 2
ENDMDL
MODEL 2
REMARK VINA RESULT:      -6.0      3.333      7.997
REMARK  2 active torsions:
REMARK  status: ('A' for Active; 'I' for Inactive)
REMARK    1  A    between atoms: C9_10  and  N2_11 
REMARK       I    between atoms: N2_11  and  C10_12 
REMARK    2  A    between atoms: C10_12  and  C11_14 
ROOT
HETATM    1  C11 LIG X 999      43.045 130.707  24.264  1.00  0.00     0.282 C 
HETATM    2 CL1  LIG X 999      42.228 132.252  24.609  1.00  0.00    -0.099 Cl
HETATM    3  C12 LIG X 999      42.105 129.600  24.464  1.00  0.00     0.089 C 
HETATM    4  N3  LIG X 999      41.362 128.726  24.622  1.00  0.00    -0.195 NA
ENDROOT
BRANCH   1   5
HETATM    5  C10 LIG X 999      43.561 130.694  22.858  1.00  0.00     0.276 C 
HETATM    6  N2  LIG X 999      43.115 131.699  21.938  1.00  0.00    -0.212 NA
HETATM    7  O1  LIG X 999      44.435 129.852  22.517  1.00  0.00    -0.268 OA
BRANCH   6   8
HETATM    8  C9  LIG X 999      43.307 131.698  20.516  1.00  0.00     0.061 A 
HETATM    9  C8  LIG X 999      42.225 132.040  19.695  1.00  0.00     0.032 A 
HETATM   10  C7  LIG X 999      42.356 132.037  18.303  1.00  0.00     0.014 A 
HETATM   11  C6  LIG X 999      43.571 131.672  17.710  1.00  0.00    -0.025 A 
HETATM   12  C5  LIG X 999      43.713 131.666  16.309  1.00  0.00     0.021 A 
HETATM   13  C14 LIG X 999      44.669 131.297  18.534  1.00  0.00    -0.023 A 
HETATM   14  C4  LIG X 999      44.937 131.280  15.763  1.00  0.00    -0.024 A 
HETATM   15  C3  LIG X 999      45.315 131.221  14.334  1.00  0.00     0.276 C 
HETATM   16  C16 LIG X 999      45.987 130.918  16.550  1.00  0.00    -0.024 A 
HETATM   17  N1  LIG X 999      46.686 130.620  14.304  1.00  0.00    -0.067 N 
HETATM   18  C1  LIG X 999      46.625 129.244  13.754  1.00  0.00     0.272 C 
HETATM   19  C2  LIG X 999      47.595 131.433  13.467  1.00  0.00     0.272 C 
HETATM   20  C17 LIG X 999      47.165 130.582  15.722  1.00  0.00     0.276 C 
HETATM   21  C15 LIG X 999      45.891 130.917  17.943  1.00  0.00     0.021 A 
HETATM   22  C13 LIG X 999      44.525 131.306  19.930  1.00  0.00     0.044 A 
ENDBRANCH   6   8
ENDBRANCH   1   5
TORSDOF 2
ENDMDL
MODEL 3
REMARK VINA RESULT:      -5.2      3.841      7.889
REMARK  2 active torsions:
REMARK  status: ('A' for Active; 'I' for Inactive)
REMARK    1  A    between atoms: C9_10  and  N2_11 
REMARK       I    between atoms: N2_11  and  C10_12 
REMARK    2  A    between atoms: C10_12  and  C11_14 
ROOT
HETATM    1  C11 LIG X 999      44.503 127.449  24.437  1.00  0.00     0.282 C 
HETATM    2 CL1  LIG X 999      42.731 127.428  24.625  1.00  0.00    -0.099 Cl
HETATM    3  C12 LIG X 999      45.021 126.081  24.532  1.00  0.00     0.089 C 
HETATM    4  N3  LIG X 999      45.431 125.001  24.606  1.00  0.00    -0.195 NA
ENDROOT
BRANCH   1   5
HETATM    5  C10 LIG X 999      44.878 128.050  23.119  1.00  0.00     0.276 C 
HETATM    6  N2  LIG X 999      44.698 129.457  22.912  1.00  0.00    -0.212 NA
HETATM    7  O1  LIG X 999      45.415 127.333  22.231  1.00  0.00    -0.268 OA
BRANCH   6   8
HETATM    8  C9  LIG X 999      44.769 130.151  21.657  1.00  0.00     0.061 A 
HETATM    9  C8  LIG X 999      44.166 131.410  21.555  1.00  0.00     0.032 A 
HETATM   10  C7  LIG X 999      44.193 132.119  20.350  1.00  0.00     0.014 A 
HETATM   11  C6  LIG X 999      44.809 131.566  19.221  1.00  0.00    -0.025 A 
HETATM   12  C5  LIG X 999      44.841 132.272  18.003  1.00  0.00     0.021 A 
HETATM   13  C14 LIG X 999      45.402 130.275  19.307  1.00  0.00    -0.023 A 
HETATM   14  C4  LIG X 999      45.453 131.675  16.901  1.00  0.00    -0.024 A 
HETATM   15  C3  LIG X 999      45.621 132.235  15.542  1.00  0.00     0.276 C 
HETATM   16  C16 LIG X 999      46.018 130.438  16.980  1.00  0.00    -0.024 A 
HETATM   17  N1  LIG X 999      46.220 131.134  14.722  1.00  0.00    -0.067 N 
HETATM   18  C1  LIG X 999      45.217 130.613  13.762  1.00  0.00     0.272 C 
HETATM   19  C2  LIG X 999      47.398 131.622  13.971  1.00  0.00     0.272 C 
HETATM   20  C17 LIG X 999      46.616 130.055  15.683  1.00  0.00     0.276 C 
HETATM   21  C15 LIG X 999      46.014 129.709  18.170  1.00  0.00     0.021 A 
HETATM   22  C13 LIG X 999      45.370 129.575  20.523  1.00  0.00     0.044 A 
ENDBRANCH   6   8
ENDBRANCH   1   5
TORSDOF 2
ENDMDL
MODEL 4
REMARK VINA RESULT:      -5.2      8.205     11.090
REMARK  2 active torsions:
REMARK  status: ('A' for Active; 'I' for Inactive)
REMARK    1  A    between atoms: C9_10  and  N2_11 
REMARK       I    between atoms: N2_11  and  C10_12 
REMARK    2  A    between atoms: C10_12  and  C11_14 
ROOT
HETATM    1  C11 LIG X 999      42.845 124.753  23.592  1.00  0.00     0.282 C 
HETATM    2 CL1  LIG X 999      41.660 126.000  23.126  1.00  0.00    -0.099 Cl
HETATM    3  C12 LIG X 999      42.338 123.431  23.214  1.00  0.00     0.089 C 
HETATM    4  N3  LIG X 999      41.937 122.386  22.915  1.00  0.00    -0.195 NA
ENDROOT
BRANCH   1   5
HETATM    5  C10 LIG X 999      44.159 125.009  22.923  1.00  0.00     0.276 C 
HETATM    6  N2  LIG X 999      45.192 124.018  23.000  1.00  0.00    -0.212 NA
HETATM    7  O1  LIG X 999      44.322 126.056  22.238  1.00  0.00    -0.268 OA
BRANCH   6   8
HETATM    8  C9  LIG X 999      46.570 124.192  22.638  1.00  0.00     0.061 A 
HETATM    9  C8  LIG X 999      47.361 125.049  23.413  1.00  0.00     0.032 A 
HETATM   10  C7  LIG X 999      48.704 125.266  23.091  1.00  0.00     0.014 A 
HETATM   11  C6  LIG X 999      49.271 124.641  21.974  1.00  0.00    -0.025 A 
HETATM   12  C5  LIG X 999      50.623 124.853  21.642  1.00  0.00     0.021 A 
HETATM   13  C14 LIG X 999      48.469 123.788  21.164  1.00  0.00    -0.023 A 
HETATM   14  C4  LIG X 999      51.140 124.221  20.511  1.00  0.00    -0.024 A 
HETATM   15  C3  LIG X 999      52.524 124.282  19.990  1.00  0.00     0.276 C 
HETATM   16  C16 LIG X 999      50.373 123.408  19.734  1.00  0.00    -0.024 A 
HETATM   17  N1  LIG X 999      52.500 123.535  18.692  1.00  0.00    -0.067 N 
HETATM   18  C1  LIG X 999      52.643 124.482  17.560  1.00  0.00     0.272 C 
HETATM   19  C2  LIG X 999      53.600 122.547  18.637  1.00  0.00     0.272 C 
HETATM   20  C17 LIG X 999      51.170 122.849  18.621  1.00  0.00     0.276 C 
HETATM   21  C15 LIG X 999      49.031 123.166  20.032  1.00  0.00     0.021 A 
HETATM   22  C13 LIG X 999      47.122 123.578  21.499  1.00  0.00     0.044 A 
ENDBRANCH   6   8
ENDBRANCH   1   5
TORSDOF 2
ENDMDL
MODEL 5
REMARK VINA RESULT:      -4.5      8.180     10.513
REMARK  2 active torsions:
REMARK  status: ('A' for Active; 'I' for Inactive)
REMARK    1  A    between atoms: C9_10  and  N2_11 
REMARK       I    between atoms: N2_11  and  C10_12 
REMARK    2  A    between atoms: C10_12  and  C11_14 
ROOT
HETATM    1  C11 LIG X 999      40.875 126.243  24.337  1.00  0.00     0.282 C 
HETATM    2 CL1  LIG X 999      40.346 127.753  23.553  1.00  0.00    -0.099 Cl
HETATM    3  C12 LIG X 999      40.006 125.141  23.912  1.00  0.00     0.089 C 
HETATM    4  N3  LIG X 999      39.320 124.271  23.576  1.00  0.00    -0.195 NA
ENDROOT
BRANCH   1   5
HETATM    5  C10 LIG X 999      42.297 125.943  23.979  1.00  0.00     0.276 C 
HETATM    6  N2  LIG X 999      42.575 125.078  22.870  1.00  0.00    -0.212 NA
HETATM    7  O1  LIG X 999      43.235 126.507  24.605  1.00  0.00    -0.268 OA
BRANCH   6   8
HETATM    8  C9  LIG X 999      43.844 124.494  22.541  1.00  0.00     0.061 A 
HETATM    9  C8  LIG X 999      43.888 123.133  22.214  1.00  0.00     0.032 A 
HETATM   10  C7  LIG X 999      45.102 122.512  21.903  1.00  0.00     0.014 A 
HETATM   11  C6  LIG X 999      46.295 123.244  21.934  1.00  0.00    -0.025 A 
HETATM   12  C5  LIG X 999      47.523 122.628  21.622  1.00  0.00     0.021 A 
HETATM   13  C14 LIG X 999      46.265 124.622  22.291  1.00  0.00    -0.023 A 
HETATM   14  C4  LIG X 999      48.688 123.393  21.681  1.00  0.00    -0.024 A 
HETATM   15  C3  LIG X 999      50.071 122.965  21.377  1.00  0.00     0.276 C 
HETATM   16  C16 LIG X 999      48.661 124.710  22.025  1.00  0.00    -0.024 A 
HETATM   17  N1  LIG X 999      50.941 124.132  21.728  1.00  0.00    -0.067 N 
HETATM   18  C1  LIG X 999      51.727 123.830  22.949  1.00  0.00     0.272 C 
HETATM   19  C2  LIG X 999      51.872 124.442  20.620  1.00  0.00     0.272 C 
HETATM   20  C17 LIG X 999      50.022 125.286  21.984  1.00  0.00     0.276 C 
HETATM   21  C15 LIG X 999      47.465 125.360  22.334  1.00  0.00     0.021 A 
HETATM   22  C13 LIG X 999      45.040 125.232  22.599  1.00  0.00     0.044 A 
ENDBRANCH   6   8
ENDBRANCH   1   5
TORSDOF 2
ENDMDL
