REMARK VINA RESULT:      -8.3      0.931      1.099
REMARK  1 active torsions:
REMARK  status: ('A' for Active; 'I' for Inactive)
REMARK    1  A    between atoms: C2_5  and  C3_6 
ROOT
HETATM    1  C3  LIG X 999      44.367 131.417  17.512  1.00  0.00     0.030 A 
HETATM    2  C4  LIG X 999      43.120 131.829  16.997  1.00  0.00     0.017 A 
HETATM    3  C5  LIG X 999      42.064 132.174  17.835  1.00  0.00     0.002 A 
HETATM    4  C6  LIG X 999      42.217 132.119  19.213  1.00  0.00     0.012 A 
HETATM    5  C7  LIG X 999      43.434 131.716  19.774  1.00  0.00    -0.025 A 
HETATM    6  C8  LIG X 999      43.559 131.669  21.171  1.00  0.00     0.012 A 
HETATM    7  C9  LIG X 999      44.757 131.273  21.759  1.00  0.00     0.001 A 
HETATM    8  C10 LIG X 999      45.840 130.919  20.961  1.00  0.00     0.001 A 
HETATM    9  C11 LIG X 999      45.736 130.958  19.567  1.00  0.00     0.013 A 
HETATM   10  C12 LIG X 999      44.534 131.357  18.935  1.00  0.00    -0.011 A 
ENDROOT
BRANCH   1  11
HETATM   11  C2  LIG X 999      45.423 131.073  16.510  1.00  0.00     0.203 A 
HETATM   12  O1  LIG X 999      45.757 131.791  15.458  1.00  0.00    -0.255 OA
HETATM   13  C1  LIG X 999      46.715 131.115  14.873  1.00  0.00     0.262 A 
HETATM   14  N1  LIG X 999      47.319 131.488  13.793  1.00  0.00    -0.260 NA
HETATM   15  N3  LIG X 999      46.991 129.986  15.536  1.00  0.00    -0.238 N 
HETATM   16  H1  LIG X 999      47.061 132.381  13.318  1.00  0.00     0.190 HD
HETATM   17  N2  LIG X 999      46.177 129.948  16.577  1.00  0.00    -0.145 NA
HETATM   18  H9  LIG X 999      47.703 129.259  15.299  1.00  0.00     0.193 HD
ENDBRANCH   1  11
TORSDOF 1
