REMARK VINA RESULT:      -4.5      4.865      7.456
REMARK  3 active torsions:
REMARK  status: ('A' for Active; 'I' for Inactive)
REMARK    1  A    between atoms: C6_6  and  C7_7 
REMARK    2  A    between atoms: C8_8  and  C9_9 
REMARK    3  A    between atoms: C10_12  and  N1_13 
ROOT
HETATM    1  N1  LIG X 999      42.448 129.417  22.678  1.00  0.00    -0.105 NA
HETATM    2  N2  LIG X 999      41.770 128.795  23.497  1.00  0.00    -0.167 NA
HETATM    3  N3  LIG X 999      41.093 128.174  24.313  1.00  0.00     0.068 N 
ENDROOT
BRANCH   1   4
HETATM    4  C10 LIG X 999      42.377 130.873  22.586  1.00  0.00     0.179 C 
HETATM    5  C4  LIG X 999      43.532 131.364  21.740  1.00  0.00    -0.023 A 
HETATM    6  C3  LIG X 999      44.700 131.914  22.321  1.00  0.00    -0.050 A 
HETATM    7  C5  LIG X 999      43.475 131.183  20.346  1.00  0.00     0.030 A 
HETATM    8  C2  LIG X 999      45.764 132.307  21.494  1.00  0.00     0.009 A 
HETATM    9  C13 LIG X 999      44.790 132.201  23.802  1.00  0.00     0.039 C 
HETATM   10  C1  LIG X 999      45.692 132.127  20.111  1.00  0.00     0.021 A 
HETATM   11  C6  LIG X 999      44.549 131.566  19.535  1.00  0.00     0.018 A 
HETATM   12  C12 LIG X 999      43.770 131.408  24.623  1.00  0.00     0.007 C 
HETATM   13  C11 LIG X 999      42.382 131.507  23.989  1.00  0.00     0.035 C 
BRANCH  11  14
HETATM   14  C7  LIG X 999      44.479 131.379  18.110  1.00  0.00    -0.056 C 
HETATM   15  C8  LIG X 999      44.421 131.223  16.916  1.00  0.00     0.010 C 
BRANCH  15  16
HETATM   16  C9  LIG X 999      44.352 131.038  15.495  1.00  0.00     0.258 C 
HETATM   17  O1  LIG X 999      43.581 131.752  14.803  1.00  0.00    -0.637 OA
HETATM   18  O2  LIG X 999      45.137 130.071  14.882  1.00  0.00    -0.637 OA
ENDBRANCH  15  16
ENDBRANCH  11  14
ENDBRANCH   1   4
TORSDOF 3
