REMARK VINA RESULT:      -7.7      2.100      2.869
REMARK  2 active torsions:
REMARK  status: ('A' for Active; 'I' for Inactive)
REMARK    1  A    between atoms: C6_6  and  C7_7 
REMARK    2  A    between atoms: C7_7  and  N1_8 
ROOT
HETATM    1  N1  LIG X 999      43.603 131.859  21.321  1.00  0.00    -0.106 NA
HETATM    2  N2  LIG X 999      43.029 131.790  22.409  1.00  0.00    -0.167 NA
HETATM    3  N3  LIG X 999      42.456 131.721  23.496  1.00  0.00     0.068 N 
ENDROOT
BRANCH   1   4
HETATM    4  C7  LIG X 999      42.863 131.708  20.071  1.00  0.00     0.174 C 
HETATM    5  C8  LIG X 999      42.048 132.973  19.806  1.00  0.00     0.042 C 
BRANCH   4   6
HETATM    6  C6  LIG X 999      43.807 131.436  18.918  1.00  0.00    -0.030 A 
HETATM    7  C5  LIG X 999      43.393 131.641  17.589  1.00  0.00     0.021 A 
HETATM    8  C4  LIG X 999      44.264 131.370  16.523  1.00  0.00    -0.025 A 
HETATM    9  C3  LIG X 999      43.857 131.579  15.196  1.00  0.00     0.012 A 
HETATM   10  C11 LIG X 999      45.567 130.881  16.787  1.00  0.00    -0.026 A 
HETATM   11  C2  LIG X 999      44.734 131.307  14.142  1.00  0.00     0.001 A 
HETATM   12  C1  LIG X 999      46.020 130.824  14.402  1.00  0.00     0.001 A 
HETATM   13  C12 LIG X 999      46.436 130.610  15.719  1.00  0.00     0.012 A 
HETATM   14  C10 LIG X 999      45.971 130.668  18.112  1.00  0.00     0.013 A 
HETATM   15  C9  LIG X 999      45.097 130.940  19.168  1.00  0.00     0.010 A 
ENDBRANCH   4   6
ENDBRANCH   1   4
TORSDOF 2
