REMARK VINA RESULT:      -5.8      1.517      2.541
REMARK  1 active torsions:
REMARK  status: ('A' for Active; 'I' for Inactive)
REMARK    1  A    between atoms: C10_11  and  N2_12 
ROOT
HETATM    1  C1  LIG X 999      46.292 132.085  15.716  1.00  0.00     0.272 C 
HETATM    2  N1  LIG X 999      45.304 131.072  16.158  1.00  0.00    -0.067 N 
HETATM    3  C2  LIG X 999      45.105 130.086  15.071  1.00  0.00     0.272 C 
HETATM    4  C3  LIG X 999      44.011 131.738  16.512  1.00  0.00     0.276 C 
HETATM    5  C4  LIG X 999      43.910 131.653  17.985  1.00  0.00    -0.024 A 
HETATM    6  C5  LIG X 999      42.932 132.207  18.806  1.00  0.00     0.021 A 
HETATM    7  C6  LIG X 999      43.004 131.979  20.194  1.00  0.00    -0.023 A 
HETATM    8  C7  LIG X 999      42.024 132.521  21.037  1.00  0.00     0.012 A 
HETATM    9  C8  LIG X 999      42.076 132.296  22.410  1.00  0.00     0.003 A 
HETATM   10  C9  LIG X 999      43.107 131.535  22.959  1.00  0.00     0.030 A 
HETATM   11  C10 LIG X 999      44.112 130.983  22.149  1.00  0.00     0.036 A 
HETATM   12  C11 LIG X 999      44.066 131.192  20.743  1.00  0.00     0.001 A 
HETATM   13  C12 LIG X 999      45.024 130.635  19.858  1.00  0.00     0.024 A 
HETATM   14  C13 LIG X 999      44.916 130.894  18.491  1.00  0.00    -0.023 A 
HETATM   15  C14 LIG X 999      45.787 130.396  17.405  1.00  0.00     0.276 C 
ENDROOT
BRANCH  11  16
HETATM   16  N2  LIG X 999      45.159 130.234  22.787  1.00  0.00    -0.398 N 
HETATM   17  H13 LIG X 999      45.189 129.194  22.811  1.00  0.00     0.156 HD
HETATM   18  H14 LIG X 999      45.984 130.729  23.195  1.00  0.00     0.156 HD
ENDBRANCH  11  16
TORSDOF 1
