REMARK VINA RESULT:      -5.6      2.797      5.861
REMARK  1 active torsions:
REMARK  status: ('A' for Active; 'I' for Inactive)
REMARK    1  A    between atoms: C13_15  and  N2_16 
ROOT
HETATM    1  N1  LIG X 999      40.504 133.598  21.453  1.00  0.00    -0.191 NA
HETATM    2  C1  LIG X 999      41.361 133.057  20.895  1.00  0.00     0.109 C 
HETATM    3  C2  LIG X 999      42.427 132.386  20.201  1.00  0.00     0.113 A 
HETATM    4  S1  LIG X 999      43.730 131.655  20.970  1.00  0.00    -0.076 SA
HETATM    5  C3  LIG X 999      44.533 131.261  19.551  1.00  0.00     0.019 A 
HETATM    6  C4  LIG X 999      45.779 130.656  19.451  1.00  0.00     0.021 A 
HETATM    7  C5  LIG X 999      46.315 130.430  18.182  1.00  0.00     0.013 A 
HETATM    8  C6  LIG X 999      45.574 130.753  17.026  1.00  0.00    -0.025 A 
HETATM    9  C7  LIG X 999      46.105 130.459  15.760  1.00  0.00     0.012 A 
HETATM   10  C8  LIG X 999      45.351 130.689  14.610  1.00  0.00     0.001 A 
HETATM   11  C9  LIG X 999      44.052 131.185  14.713  1.00  0.00     0.001 A 
HETATM   12  C10 LIG X 999      43.510 131.493  15.964  1.00  0.00     0.013 A 
HETATM   13  C11 LIG X 999      44.277 131.341  17.137  1.00  0.00    -0.012 A 
HETATM   14  C12 LIG X 999      43.796 131.663  18.436  1.00  0.00     0.020 A 
HETATM   15  C13 LIG X 999      42.617 132.358  18.816  1.00  0.00     0.066 A 
ENDROOT
BRANCH  15  16
HETATM   16  N2  LIG X 999      41.805 133.141  17.934  1.00  0.00    -0.397 N 
HETATM   17  H7  LIG X 999      41.912 134.178  17.899  1.00  0.00     0.156 HD
HETATM   18  H8  LIG X 999      41.293 132.687  17.146  1.00  0.00     0.156 HD
ENDBRANCH  15  16
TORSDOF 1
