REMARK VINA RESULT:      -5.4      3.422      6.181
REMARK  1 active torsions:
REMARK  status: ('A' for Active; 'I' for Inactive)
REMARK    1  A    between atoms: N1_2  and  C1_3 
ROOT
HETATM    1  C1  LIG X 999      46.785 130.657  14.290  1.00  0.00     0.120 C 
HETATM    2  C2  LIG X 999      45.500 131.051  13.917  1.00  0.00     0.057 C 
HETATM    3  C3  LIG X 999      44.500 131.223  14.885  1.00  0.00    -0.045 C 
HETATM    4  C4  LIG X 999      43.088 131.341  14.366  1.00  0.00     0.049 C 
HETATM    5  C5  LIG X 999      44.845 131.134  16.271  1.00  0.00     0.008 C 
HETATM    6  C6  LIG X 999      43.986 131.496  17.362  1.00  0.00    -0.013 C 
HETATM    7  C7  LIG X 999      42.863 132.346  17.222  1.00  0.00     0.013 C 
HETATM    8  C8  LIG X 999      42.027 132.622  18.306  1.00  0.00     0.001 C 
HETATM    9  C9  LIG X 999      42.312 132.102  19.565  1.00  0.00     0.001 C 
HETATM   10  C10 LIG X 999      43.468 131.350  19.759  1.00  0.00     0.012 C 
HETATM   11  C11 LIG X 999      44.327 131.077  18.680  1.00  0.00    -0.025 C 
HETATM   12  C12 LIG X 999      45.545 130.441  18.924  1.00  0.00     0.014 C 
HETATM   13  C13 LIG X 999      46.458 130.259  17.897  1.00  0.00     0.031 C 
HETATM   14  C14 LIG X 999      46.133 130.605  16.580  1.00  0.00     0.045 C 
HETATM   15  N2  LIG X 999      47.059 130.409  15.597  1.00  0.00    -0.341 N 
HETATM   16  H12 LIG X 999      48.013 130.056  15.848  1.00  0.00     0.167 HD
ENDROOT
BRANCH   1  17
HETATM   17  N1  LIG X 999      47.709 130.486  13.397  1.00  0.00    -0.284 NA
HETATM   18  H1  LIG X 999      48.504 129.821  13.528  1.00  0.00     0.188 HD
ENDBRANCH   1  17
TORSDOF 1
