REMARK VINA RESULT:      -4.1      3.026      4.589
REMARK  1 active torsions:
REMARK  status: ('A' for Active; 'I' for Inactive)
REMARK    1  A    between atoms: C7_7  and  N1_8 
ROOT
HETATM    1  N1  LIG X 999      46.040 130.421  18.799  1.00  0.00    -0.110 NA
HETATM    2  N2  LIG X 999      45.871 130.754  19.973  1.00  0.00    -0.167 NA
HETATM    3  N3  LIG X 999      45.702 131.085  21.145  1.00  0.00     0.068 N 
ENDROOT
BRANCH   1   4
HETATM    4  C7  LIG X 999      44.944 130.469  17.835  1.00  0.00     0.153 C 
HETATM    5  C6  LIG X 999      44.155 131.773  18.019  1.00  0.00     0.031 C 
HETATM    6  C5  LIG X 999      42.983 131.840  17.034  1.00  0.00     0.003 C 
HETATM    7  C4  LIG X 999      43.477 131.741  15.587  1.00  0.00     0.009 C 
HETATM    8  C3  LIG X 999      44.298 130.455  15.355  1.00  0.00     0.018 C 
HETATM    9  C2  LIG X 999      44.845 130.456  13.946  1.00  0.00    -0.021 C 
HETATM   10  C8  LIG X 999      45.460 130.323  16.380  1.00  0.00     0.043 C 
HETATM   11  C1  LIG X 999      46.031 131.015  13.674  1.00  0.00    -0.004 C 
HETATM   12  C10 LIG X 999      46.873 131.552  14.761  1.00  0.00    -0.004 C 
HETATM   13  C9  LIG X 999      46.581 131.289  16.040  1.00  0.00    -0.019 C 
ENDBRANCH   1   4
TORSDOF 1
