REMARK VINA RESULT:      -4.1      5.299      8.285
REMARK  4 active torsions:
REMARK  status: ('A' for Active; 'I' for Inactive)
REMARK    1  A    between atoms: C2_2  and  C3_3 
REMARK    2  A    between atoms: C2_2  and  N1_9 
REMARK    3  A    between atoms: C3_3  and  C4_4 
REMARK       I    between atoms: N1_9  and  C8_10 
REMARK       I    between atoms: C8_10  and  N2_12 
REMARK    4  A    between atoms: N2_12  and  C9_13 
ROOT
HETATM    1  C9  LIG X 999      45.183 131.856  20.521  1.00  0.00     0.056 A 
HETATM    2  C10 LIG X 999      44.180 131.827  21.501  1.00  0.00     0.003 A 
HETATM    3  C11 LIG X 999      42.862 131.723  21.171  1.00  0.00    -0.021 A 
HETATM    4  C12 LIG X 999      42.441 131.654  19.845  1.00  0.00     0.022 A 
HETATM    5  C13 LIG X 999      43.410 131.676  18.826  1.00  0.00    -0.023 A 
HETATM    6  C14 LIG X 999      43.020 131.599  17.480  1.00  0.00     0.012 A 
HETATM    7  C15 LIG X 999      43.980 131.621  16.467  1.00  0.00     0.001 A 
HETATM    8  C16 LIG X 999      45.335 131.722  16.785  1.00  0.00     0.001 A 
HETATM    9  C17 LIG X 999      45.745 131.798  18.119  1.00  0.00     0.014 A 
HETATM   10  C18 LIG X 999      44.795 131.772  19.158  1.00  0.00     0.002 A 
HETATM   11  C19 LIG X 999      42.020 131.680  22.385  1.00  0.00     0.276 C 
HETATM   12  N3  LIG X 999      42.975 131.537  23.528  1.00  0.00    -0.067 N 
HETATM   13  C20 LIG X 999      42.945 130.147  24.043  1.00  0.00     0.272 C 
HETATM   14  C21 LIG X 999      42.621 132.466  24.624  1.00  0.00     0.272 C 
HETATM   15  C22 LIG X 999      44.331 131.847  22.978  1.00  0.00     0.278 C 
ENDROOT
BRANCH   1  16
HETATM   16  N2  LIG X 999      46.566 131.905  20.897  1.00  0.00    -0.307 N 
HETATM   17  C8  LIG X 999      47.164 133.075  21.470  1.00  0.00     0.321 C 
HETATM   18  N1  LIG X 999      48.539 133.042  21.875  1.00  0.00    -0.338 N 
HETATM   19  O1  LIG X 999      46.489 134.134  21.594  1.00  0.00    -0.247 OA
HETATM   20  H10 LIG X 999      49.058 132.137  21.794  1.00  0.00     0.164 HD
HETATM   21  H11 LIG X 999      47.182 131.101  20.640  1.00  0.00     0.170 HD
BRANCH  18  22
HETATM   22  C2  LIG X 999      49.219 134.180  22.501  1.00  0.00     0.086 C 
HETATM   23  C1  LIG X 999      48.605 134.445  23.877  1.00  0.00     0.032 C 
BRANCH  22  24
HETATM   24  C3  LIG X 999      49.098 135.425  21.607  1.00  0.00     0.071 C 
BRANCH  24  25
HETATM   25  C4  LIG X 999      50.180 136.417  21.904  1.00  0.00    -0.016 A 
HETATM   26  C5  LIG X 999      50.190 137.753  21.519  1.00  0.00     0.015 A 
HETATM   27  C6  LIG X 999      51.357 138.424  21.902  1.00  0.00     0.008 A 
HETATM   28  C7  LIG X 999      52.271 137.620  22.569  1.00  0.00     0.050 A 
HETATM   29  S1  LIG X 999      51.628 136.071  22.686  1.00  0.00    -0.106 SA
ENDBRANCH  24  25
ENDBRANCH  22  24
ENDBRANCH  18  22
ENDBRANCH   1  16
TORSDOF 4
