REMARK VINA RESULT:      -7.8      1.278      2.520
REMARK  5 active torsions:
REMARK  status: ('A' for Active; 'I' for Inactive)
REMARK    1  A    between atoms: C3_3  and  O1_4 
REMARK    2  A    between atoms: O1_4  and  C4_5 
REMARK    3  A    between atoms: C4_5  and  O2_6 
REMARK    4  A    between atoms: C5_8  and  C6_9 
REMARK    5  A    between atoms: C11_14  and  O3_15 
ROOT
HETATM    1  C1  LIG X 999      43.996 126.394  23.103  1.00  0.00     0.014 C 
HETATM    2  C2  LIG X 999      44.240 127.574  23.106  1.00  0.00    -0.091 C 
HETATM    3  C3  LIG X 999      44.533 129.008  23.110  1.00  0.00     0.270 C 
ENDROOT
BRANCH   3   4
HETATM    4  O1  LIG X 999      43.397 129.715  22.629  1.00  0.00    -0.319 OA
BRANCH   4   5
HETATM    5  C4  LIG X 999      43.019 130.985  23.086  1.00  0.00     0.179 C 
HETATM    6  C5  LIG X 999      42.913 132.008  22.232  1.00  0.00     0.075 C 
BRANCH   5   7
HETATM    7  O2  LIG X 999      42.773 131.221  24.440  1.00  0.00    -0.341 OA
HETATM    8  H4  LIG X 999      42.342 130.532  25.043  1.00  0.00     0.220 HD
ENDBRANCH   5   7
BRANCH   6   9
HETATM    9  C6  LIG X 999      43.140 131.901  20.773  1.00  0.00    -0.031 A 
HETATM   10  C7  LIG X 999      42.093 132.233  19.899  1.00  0.00     0.012 A 
HETATM   11  C8  LIG X 999      42.259 132.131  18.516  1.00  0.00     0.013 A 
HETATM   12  C9  LIG X 999      43.473 131.676  17.983  1.00  0.00    -0.023 A 
HETATM   13  C10 LIG X 999      43.649 131.572  16.594  1.00  0.00     0.049 A 
HETATM   14  C15 LIG X 999      44.526 131.312  18.852  1.00  0.00    -0.025 A 
HETATM   15  C11 LIG X 999      44.858 131.108  16.063  1.00  0.00     0.069 A 
HETATM   16  C13 LIG X 999      45.902 130.744  16.934  1.00  0.00     0.037 A 
HETATM   17  C14 LIG X 999      45.735 130.845  18.318  1.00  0.00     0.015 A 
HETATM   18  C16 LIG X 999      44.350 131.416  20.240  1.00  0.00     0.024 A 
BRANCH  15  19
HETATM   19  O3  LIG X 999      44.980 131.024  14.667  1.00  0.00    -0.356 OA
HETATM   20  C12 LIG X 999      46.184 130.686  13.984  1.00  0.00     0.210 C 
ENDBRANCH  15  19
ENDBRANCH   6   9
ENDBRANCH   4   5
ENDBRANCH   3   4
TORSDOF 5
