MODEL 1
REMARK VINA RESULT:      -5.6      0.000      0.000
REMARK  1 active torsions:
REMARK  status: ('A' for Active; 'I' for Inactive)
REMARK    1  A    between atoms: C7_7  and  N1_8 
ROOT
HETATM    1  N1  LIG X 999      47.251 130.697  14.221  1.00  0.00    -0.110 NA
HETATM    2  N2  LIG X 999      47.624 130.910  13.067  1.00  0.00    -0.167 NA
HETATM    3  N3  LIG X 999      47.997 131.122  11.915  1.00  0.00     0.068 N 
ENDROOT
BRANCH   1   4
HETATM    4  C7  LIG X 999      46.125 131.428  14.797  1.00  0.00     0.153 C 
HETATM    5  C6  LIG X 999      44.809 130.866  14.242  1.00  0.00     0.031 C 
HETATM    6  C5  LIG X 999      43.609 131.630  14.812  1.00  0.00     0.003 C 
HETATM    7  C4  LIG X 999      43.592 131.557  16.343  1.00  0.00     0.009 C 
HETATM    8  C3  LIG X 999      44.905 132.091  16.952  1.00  0.00     0.018 C 
HETATM    9  C2  LIG X 999      44.877 131.903  18.451  1.00  0.00    -0.021 C 
HETATM   10  C8  LIG X 999      46.150 131.380  16.347  1.00  0.00     0.043 C 
HETATM   11  C1  LIG X 999      45.323 130.769  19.006  1.00  0.00    -0.004 C 
HETATM   12  C10 LIG X 999      45.943 129.720  18.173  1.00  0.00    -0.004 C 
HETATM   13  C9  LIG X 999      46.279 129.972  16.902  1.00  0.00    -0.019 C 
ENDBRANCH   1   4
TORSDOF 1
ENDMDL
MODEL 2
REMARK VINA RESULT:      -5.5      2.171      3.021
REMARK  1 active torsions:
REMARK  status: ('A' for Active; 'I' for Inactive)
REMARK    1  A    between atoms: C7_7  and  N1_8 
ROOT
HETATM    1  N1  LIG X 999      45.836 131.468  16.579  1.00  0.00    -0.110 NA
HETATM    2  N2  LIG X 999      45.594 131.340  15.378  1.00  0.00    -0.167 NA
HETATM    3  N3  LIG X 999      45.353 131.213  14.179  1.00  0.00     0.068 N 
ENDROOT
BRANCH   1   4
HETATM    4  C7  LIG X 999      44.835 132.005  17.497  1.00  0.00     0.153 C 
HETATM    5  C6  LIG X 999      43.463 131.396  17.175  1.00  0.00     0.031 C 
HETATM    6  C5  LIG X 999      42.387 131.958  18.110  1.00  0.00     0.003 C 
HETATM    7  C4  LIG X 999      42.738 131.683  19.576  1.00  0.00     0.009 C 
HETATM    8  C3  LIG X 999      44.122 132.256  19.946  1.00  0.00     0.018 C 
HETATM    9  C2  LIG X 999      44.462 131.871  21.367  1.00  0.00    -0.021 C 
HETATM   10  C8  LIG X 999      45.229 131.755  18.976  1.00  0.00     0.043 C 
HETATM   11  C1  LIG X 999      45.097 130.721  21.629  1.00  0.00    -0.004 C 
HETATM   12  C10 LIG X 999      45.568 129.857  20.530  1.00  0.00    -0.004 C 
HETATM   13  C9  LIG X 999      45.576 130.306  19.269  1.00  0.00    -0.019 C 
ENDBRANCH   1   4
TORSDOF 1
ENDMDL
MODEL 3
REMARK VINA RESULT:      -5.1      4.067      5.434
REMARK  1 active torsions:
REMARK  status: ('A' for Active; 'I' for Inactive)
REMARK    1  A    between atoms: C7_7  and  N1_8 
ROOT
HETATM    1  N1  LIG X 999      45.385 131.085  19.039  1.00  0.00    -0.110 NA
HETATM    2  N2  LIG X 999      45.346 131.407  17.850  1.00  0.00    -0.167 NA
HETATM    3  N3  LIG X 999      45.309 131.729  16.664  1.00  0.00     0.068 N 
ENDROOT
BRANCH   1   4
HETATM    4  C7  LIG X 999      44.598 131.799  20.040  1.00  0.00     0.153 C 
HETATM    5  C6  LIG X 999      43.110 131.730  19.669  1.00  0.00     0.031 C 
HETATM    6  C5  LIG X 999      42.260 132.491  20.692  1.00  0.00     0.003 C 
HETATM    7  C4  LIG X 999      42.462 131.925  22.102  1.00  0.00     0.009 C 
HETATM    8  C3  LIG X 999      43.949 131.949  22.515  1.00  0.00     0.018 C 
HETATM    9  C2  LIG X 999      44.105 131.289  23.866  1.00  0.00    -0.021 C 
HETATM   10  C8  LIG X 999      44.850 131.239  21.465  1.00  0.00     0.043 C 
HETATM   11  C1  LIG X 999      44.315 129.970  23.960  1.00  0.00    -0.004 C 
HETATM   12  C10 LIG X 999      44.497 129.151  22.746  1.00  0.00    -0.004 C 
HETATM   13  C9  LIG X 999      44.686 129.732  21.557  1.00  0.00    -0.019 C 
ENDBRANCH   1   4
TORSDOF 1
ENDMDL
MODEL 4
REMARK VINA RESULT:      -4.8      3.426      5.191
REMARK  1 active torsions:
REMARK  status: ('A' for Active; 'I' for Inactive)
REMARK    1  A    between atoms: C7_7  and  N1_8 
ROOT
HETATM    1  N1  LIG X 999      43.750 132.329  18.728  1.00  0.00    -0.110 NA
HETATM    2  N2  LIG X 999      43.347 131.950  19.828  1.00  0.00    -0.167 NA
HETATM    3  N3  LIG X 999      42.944 131.574  20.927  1.00  0.00     0.068 N 
ENDROOT
BRANCH   1   4
HETATM    4  C7  LIG X 999      44.973 131.786  18.144  1.00  0.00     0.153 C 
HETATM    5  C6  LIG X 999      45.108 130.304  18.522  1.00  0.00     0.031 C 
HETATM    6  C5  LIG X 999      46.397 129.711  17.941  1.00  0.00     0.003 C 
HETATM    7  C4  LIG X 999      46.427 129.855  16.416  1.00  0.00     0.009 C 
HETATM    8  C3  LIG X 999      46.271 131.328  15.982  1.00  0.00     0.018 C 
HETATM    9  C2  LIG X 999      46.205 131.403  14.474  1.00  0.00    -0.021 C 
HETATM   10  C8  LIG X 999      45.004 131.980  16.605  1.00  0.00     0.043 C 
HETATM   11  C1  LIG X 999      45.032 131.307  13.836  1.00  0.00    -0.004 C 
HETATM   12  C10 LIG X 999      43.769 131.227  14.597  1.00  0.00    -0.004 C 
HETATM   13  C9  LIG X 999      43.751 131.478  15.911  1.00  0.00    -0.019 C 
ENDBRANCH   1   4
TORSDOF 1
ENDMDL
MODEL 5
REMARK VINA RESULT:      -4.7      5.289      6.978
REMARK  1 active torsions:
REMARK  status: ('A' for Active; 'I' for Inactive)
REMARK    1  A    between atoms: C7_7  and  N1_8 
ROOT
HETATM    1  N1  LIG X 999      42.913 132.122  22.206  1.00  0.00    -0.110 NA
HETATM    2  N2  LIG X 999      42.853 131.902  23.416  1.00  0.00    -0.167 NA
HETATM    3  N3  LIG X 999      42.792 131.684  24.625  1.00  0.00     0.068 N 
ENDROOT
BRANCH   1   4
HETATM    4  C7  LIG X 999      44.111 131.794  21.438  1.00  0.00     0.153 C 
HETATM    5  C6  LIG X 999      44.450 130.308  21.625  1.00  0.00     0.031 C 
HETATM    6  C5  LIG X 999      45.718 129.939  20.848  1.00  0.00     0.003 C 
HETATM    7  C4  LIG X 999      45.552 130.242  19.354  1.00  0.00     0.009 C 
HETATM    8  C3  LIG X 999      45.187 131.722  19.113  1.00  0.00     0.018 C 
HETATM    9  C2  LIG X 999      44.936 131.943  17.639  1.00  0.00    -0.021 C 
HETATM   10  C8  LIG X 999      43.939 132.148  19.938  1.00  0.00     0.043 C 
HETATM   11  C1  LIG X 999      43.713 131.771  17.122  1.00  0.00    -0.004 C 
HETATM   12  C10 LIG X 999      42.565 131.461  17.996  1.00  0.00    -0.004 C 
HETATM   13  C9  LIG X 999      42.675 131.571  19.325  1.00  0.00    -0.019 C 
ENDBRANCH   1   4
TORSDOF 1
ENDMDL
MODEL 6
REMARK VINA RESULT:      -4.5      6.359      7.864
REMARK  1 active torsions:
REMARK  status: ('A' for Active; 'I' for Inactive)
REMARK    1  A    between atoms: C7_7  and  N1_8 
ROOT
HETATM    1  N1  LIG X 999      44.998 128.227  23.330  1.00  0.00    -0.110 NA
HETATM    2  N2  LIG X 999      44.760 127.117  22.852  1.00  0.00    -0.167 NA
HETATM    3  N3  LIG X 999      44.523 126.009  22.374  1.00  0.00     0.068 N 
ENDROOT
BRANCH   1   4
HETATM    4  C7  LIG X 999      43.979 129.272  23.354  1.00  0.00     0.153 C 
HETATM    5  C6  LIG X 999      44.304 130.282  24.464  1.00  0.00     0.031 C 
HETATM    6  C5  LIG X 999      43.238 131.380  24.528  1.00  0.00     0.003 C 
HETATM    7  C4  LIG X 999      43.126 132.114  23.186  1.00  0.00     0.009 C 
HETATM    8  C3  LIG X 999      42.822 131.138  22.030  1.00  0.00     0.018 C 
HETATM    9  C2  LIG X 999      42.823 131.894  20.722  1.00  0.00    -0.021 C 
HETATM   10  C8  LIG X 999      43.851 129.973  21.975  1.00  0.00     0.043 C 
HETATM   11  C1  LIG X 999      43.954 132.045  20.021  1.00  0.00    -0.004 C 
HETATM   12  C10 LIG X 999      45.202 131.391  20.462  1.00  0.00    -0.004 C 
HETATM   13  C9  LIG X 999      45.178 130.461  21.424  1.00  0.00    -0.019 C 
ENDBRANCH   1   4
TORSDOF 1
ENDMDL
MODEL 7
REMARK VINA RESULT:      -4.2      3.051      4.765
REMARK  1 active torsions:
REMARK  status: ('A' for Active; 'I' for Inactive)
REMARK    1  A    between atoms: C7_7  and  N1_8 
ROOT
HETATM    1  N1  LIG X 999      45.369 131.908  17.546  1.00  0.00    -0.110 NA
HETATM    2  N2  LIG X 999      44.921 131.994  18.690  1.00  0.00    -0.167 NA
HETATM    3  N3  LIG X 999      44.475 132.081  19.833  1.00  0.00     0.068 N 
ENDROOT
BRANCH   1   4
HETATM    4  C7  LIG X 999      45.681 130.610  16.954  1.00  0.00     0.153 C 
HETATM    5  C6  LIG X 999      44.397 129.972  16.407  1.00  0.00     0.031 C 
HETATM    6  C5  LIG X 999      44.691 128.596  15.799  1.00  0.00     0.003 C 
HETATM    7  C4  LIG X 999      45.727 128.705  14.675  1.00  0.00     0.009 C 
HETATM    8  C3  LIG X 999      47.033 129.363  15.168  1.00  0.00     0.018 C 
HETATM    9  C2  LIG X 999      47.979 129.539  14.002  1.00  0.00    -0.021 C 
HETATM   10  C8  LIG X 999      46.763 130.735  15.849  1.00  0.00     0.043 C 
HETATM   11  C1  LIG X 999      47.944 130.650  13.256  1.00  0.00    -0.004 C 
HETATM   12  C10 LIG X 999      47.051 131.768  13.618  1.00  0.00    -0.004 C 
HETATM   13  C9  LIG X 999      46.439 131.791  14.807  1.00  0.00    -0.019 C 
ENDBRANCH   1   4
TORSDOF 1
ENDMDL
MODEL 8
REMARK VINA RESULT:      -4.1      3.026      4.589
REMARK  1 active torsions:
REMARK  status: ('A' for Active; 'I' for Inactive)
REMARK    1  A    between atoms: C7_7  and  N1_8 
ROOT
HETATM    1  N1  LIG X 999      46.040 130.421  18.799  1.00  0.00    -0.110 NA
HETATM    2  N2  LIG X 999      45.871 130.754  19.973  1.00  0.00    -0.167 NA
HETATM    3  N3  LIG X 999      45.702 131.085  21.145  1.00  0.00     0.068 N 
ENDROOT
BRANCH   1   4
HETATM    4  C7  LIG X 999      44.944 130.469  17.835  1.00  0.00     0.153 C 
HETATM    5  C6  LIG X 999      44.155 131.773  18.019  1.00  0.00     0.031 C 
HETATM    6  C5  LIG X 999      42.983 131.840  17.034  1.00  0.00     0.003 C 
HETATM    7  C4  LIG X 999      43.477 131.741  15.587  1.00  0.00     0.009 C 
HETATM    8  C3  LIG X 999      44.298 130.455  15.355  1.00  0.00     0.018 C 
HETATM    9  C2  LIG X 999      44.845 130.456  13.946  1.00  0.00    -0.021 C 
HETATM   10  C8  LIG X 999      45.460 130.323  16.380  1.00  0.00     0.043 C 
HETATM   11  C1  LIG X 999      46.031 131.015  13.674  1.00  0.00    -0.004 C 
HETATM   12  C10 LIG X 999      46.873 131.552  14.761  1.00  0.00    -0.004 C 
HETATM   13  C9  LIG X 999      46.581 131.289  16.040  1.00  0.00    -0.019 C 
ENDBRANCH   1   4
TORSDOF 1
ENDMDL
MODEL 9
REMARK VINA RESULT:      -3.8      4.000      5.793
REMARK  1 active torsions:
REMARK  status: ('A' for Active; 'I' for Inactive)
REMARK    1  A    between atoms: C7_7  and  N1_8 
ROOT
HETATM    1  N1  LIG X 999      43.080 131.770  18.403  1.00  0.00    -0.110 NA
HETATM    2  N2  LIG X 999      43.419 131.693  17.221  1.00  0.00    -0.167 NA
HETATM    3  N3  LIG X 999      43.756 131.614  16.041  1.00  0.00     0.068 N 
ENDROOT
BRANCH   1   4
HETATM    4  C7  LIG X 999      43.963 131.314  19.472  1.00  0.00     0.153 C 
HETATM    5  C6  LIG X 999      45.106 132.322  19.661  1.00  0.00     0.031 C 
HETATM    6  C5  LIG X 999      46.063 131.857  20.763  1.00  0.00     0.003 C 
HETATM    7  C4  LIG X 999      45.320 131.672  22.091  1.00  0.00     0.009 C 
HETATM    8  C3  LIG X 999      44.144 130.683  21.950  1.00  0.00     0.018 C 
HETATM    9  C2  LIG X 999      43.385 130.615  23.256  1.00  0.00    -0.021 C 
HETATM   10  C8  LIG X 999      43.185 131.091  20.796  1.00  0.00     0.043 C 
HETATM   11  C1  LIG X 999      42.376 131.459  23.504  1.00  0.00    -0.004 C 
HETATM   12  C10 LIG X 999      41.917 132.405  22.468  1.00  0.00    -0.004 C 
HETATM   13  C9  LIG X 999      42.339 132.284  21.204  1.00  0.00    -0.019 C 
ENDBRANCH   1   4
TORSDOF 1
ENDMDL
