REMARK VINA RESULT:      -7.0      2.903      7.138
REMARK  6 active torsions:
REMARK  status: ('A' for Active; 'I' for Inactive)
REMARK    1  A    between atoms: S1_2  and  C1_3 
REMARK    2  A    between atoms: C1_3  and  N2_15 
REMARK    3  A    between atoms: N1_4  and  C2_5 
REMARK    4  A    between atoms: N2_15  and  C12_17 
REMARK    5  A    between atoms: C12_17  and  C13_18 
REMARK    6  A    between atoms: C13_18  and  C14_19 
ROOT
HETATM    1  C2  LIG X 999      44.186 131.563  18.416  1.00  0.00     0.060 A 
HETATM    2  C3  LIG X 999      45.384 130.992  18.860  1.00  0.00     0.032 A 
HETATM    3  C4  LIG X 999      45.594 130.747  20.219  1.00  0.00     0.014 A 
HETATM    4  C5  LIG X 999      44.612 131.094  21.158  1.00  0.00    -0.026 A 
HETATM    5  C6  LIG X 999      44.810 130.853  22.526  1.00  0.00     0.012 A 
HETATM    6  C7  LIG X 999      43.827 131.214  23.452  1.00  0.00     0.001 A 
HETATM    7  C8  LIG X 999      42.643 131.819  23.022  1.00  0.00     0.001 A 
HETATM    8  C9  LIG X 999      42.434 132.065  21.662  1.00  0.00     0.012 A 
HETATM    9  C10 LIG X 999      43.410 131.704  20.721  1.00  0.00    -0.024 A 
HETATM   10  C11 LIG X 999      43.212 131.947  19.353  1.00  0.00     0.044 A 
ENDROOT
BRANCH   1  11
HETATM   11  N1  LIG X 999      44.028 131.842  17.016  1.00  0.00    -0.225 NA
HETATM   12  C1  LIG X 999      44.286 131.036  16.026  1.00  0.00     0.160 C 
BRANCH  12  13
HETATM   13  S1  LIG X 999      43.885 131.598  14.370  1.00  0.00    -0.105 SA
HETATM   14  H1  LIG X 999      42.929 130.579  14.199  1.00  0.00     0.110 HD
ENDBRANCH  12  13
BRANCH  12  15
HETATM   15  N2  LIG X 999      44.947 129.773  16.232  1.00  0.00    -0.369 N 
HETATM   16  H9  LIG X 999      44.984 129.362  17.191  1.00  0.00     0.161 HD
BRANCH  15  17
HETATM   17  C12 LIG X 999      45.737 129.109  15.198  1.00  0.00     0.122 C 
BRANCH  17  18
HETATM   18  C13 LIG X 999      47.191 129.592  15.251  1.00  0.00     0.030 C 
BRANCH  18  19
HETATM   19  C14 LIG X 999      47.867 129.543  13.878  1.00  0.00     0.088 C 
HETATM   20  S2  LIG X 999      47.620 131.063  12.978  1.00  0.00    -0.098 SA
ENDBRANCH  18  19
ENDBRANCH  17  18
ENDBRANCH  15  17
ENDBRANCH  12  15
ENDBRANCH   1  11
TORSDOF 6
