MODEL 1
REMARK VINA RESULT:      -8.4      0.000      0.000
REMARK  3 active torsions:
REMARK  status: ('A' for Active; 'I' for Inactive)
REMARK    1  A    between atoms: C7_9  and  C8_10 
REMARK    2  A    between atoms: C9_14  and  N4_15 
REMARK    3  A    between atoms: N7_24  and  C14_25 
ROOT
HETATM    1  N4  LIG X 999      47.102 131.513  13.987  1.00  0.00    -0.025 NA
HETATM    2  N5  LIG X 999      47.741 130.503  13.688  1.00  0.00    -0.158 NA
HETATM    3  N6  LIG X 999      48.379 129.496  13.391  1.00  0.00     0.068 N 
ENDROOT
BRANCH   1   4
HETATM    4  C9  LIG X 999      45.864 131.410  14.687  1.00  0.00     0.302 A 
HETATM    5  N3  LIG X 999      44.716 131.006  14.127  1.00  0.00    -0.236 N 
HETATM    6  N2  LIG X 999      43.790 131.037  15.070  1.00  0.00    -0.145 NA
HETATM    7  H4  LIG X 999      44.556 130.720  13.135  1.00  0.00     0.193 HD
HETATM    8  C8  LIG X 999      44.423 131.459  16.188  1.00  0.00     0.203 A 
HETATM    9  O1  LIG X 999      45.697 131.698  15.955  1.00  0.00    -0.253 OA
BRANCH   8  10
HETATM   10  C7  LIG X 999      43.748 131.675  17.482  1.00  0.00     0.032 A 
HETATM   11  C6  LIG X 999      44.346 131.339  18.738  1.00  0.00     0.020 A 
HETATM   12  C1  LIG X 999      45.599 130.560  19.005  1.00  0.00     0.060 A 
HETATM   13  C5  LIG X 999      43.647 131.717  19.870  1.00  0.00     0.019 A 
HETATM   14  N1  LIG X 999      46.258 129.994  18.046  1.00  0.00    -0.299 NA
HETATM   15  C2  LIG X 999      46.030 130.350  20.430  1.00  0.00     0.034 A 
HETATM   16  H1  LIG X 999      47.112 129.419  18.222  1.00  0.00     0.187 HD
HETATM   17  C3  LIG X 999      45.277 130.786  21.461  1.00  0.00     0.033 A 
HETATM   18  C4  LIG X 999      44.022 131.493  21.158  1.00  0.00     0.048 A 
HETATM   19  N7  LIG X 999      43.068 131.965  21.999  1.00  0.00    -0.324 N 
HETATM   20  C13 LIG X 999      42.085 132.465  21.200  1.00  0.00     0.193 A 
HETATM   21  C12 LIG X 999      42.434 132.324  19.867  1.00  0.00     0.032 A 
HETATM   22  O2  LIG X 999      40.897 133.015  21.669  1.00  0.00    -0.171 OA
HETATM   23  C11 LIG X 999      41.794 132.628  18.672  1.00  0.00     0.018 A 
HETATM   24  C10 LIG X 999      42.464 132.301  17.472  1.00  0.00     0.018 A 
BRANCH  19  25
HETATM   25  C14 LIG X 999      43.038 131.854  23.456  1.00  0.00     0.127 C 
HETATM   26  C15 LIG X 999      42.485 130.497  23.873  1.00  0.00     0.027 C 
ENDBRANCH  19  25
ENDBRANCH   8  10
ENDBRANCH   1   4
TORSDOF 3
ENDMDL
MODEL 2
REMARK VINA RESULT:      -6.7      1.414      2.714
REMARK  3 active torsions:
REMARK  status: ('A' for Active; 'I' for Inactive)
REMARK    1  A    between atoms: C7_9  and  C8_10 
REMARK    2  A    between atoms: C9_14  and  N4_15 
REMARK    3  A    between atoms: N7_24  and  C14_25 
ROOT
HETATM    1  N4  LIG X 999      47.086 130.999  13.778  1.00  0.00    -0.025 NA
HETATM    2  N5  LIG X 999      47.975 130.241  13.386  1.00  0.00    -0.158 NA
HETATM    3  N6  LIG X 999      48.861 129.485  12.995  1.00  0.00     0.068 N 
ENDROOT
BRANCH   1   4
HETATM    4  C9  LIG X 999      46.272 130.649  14.896  1.00  0.00     0.302 A 
HETATM    5  N3  LIG X 999      45.242 129.794  14.837  1.00  0.00    -0.236 N 
HETATM    6  N2  LIG X 999      44.729 129.718  16.052  1.00  0.00    -0.145 NA
HETATM    7  H4  LIG X 999      44.890 129.276  14.001  1.00  0.00     0.193 HD
HETATM    8  C8  LIG X 999      45.483 130.538  16.818  1.00  0.00     0.203 A 
HETATM    9  O1  LIG X 999      46.428 131.120  16.110  1.00  0.00    -0.253 OA
BRANCH   8  10
HETATM   10  C7  LIG X 999      45.233 130.785  18.252  1.00  0.00     0.032 A 
HETATM   11  C6  LIG X 999      44.019 131.359  18.743  1.00  0.00     0.020 A 
HETATM   12  C1  LIG X 999      42.895 131.987  17.972  1.00  0.00     0.060 A 
HETATM   13  C5  LIG X 999      43.878 131.413  20.118  1.00  0.00     0.019 A 
HETATM   14  N1  LIG X 999      42.972 132.164  16.692  1.00  0.00    -0.299 NA
HETATM   15  C2  LIG X 999      41.705 132.512  18.726  1.00  0.00     0.034 A 
HETATM   16  H1  LIG X 999      42.212 132.632  16.150  1.00  0.00     0.187 HD
HETATM   17  C3  LIG X 999      41.666 132.490  20.075  1.00  0.00     0.033 A 
HETATM   18  C4  LIG X 999      42.815 131.923  20.798  1.00  0.00     0.048 A 
HETATM   19  N7  LIG X 999      43.049 131.845  22.131  1.00  0.00    -0.324 N 
HETATM   20  C13 LIG X 999      44.290 131.298  22.259  1.00  0.00     0.193 A 
HETATM   21  C12 LIG X 999      44.818 131.015  21.010  1.00  0.00     0.032 A 
HETATM   22  O2  LIG X 999      44.930 131.080  23.474  1.00  0.00    -0.171 OA
HETATM   23  C11 LIG X 999      46.033 130.495  20.579  1.00  0.00     0.018 A 
HETATM   24  C10 LIG X 999      46.234 130.379  19.186  1.00  0.00     0.018 A 
BRANCH  19  25
HETATM   25  C14 LIG X 999      42.203 132.353  23.210  1.00  0.00     0.127 C 
HETATM   26  C15 LIG X 999      42.011 131.285  24.280  1.00  0.00     0.027 C 
ENDBRANCH  19  25
ENDBRANCH   8  10
ENDBRANCH   1   4
TORSDOF 3
ENDMDL
MODEL 3
REMARK VINA RESULT:      -6.2      5.142      7.872
REMARK  3 active torsions:
REMARK  status: ('A' for Active; 'I' for Inactive)
REMARK    1  A    between atoms: C7_9  and  C8_10 
REMARK    2  A    between atoms: C9_14  and  N4_15 
REMARK    3  A    between atoms: N7_24  and  C14_25 
ROOT
HETATM    1  N4  LIG X 999      45.256 131.836  20.727  1.00  0.00    -0.025 NA
HETATM    2  N5  LIG X 999      44.712 131.779  19.624  1.00  0.00    -0.158 NA
HETATM    3  N6  LIG X 999      44.168 131.721  18.523  1.00  0.00     0.068 N 
ENDROOT
BRANCH   1   4
HETATM    4  C9  LIG X 999      44.869 130.952  21.777  1.00  0.00     0.302 A 
HETATM    5  N3  LIG X 999      44.648 131.339  23.041  1.00  0.00    -0.236 N 
HETATM    6  N2  LIG X 999      44.312 130.259  23.725  1.00  0.00    -0.145 NA
HETATM    7  H4  LIG X 999      44.723 132.303  23.436  1.00  0.00     0.193 HD
HETATM    8  C8  LIG X 999      44.335 129.242  22.835  1.00  0.00     0.203 A 
HETATM    9  O1  LIG X 999      44.686 129.661  21.637  1.00  0.00    -0.253 OA
BRANCH   8  10
HETATM   10  C7  LIG X 999      44.058 127.835  23.186  1.00  0.00     0.032 A 
HETATM   11  C6  LIG X 999      42.755 127.362  23.539  1.00  0.00     0.020 A 
HETATM   12  C1  LIG X 999      41.510 128.152  23.819  1.00  0.00     0.060 A 
HETATM   13  C5  LIG X 999      42.626 125.997  23.718  1.00  0.00     0.019 A 
HETATM   14  N1  LIG X 999      41.529 129.445  23.861  1.00  0.00    -0.299 NA
HETATM   15  C2  LIG X 999      40.246 127.413  24.159  1.00  0.00     0.034 A 
HETATM   16  H1  LIG X 999      40.677 130.006  24.090  1.00  0.00     0.187 HD
HETATM   17  C3  LIG X 999      40.232 126.069  24.284  1.00  0.00     0.033 A 
HETATM   18  C4  LIG X 999      41.488 125.335  24.063  1.00  0.00     0.048 A 
HETATM   19  N7  LIG X 999      41.753 124.011  24.190  1.00  0.00    -0.324 N 
HETATM   20  C13 LIG X 999      43.085 123.873  23.940  1.00  0.00     0.193 A 
HETATM   21  C12 LIG X 999      43.643 125.104  23.636  1.00  0.00     0.032 A 
HETATM   22  O2  LIG X 999      43.774 122.668  24.004  1.00  0.00    -0.171 OA
HETATM   23  C11 LIG X 999      44.936 125.523  23.343  1.00  0.00     0.018 A 
HETATM   24  C10 LIG X 999      45.137 126.901  23.113  1.00  0.00     0.018 A 
BRANCH  19  25
HETATM   25  C14 LIG X 999      40.832 122.962  24.625  1.00  0.00     0.127 C 
HETATM   26  C15 LIG X 999      39.895 122.575  23.487  1.00  0.00     0.027 C 
ENDBRANCH  19  25
ENDBRANCH   8  10
ENDBRANCH   1   4
TORSDOF 3
ENDMDL
