REMARK VINA RESULT:      -6.0      3.031      7.465
REMARK  2 active torsions:
REMARK  status: ('A' for Active; 'I' for Inactive)
REMARK    1  A    between atoms: C2_5  and  C3_6 
REMARK    2  A    between atoms: N3_18  and  C13_19 
ROOT
HETATM    1  H1  LIG X 999      47.471 130.497  20.770  1.00  0.00     0.190 HD
HETATM    2  N1  LIG X 999      46.477 130.721  21.003  1.00  0.00    -0.260 NA
HETATM    3  C1  LIG X 999      45.606 130.918  20.066  1.00  0.00     0.268 A 
HETATM    4  O1  LIG X 999      45.883 130.869  18.783  1.00  0.00    -0.257 OA
HETATM    5  C2  LIG X 999      44.744 131.141  18.177  1.00  0.00     0.177 A 
HETATM    6  N2  LIG X 999      43.766 131.369  19.080  1.00  0.00    -0.269 N 
HETATM    7  H9  LIG X 999      42.761 131.579  18.887  1.00  0.00     0.190 HD
HETATM    8  N3  LIG X 999      44.309 131.222  20.278  1.00  0.00    -0.212 N 
ENDROOT
BRANCH   5   9
HETATM    9  C3  LIG X 999      44.566 131.226  16.708  1.00  0.00     0.028 A 
HETATM   10  C4  LIG X 999      43.381 131.806  16.223  1.00  0.00     0.017 A 
HETATM   11  C5  LIG X 999      43.178 131.982  14.856  1.00  0.00     0.002 A 
HETATM   12  C6  LIG X 999      44.151 131.582  13.943  1.00  0.00     0.012 A 
HETATM   13  C7  LIG X 999      45.335 130.982  14.391  1.00  0.00    -0.025 A 
HETATM   14  C8  LIG X 999      46.300 130.563  13.461  1.00  0.00     0.012 A 
HETATM   15  C12 LIG X 999      45.552 130.783  15.783  1.00  0.00    -0.011 A 
HETATM   16  C9  LIG X 999      47.467 129.934  13.892  1.00  0.00     0.001 A 
HETATM   17  C10 LIG X 999      47.677 129.705  15.250  1.00  0.00     0.001 A 
HETATM   18  C11 LIG X 999      46.729 130.116  16.191  1.00  0.00     0.013 A 
ENDBRANCH   5   9
BRANCH   8  19
HETATM   19  C13 LIG X 999      43.608 131.357  21.527  1.00  0.00     0.105 A 
HETATM   20  C14 LIG X 999      44.052 130.674  22.671  1.00  0.00     0.054 A 
HETATM   21  C15 LIG X 999      43.350 130.806  23.871  1.00  0.00     0.122 A 
HETATM   22  N4  LIG X 999      42.244 131.594  23.931  1.00  0.00    -0.230 NA
HETATM   23  C16 LIG X 999      41.789 132.267  22.841  1.00  0.00     0.251 A 
HETATM   24  F1  LIG X 999      40.684 133.046  22.946  1.00  0.00    -0.181 F 
HETATM   25  C17 LIG X 999      42.459 132.161  21.619  1.00  0.00     0.202 A 
HETATM   26  F2  LIG X 999      42.013 132.864  20.547  1.00  0.00    -0.199 F 
ENDBRANCH   8  19
TORSDOF 2
