REMARK VINA RESULT:      -3.8      2.001      2.511
REMARK  5 active torsions:
REMARK  status: ('A' for Active; 'I' for Inactive)
REMARK    1  A    between atoms: C3_3  and  C4_4 
REMARK    2  A    between atoms: C4_4  and  S1_5 
REMARK    3  A    between atoms: S1_5  and  C5_6 
REMARK    4  A    between atoms: C6_7  and  N1_8 
REMARK    5  A    between atoms: C10_12  and  N2_13 
ROOT
HETATM    1  C1  LIG X 999      49.342 133.825  23.224  1.00  0.00     0.112 C 
HETATM    2  C2  LIG X 999      48.157 133.613  22.396  1.00  0.00    -0.110 C 
HETATM    3  C3  LIG X 999      47.175 133.445  21.717  1.00  0.00    -0.097 C 
ENDROOT
BRANCH   3   4
HETATM    4  C4  LIG X 999      45.979 133.250  20.893  1.00  0.00     0.173 C 
BRANCH   4   5
HETATM    5  S1  LIG X 999      45.522 131.484  20.840  1.00  0.00    -0.115 SA
BRANCH   5   6
HETATM    6  C5  LIG X 999      44.218 131.691  19.598  1.00  0.00     0.038 A 
HETATM    7  C6  LIG X 999      42.922 132.077  20.007  1.00  0.00     0.043 A 
HETATM    8  C7  LIG X 999      41.920 132.259  19.053  1.00  0.00     0.031 A 
HETATM    9  C8  LIG X 999      42.172 132.064  17.699  1.00  0.00     0.017 A 
HETATM   10  C9  LIG X 999      43.449 131.679  17.250  1.00  0.00     0.002 A 
HETATM   11  C10 LIG X 999      43.725 131.473  15.864  1.00  0.00     0.045 A 
HETATM   12  C14 LIG X 999      44.481 131.465  18.220  1.00  0.00    -0.004 A 
HETATM   13  C11 LIG X 999      45.005 131.033  15.503  1.00  0.00     0.003 A 
HETATM   14  C12 LIG X 999      45.975 130.817  16.429  1.00  0.00    -0.021 A 
HETATM   15  C18 LIG X 999      45.528 130.736  14.145  1.00  0.00     0.278 C 
HETATM   16  C13 LIG X 999      45.752 131.023  17.784  1.00  0.00     0.023 A 
HETATM   17  C15 LIG X 999      47.223 130.345  15.791  1.00  0.00     0.276 C 
HETATM   18  N3  LIG X 999      46.987 130.453  14.318  1.00  0.00    -0.067 N 
HETATM   19  C16 LIG X 999      47.791 131.565  13.755  1.00  0.00     0.272 C 
HETATM   20  C17 LIG X 999      47.362 129.193  13.635  1.00  0.00     0.272 C 
BRANCH   7  21
HETATM   21  N1  LIG X 999      42.594 132.273  21.391  1.00  0.00    -0.398 N 
HETATM   22  H6  LIG X 999      41.676 131.949  21.768  1.00  0.00     0.156 HD
HETATM   23  H7  LIG X 999      43.250 132.724  22.065  1.00  0.00     0.156 HD
ENDBRANCH   7  21
BRANCH  11  24
HETATM   24  N2  LIG X 999      42.749 131.716  14.836  1.00  0.00    -0.398 N 
HETATM   25  H10 LIG X 999      41.979 132.408  14.942  1.00  0.00     0.156 HD
HETATM   26  H11 LIG X 999      42.850 131.282  13.893  1.00  0.00     0.156 HD
ENDBRANCH  11  24
ENDBRANCH   5   6
ENDBRANCH   4   5
ENDBRANCH   3   4
TORSDOF 5
