REMARK VINA RESULT:      -4.7      3.238      5.176
REMARK  4 active torsions:
REMARK  status: ('A' for Active; 'I' for Inactive)
REMARK    1  A    between atoms: C3_4  and  O1_5 
REMARK    2  A    between atoms: C3_4  and  O2_6 
REMARK    3  A    between atoms: O2_6  and  C4_7 
REMARK    4  A    between atoms: C7_10  and  N2_11 
ROOT
HETATM    1  C4  LIG X 999      45.019 130.108  21.340  1.00  0.00     0.091 A 
HETATM    2  C5  LIG X 999      45.644 128.866  21.163  1.00  0.00     0.040 A 
HETATM    3  C6  LIG X 999      45.419 127.825  22.059  1.00  0.00     0.033 A 
HETATM    4  C7  LIG X 999      44.580 127.992  23.168  1.00  0.00     0.037 A 
HETATM    5  C8  LIG X 999      43.935 129.243  23.371  1.00  0.00     0.003 A 
HETATM    6  C9  LIG X 999      43.050 129.469  24.448  1.00  0.00     0.014 A 
HETATM    7  C10 LIG X 999      42.442 130.714  24.625  1.00  0.00     0.001 A 
HETATM    8  C11 LIG X 999      42.696 131.753  23.734  1.00  0.00     0.001 A 
HETATM    9  C12 LIG X 999      43.552 131.553  22.652  1.00  0.00     0.015 A 
HETATM   10  C13 LIG X 999      44.176 130.307  22.452  1.00  0.00     0.010 A 
ENDROOT
BRANCH   1  11
HETATM   11  O2  LIG X 999      45.256 131.169  20.451  1.00  0.00    -0.273 OA
BRANCH  11  12
HETATM   12  C3  LIG X 999      45.136 131.095  19.055  1.00  0.00     0.265 C 
HETATM   13  N1  LIG X 999      44.065 131.584  18.472  1.00  0.00    -0.350 N 
HETATM   14  C1  LIG X 999      43.024 132.219  19.294  1.00  0.00     0.153 C 
HETATM   15  C2  LIG X 999      43.885 131.514  17.015  1.00  0.00     0.153 C 
BRANCH  12  16
HETATM   16  O1  LIG X 999      46.147 130.461  18.321  1.00  0.00    -0.327 OA
HETATM   17  H7  LIG X 999      46.062 130.191  17.350  1.00  0.00     0.221 HD
ENDBRANCH  12  16
ENDBRANCH  11  12
ENDBRANCH   1  11
BRANCH   4  18
HETATM   18  N2  LIG X 999      44.423 126.883  24.069  1.00  0.00    -0.398 N 
HETATM   19  H10 LIG X 999      43.540 126.677  24.578  1.00  0.00     0.156 HD
HETATM   20  H11 LIG X 999      45.247 126.289  24.316  1.00  0.00     0.156 HD
ENDBRANCH   4  18
TORSDOF 4
