REMARK VINA RESULT:      -7.1      1.508      5.303
REMARK  1 active torsions:
REMARK  status: ('A' for Active; 'I' for Inactive)
REMARK    1  A    between atoms: C12_13  and  N2_14 
ROOT
HETATM    1  C1  LIG X 999      44.094 132.422  23.757  1.00  0.00     0.272 C 
HETATM    2  N1  LIG X 999      43.558 131.282  22.976  1.00  0.00    -0.067 N 
HETATM    3  C2  LIG X 999      42.783 130.400  23.878  1.00  0.00     0.272 C 
HETATM    4  C3  LIG X 999      44.679 130.527  22.335  1.00  0.00     0.276 C 
HETATM    5  C4  LIG X 999      44.587 130.824  20.891  1.00  0.00    -0.021 A 
HETATM    6  C5  LIG X 999      45.482 130.449  19.896  1.00  0.00     0.022 A 
HETATM    7  C6  LIG X 999      45.208 130.810  18.566  1.00  0.00    -0.023 A 
HETATM    8  C7  LIG X 999      46.098 130.434  17.547  1.00  0.00     0.012 A 
HETATM    9  C8  LIG X 999      45.831 130.768  16.220  1.00  0.00     0.001 A 
HETATM   10  C9  LIG X 999      44.673 131.474  15.895  1.00  0.00     0.001 A 
HETATM   11  C10 LIG X 999      43.774 131.858  16.894  1.00  0.00     0.014 A 
HETATM   12  C11 LIG X 999      44.025 131.547  18.248  1.00  0.00     0.001 A 
HETATM   13  C12 LIG X 999      43.135 131.924  19.298  1.00  0.00     0.045 A 
HETATM   14  C13 LIG X 999      43.459 131.533  20.610  1.00  0.00     0.003 A 
HETATM   15  C14 LIG X 999      42.696 131.785  21.858  1.00  0.00     0.278 C 
ENDROOT
BRANCH  13  16
HETATM   16  N2  LIG X 999      41.939 132.686  19.065  1.00  0.00    -0.398 N 
HETATM   17  H14 LIG X 999      41.775 133.626  19.481  1.00  0.00     0.156 HD
HETATM   18  H15 LIG X 999      41.144 132.281  18.523  1.00  0.00     0.156 HD
ENDBRANCH  13  16
TORSDOF 1
