REMARK VINA RESULT:      -8.7      0.000      0.000
REMARK  3 active torsions:
REMARK  status: ('A' for Active; 'I' for Inactive)
REMARK    1  A    between atoms: C3_3  and  S1_4 
REMARK    2  A    between atoms: S1_4  and  C4_7 
REMARK    3  A    between atoms: C12_15  and  N1_16 
ROOT
HETATM    1  C1  LIG X 999      48.171 129.481  13.645  1.00  0.00     0.013 C 
HETATM    2  C2  LIG X 999      47.233 129.563  14.399  1.00  0.00    -0.102 C 
HETATM    3  C3  LIG X 999      46.094 129.663  15.316  1.00  0.00     0.233 C 
ENDROOT
BRANCH   3   4
HETATM    4  S1  LIG X 999      45.456 131.332  15.357  1.00  0.00     0.159 S 
HETATM    5  O1  LIG X 999      46.527 132.300  14.935  1.00  0.00    -0.227 OA
HETATM    6  O2  LIG X 999      44.313 131.420  14.386  1.00  0.00    -0.227 OA
BRANCH   4   7
HETATM    7  C4  LIG X 999      44.857 131.756  16.997  1.00  0.00     0.116 C 
HETATM    8  C5  LIG X 999      45.486 130.825  18.043  1.00  0.00     0.059 C 
HETATM    9  C6  LIG X 999      44.906 131.033  19.420  1.00  0.00    -0.049 A 
HETATM   10  C7  LIG X 999      45.633 130.581  20.533  1.00  0.00     0.007 A 
HETATM   11  C11 LIG X 999      43.617 131.593  19.608  1.00  0.00    -0.019 A 
HETATM   12  C8  LIG X 999      45.120 130.725  21.823  1.00  0.00     0.001 A 
HETATM   13  C9  LIG X 999      43.873 131.317  22.016  1.00  0.00     0.001 A 
HETATM   14  C10 LIG X 999      43.130 131.757  20.918  1.00  0.00     0.010 A 
HETATM   15  C12 LIG X 999      42.812 132.141  18.441  1.00  0.00     0.252 C 
HETATM   16  C13 LIG X 999      43.330 131.654  17.072  1.00  0.00     0.060 C 
BRANCH  15  17
HETATM   17  N1  LIG X 999      41.393 131.806  18.596  1.00  0.00     0.087 N 
HETATM   18  H12 LIG X 999      41.303 131.025  19.285  1.00  0.00     0.313 HD
HETATM   19  H13 LIG X 999      40.883 132.633  18.988  1.00  0.00     0.313 HD
ENDBRANCH  15  17
ENDBRANCH   4   7
ENDBRANCH   3   4
TORSDOF 3
