REMARK VINA RESULT:      -5.4      5.140      7.157
REMARK  1 active torsions:
REMARK  status: ('A' for Active; 'I' for Inactive)
REMARK    1  A    between atoms: C3_3  and  N1_4 
ROOT
HETATM    1  N1  LIG X 999      45.094 131.055  21.148  1.00  0.00    -0.072 NA
HETATM    2  N2  LIG X 999      44.668 131.365  20.033  1.00  0.00    -0.162 NA
HETATM    3  N3  LIG X 999      44.245 131.677  18.922  1.00  0.00     0.068 N 
ENDROOT
BRANCH   1   4
HETATM    4  C3  LIG X 999      44.223 130.671  22.219  1.00  0.00     0.104 A 
HETATM    5  C2  LIG X 999      43.399 131.662  22.768  1.00  0.00     0.035 A 
HETATM    6  C1  LIG X 999      42.469 131.356  23.761  1.00  0.00     0.003 A 
HETATM    7  C10 LIG X 999      42.352 130.052  24.236  1.00  0.00     0.012 A 
HETATM    8  C9  LIG X 999      43.189 129.042  23.742  1.00  0.00    -0.023 A 
HETATM    9  C4  LIG X 999      44.157 129.347  22.734  1.00  0.00     0.006 A 
HETATM   10  C8  LIG X 999      43.090 127.736  24.259  1.00  0.00     0.021 A 
HETATM   11  C5  LIG X 999      45.050 128.328  22.320  1.00  0.00     0.024 A 
HETATM   12  C6  LIG X 999      44.913 127.047  22.855  1.00  0.00    -0.023 A 
HETATM   13  C7  LIG X 999      43.963 126.759  23.783  1.00  0.00    -0.024 A 
HETATM   14  C14 LIG X 999      45.746 125.857  22.580  1.00  0.00     0.276 C 
HETATM   15  C11 LIG X 999      44.067 125.349  24.215  1.00  0.00     0.276 C 
HETATM   16  N4  LIG X 999      45.095 124.729  23.320  1.00  0.00    -0.067 N 
HETATM   17  C12 LIG X 999      44.442 123.806  22.361  1.00  0.00     0.272 C 
HETATM   18  C13 LIG X 999      46.093 123.976  24.111  1.00  0.00     0.272 C 
ENDBRANCH   1   4
TORSDOF 1
