REMARK VINA RESULT:      -5.4      1.660      2.646
REMARK  1 active torsions:
REMARK  status: ('A' for Active; 'I' for Inactive)
REMARK    1  A    between atoms: C3_3  and  N1_4 
ROOT
HETATM    1  N1  LIG X 999      46.142 130.552  17.345  1.00  0.00    -0.072 NA
HETATM    2  N2  LIG X 999      46.511 130.207  16.220  1.00  0.00    -0.162 NA
HETATM    3  N3  LIG X 999      46.882 129.866  15.098  1.00  0.00     0.068 N 
ENDROOT
BRANCH   1   4
HETATM    4  C3  LIG X 999      44.846 131.120  17.583  1.00  0.00     0.104 A 
HETATM    5  C2  LIG X 999      44.114 131.544  16.467  1.00  0.00     0.035 A 
HETATM    6  C1  LIG X 999      42.818 132.039  16.604  1.00  0.00     0.003 A 
HETATM    7  C10 LIG X 999      42.231 132.132  17.865  1.00  0.00     0.012 A 
HETATM    8  C9  LIG X 999      42.949 131.759  19.009  1.00  0.00    -0.023 A 
HETATM    9  C4  LIG X 999      44.286 131.265  18.881  1.00  0.00     0.006 A 
HETATM   10  C8  LIG X 999      42.361 131.894  20.281  1.00  0.00     0.021 A 
HETATM   11  C5  LIG X 999      45.018 130.976  20.059  1.00  0.00     0.024 A 
HETATM   12  C6  LIG X 999      44.397 131.133  21.299  1.00  0.00    -0.023 A 
HETATM   13  C7  LIG X 999      43.114 131.567  21.405  1.00  0.00    -0.024 A 
HETATM   14  C14 LIG X 999      44.970 130.871  22.637  1.00  0.00     0.276 C 
HETATM   15  C11 LIG X 999      42.702 131.634  22.823  1.00  0.00     0.276 C 
HETATM   16  N4  LIG X 999      43.936 131.331  23.618  1.00  0.00    -0.067 N 
HETATM   17  C12 LIG X 999      43.664 130.278  24.623  1.00  0.00     0.272 C 
HETATM   18  C13 LIG X 999      44.403 132.553  24.314  1.00  0.00     0.272 C 
ENDBRANCH   1   4
TORSDOF 1
