REMARK VINA RESULT:      -6.4      3.361      6.339
REMARK  1 active torsions:
REMARK  status: ('A' for Active; 'I' for Inactive)
REMARK    1  A    between atoms: C10_11  and  N2_12 
ROOT
HETATM    1  N2  LIG X 999      44.898 130.828  15.138  1.00  0.00    -0.052 NA
HETATM    2  N3  LIG X 999      45.974 131.161  14.639  1.00  0.00    -0.160 NA
HETATM    3  N4  LIG X 999      47.047 131.493  14.140  1.00  0.00     0.068 N 
ENDROOT
BRANCH   1   4
HETATM    4  C10 LIG X 999      44.604 131.088  16.513  1.00  0.00     0.186 C 
HETATM    5  N1  LIG X 999      45.554 130.923  17.465  1.00  0.00    -0.226 NA
HETATM    6  C9  LIG X 999      45.309 131.141  18.783  1.00  0.00     0.071 C 
HETATM    7  C8  LIG X 999      46.364 131.011  19.684  1.00  0.00     0.033 C 
HETATM    8  C14 LIG X 999      44.009 131.518  19.227  1.00  0.00     0.010 C 
HETATM    9  C7  LIG X 999      46.166 131.232  21.040  1.00  0.00     0.014 C 
HETATM   10  C5  LIG X 999      44.882 131.480  21.534  1.00  0.00    -0.025 C 
HETATM   11  C4  LIG X 999      43.771 131.559  20.642  1.00  0.00    -0.013 C 
HETATM   12  C6  LIG X 999      44.692 131.594  22.920  1.00  0.00     0.012 C 
HETATM   13  C3  LIG X 999      42.479 131.570  21.218  1.00  0.00     0.013 C 
HETATM   14  C2  LIG X 999      42.304 131.668  22.601  1.00  0.00     0.001 C 
HETATM   15  C1  LIG X 999      43.408 131.709  23.447  1.00  0.00     0.001 C 
HETATM   16  C12 LIG X 999      43.057 131.862  18.212  1.00  0.00    -0.045 C 
HETATM   17  C11 LIG X 999      43.352 131.574  16.869  1.00  0.00     0.063 C 
HETATM   18  C13 LIG X 999      41.799 132.658  18.459  1.00  0.00     0.049 C 
ENDBRANCH   1   4
TORSDOF 1
