REMARK VINA RESULT:      -6.4      1.211      1.679
REMARK  1 active torsions:
REMARK  status: ('A' for Active; 'I' for Inactive)
REMARK    1  A    between atoms: C13_15  and  N2_16 
ROOT
HETATM    1  N1  LIG X 999      46.626 130.620  13.377  1.00  0.00    -0.191 NA
HETATM    2  C1  LIG X 999      45.959 130.793  14.307  1.00  0.00     0.109 C 
HETATM    3  C2  LIG X 999      45.132 131.010  15.463  1.00  0.00     0.113 A 
HETATM    4  S1  LIG X 999      43.580 131.650  15.396  1.00  0.00    -0.076 SA
HETATM    5  C3  LIG X 999      43.376 131.709  17.060  1.00  0.00     0.019 A 
HETATM    6  C4  LIG X 999      42.274 132.217  17.737  1.00  0.00     0.021 A 
HETATM    7  C5  LIG X 999      42.288 132.216  19.133  1.00  0.00     0.013 A 
HETATM    8  C6  LIG X 999      43.370 131.651  19.837  1.00  0.00    -0.025 A 
HETATM    9  C7  LIG X 999      43.333 131.602  21.240  1.00  0.00     0.012 A 
HETATM   10  C8  LIG X 999      44.353 130.968  21.950  1.00  0.00     0.001 A 
HETATM   11  C9  LIG X 999      45.400 130.351  21.268  1.00  0.00     0.001 A 
HETATM   12  C10 LIG X 999      45.459 130.397  19.872  1.00  0.00     0.013 A 
HETATM   13  C11 LIG X 999      44.482 131.095  19.133  1.00  0.00    -0.012 A 
HETATM   14  C12 LIG X 999      44.500 131.205  17.716  1.00  0.00     0.020 A 
HETATM   15  C13 LIG X 999      45.526 130.859  16.796  1.00  0.00     0.066 A 
ENDROOT
BRANCH  15  16
HETATM   16  N2  LIG X 999      46.887 130.591  17.147  1.00  0.00    -0.397 N 
HETATM   17  H7  LIG X 999      47.189 129.623  17.391  1.00  0.00     0.156 HD
HETATM   18  H8  LIG X 999      47.636 131.282  16.920  1.00  0.00     0.156 HD
ENDBRANCH  15  16
TORSDOF 1
