REMARK VINA RESULT:      -4.6      4.320      6.202
REMARK  3 active torsions:
REMARK  status: ('A' for Active; 'I' for Inactive)
REMARK    1  A    between atoms: C3_3  and  S1_4 
REMARK    2  A    between atoms: S1_4  and  C4_7 
REMARK    3  A    between atoms: C6_9  and  N1_10 
ROOT
HETATM    1  C1  LIG X 999      43.079 124.401  21.880  1.00  0.00     0.013 C 
HETATM    2  C2  LIG X 999      43.244 125.346  22.610  1.00  0.00    -0.102 C 
HETATM    3  C3  LIG X 999      43.446 126.497  23.494  1.00  0.00     0.238 C 
ENDROOT
BRANCH   3   4
HETATM    4  S1  LIG X 999      45.018 127.264  23.144  1.00  0.00     0.186 S 
HETATM    5  O1  LIG X 999      45.787 126.366  22.214  1.00  0.00    -0.222 OA
HETATM    6  O2  LIG X 999      45.814 127.413  24.410  1.00  0.00    -0.222 OA
BRANCH   4   7
HETATM    7  C4  LIG X 999      44.773 128.854  22.388  1.00  0.00     0.073 A 
HETATM    8  C5  LIG X 999      45.454 129.123  21.190  1.00  0.00     0.058 A 
HETATM    9  C6  LIG X 999      45.309 130.344  20.529  1.00  0.00     0.095 A 
HETATM   10  C7  LIG X 999      44.464 131.325  21.067  1.00  0.00     0.046 A 
HETATM   11  C8  LIG X 999      43.764 131.084  22.256  1.00  0.00    -0.022 A 
HETATM   12  C9  LIG X 999      42.915 132.075  22.777  1.00  0.00     0.012 A 
HETATM   13  C13 LIG X 999      43.908 129.842  22.932  1.00  0.00    -0.004 A 
HETATM   14  C10 LIG X 999      42.207 131.847  23.955  1.00  0.00     0.001 A 
HETATM   15  C11 LIG X 999      42.335 130.631  24.625  1.00  0.00     0.001 A 
HETATM   16  C12 LIG X 999      43.176 129.636  24.121  1.00  0.00     0.014 A 
BRANCH   9  17
HETATM   17  N1  LIG X 999      46.033 130.559  19.309  1.00  0.00    -0.073 NA
HETATM   18  N2  LIG X 999      45.509 131.049  18.308  1.00  0.00    -0.162 NA
HETATM   19  N3  LIG X 999      44.989 131.540  17.307  1.00  0.00     0.068 N 
ENDBRANCH   9  17
ENDBRANCH   4   7
ENDBRANCH   3   4
TORSDOF 3
