REMARK VINA RESULT:      -5.8      1.844      3.469
REMARK  2 active torsions:
REMARK  status: ('A' for Active; 'I' for Inactive)
REMARK    1  A    between atoms: C3_3  and  S1_4 
REMARK    2  A    between atoms: S1_4  and  C4_5 
ROOT
HETATM    1  C1  LIG X 999      45.622 131.589  14.714  1.00  0.00     0.013 C 
HETATM    2  C2  LIG X 999      45.155 131.581  15.825  1.00  0.00    -0.107 C 
HETATM    3  C3  LIG X 999      44.591 131.574  17.178  1.00  0.00     0.172 C 
ENDROOT
BRANCH   3   4
HETATM    4  S1  LIG X 999      45.739 130.759  18.338  1.00  0.00    -0.118 SA
BRANCH   4   5
HETATM    5  C4  LIG X 999      44.724 131.049  19.790  1.00  0.00     0.002 A 
HETATM    6  C5  LIG X 999      43.658 131.954  19.729  1.00  0.00     0.019 A 
HETATM    7  C6  LIG X 999      42.863 132.185  20.854  1.00  0.00     0.013 A 
HETATM    8  C7  LIG X 999      43.125 131.507  22.053  1.00  0.00    -0.026 A 
HETATM    9  C8  LIG X 999      42.335 131.732  23.191  1.00  0.00     0.012 A 
HETATM   10  C12 LIG X 999      44.199 130.585  22.117  1.00  0.00    -0.025 A 
HETATM   11  C9  LIG X 999      42.607 131.049  24.381  1.00  0.00     0.001 A 
HETATM   12  C10 LIG X 999      43.666 130.140  24.443  1.00  0.00     0.001 A 
HETATM   13  C11 LIG X 999      44.462 129.906  23.316  1.00  0.00     0.012 A 
HETATM   14  C13 LIG X 999      44.989 130.360  20.979  1.00  0.00     0.030 A 
ENDBRANCH   4   5
ENDBRANCH   3   4
TORSDOF 2
