REMARK VINA RESULT:      -6.5      2.043      3.118
REMARK  4 active torsions:
REMARK  status: ('A' for Active; 'I' for Inactive)
REMARK    1  A    between atoms: C3_3  and  O1_4 
REMARK    2  A    between atoms: O1_4  and  C4_5 
REMARK    3  A    between atoms: C4_5  and  O2_6 
REMARK    4  A    between atoms: C5_8  and  C6_9 
ROOT
HETATM    1  C1  LIG X 999      45.984 130.515  16.279  1.00  0.00     0.014 C 
HETATM    2  C2  LIG X 999      44.902 131.037  16.372  1.00  0.00    -0.091 C 
HETATM    3  C3  LIG X 999      43.587 131.670  16.484  1.00  0.00     0.270 C 
ENDROOT
BRANCH   3   4
HETATM    4  O1  LIG X 999      43.010 131.327  17.736  1.00  0.00    -0.319 OA
BRANCH   4   5
HETATM    5  C4  LIG X 999      42.380 132.270  18.554  1.00  0.00     0.179 C 
HETATM    6  C5  LIG X 999      42.706 132.365  19.851  1.00  0.00     0.075 C 
BRANCH   5   7
HETATM    7  O2  LIG X 999      41.423 133.129  18.010  1.00  0.00    -0.341 OA
HETATM    8  H4  LIG X 999      41.479 134.135  18.119  1.00  0.00     0.220 HD
ENDBRANCH   5   7
BRANCH   6   9
HETATM    9  C6  LIG X 999      43.702 131.480  20.505  1.00  0.00    -0.021 A 
HETATM   10  C7  LIG X 999      44.812 131.033  19.766  1.00  0.00     0.012 A 
HETATM   11  C8  LIG X 999      45.744 130.164  20.332  1.00  0.00     0.002 A 
HETATM   12  C9  LIG X 999      45.581 129.712  21.639  1.00  0.00     0.012 A 
HETATM   13  C10 LIG X 999      44.480 130.128  22.399  1.00  0.00    -0.025 A 
HETATM   14  C11 LIG X 999      44.321 129.666  23.715  1.00  0.00     0.012 A 
HETATM   15  C15 LIG X 999      43.524 131.020  21.837  1.00  0.00    -0.015 A 
HETATM   16  C12 LIG X 999      43.234 130.085  24.482  1.00  0.00     0.001 A 
HETATM   17  C13 LIG X 999      42.298 130.968  23.945  1.00  0.00     0.001 A 
HETATM   18  C14 LIG X 999      42.438 131.437  22.637  1.00  0.00     0.013 A 
ENDBRANCH   6   9
ENDBRANCH   4   5
ENDBRANCH   3   4
TORSDOF 4
