REMARK VINA RESULT:      -3.4      3.044      6.333
REMARK  5 active torsions:
REMARK  status: ('A' for Active; 'I' for Inactive)
REMARK    1  A    between atoms: C3_3  and  O1_4 
REMARK    2  A    between atoms: O1_4  and  C4_5 
REMARK    3  A    between atoms: C5_6  and  C6_7 
REMARK    4  A    between atoms: C6_7  and  O2_8 
REMARK    5  A    between atoms: C17_20  and  N1_21 
ROOT
HETATM    1  C1  LIG X 999      47.890 123.897  20.946  1.00  0.00     0.014 C 
HETATM    2  C2  LIG X 999      47.216 124.586  21.670  1.00  0.00    -0.091 C 
HETATM    3  C3  LIG X 999      46.397 125.423  22.546  1.00  0.00     0.268 C 
ENDROOT
BRANCH   3   4
HETATM    4  O1  LIG X 999      45.618 126.312  21.754  1.00  0.00    -0.337 OA
BRANCH   4   5
HETATM    5  C4  LIG X 999      44.785 127.267  22.343  1.00  0.00     0.106 C 
HETATM    6  C5  LIG X 999      44.996 128.636  22.088  1.00  0.00     0.012 C 
HETATM    7  C7  LIG X 999      44.249 129.598  22.815  1.00  0.00    -0.014 C 
HETATM    8  C8  LIG X 999      44.529 130.981  22.697  1.00  0.00     0.013 C 
HETATM    9  C12 LIG X 999      43.233 129.173  23.721  1.00  0.00    -0.012 C 
HETATM   10  C9  LIG X 999      43.900 131.910  23.521  1.00  0.00     0.001 C 
HETATM   11  C10 LIG X 999      43.015 131.483  24.500  1.00  0.00     0.001 C 
HETATM   12  C11 LIG X 999      42.701 130.130  24.618  1.00  0.00     0.013 C 
HETATM   13  C13 LIG X 999      42.859 127.795  23.767  1.00  0.00     0.011 C 
HETATM   14  C14 LIG X 999      41.651 127.299  24.354  1.00  0.00    -0.045 C 
HETATM   15  C18 LIG X 999      43.723 126.843  23.165  1.00  0.00     0.080 C 
HETATM   16  C15 LIG X 999      40.429 128.144  24.625  1.00  0.00     0.049 C 
HETATM   17  C16 LIG X 999      41.506 125.922  24.563  1.00  0.00     0.061 C 
HETATM   18  C17 LIG X 999      42.464 125.030  24.075  1.00  0.00     0.165 C 
HETATM   19  N4  LIG X 999      43.511 125.505  23.357  1.00  0.00    -0.336 N 
HETATM   20  H15 LIG X 999      44.164 124.799  22.944  1.00  0.00     0.168 HD
BRANCH   6  21
HETATM   21  C6  LIG X 999      46.047 129.054  21.074  1.00  0.00     0.206 C 
BRANCH  21  22
HETATM   22  O2  LIG X 999      45.552 130.107  20.294  1.00  0.00    -0.396 OA
HETATM   23  H6  LIG X 999      45.849 129.927  19.364  1.00  0.00     0.209 HD
ENDBRANCH  21  22
ENDBRANCH   6  21
BRANCH  18  24
HETATM   24  N1  LIG X 999      42.329 123.612  24.258  1.00  0.00    -0.054 NA
HETATM   25  N2  LIG X 999      41.318 122.994  23.920  1.00  0.00    -0.160 NA
HETATM   26  N3  LIG X 999      40.309 122.376  23.584  1.00  0.00     0.068 N 
ENDBRANCH  18  24
ENDBRANCH   4   5
ENDBRANCH   3   4
TORSDOF 5
