REMARK VINA RESULT:      -8.1      1.768      7.749
REMARK  6 active torsions:
REMARK  status: ('A' for Active; 'I' for Inactive)
REMARK    1  A    between atoms: C2_2  and  C3_3 
REMARK    2  A    between atoms: C3_3  and  O1_4 
REMARK    3  A    between atoms: O1_4  and  C4_5 
REMARK    4  A    between atoms: C4_5  and  C6_7 
REMARK    5  A    between atoms: C6_7  and  C7_8 
REMARK       I    between atoms: N1_10  and  C9_11 
REMARK    6  A    between atoms: C9_11  and  C10_13 
ROOT
HETATM    1  C7  LIG X 999      43.082 131.862  19.189  1.00  0.00     0.076 A 
HETATM    2  C8  LIG X 999      43.445 131.082  20.267  1.00  0.00     0.150 A 
HETATM    3  N1  LIG X 999      42.797 131.589  21.333  1.00  0.00    -0.213 N 
HETATM    4  C9  LIG X 999      42.866 131.139  22.696  1.00  0.00     0.277 C 
HETATM    5  O2  LIG X 999      42.617 131.954  23.625  1.00  0.00    -0.265 OA
HETATM    6  N2  LIG X 999      42.093 132.631  20.918  1.00  0.00    -0.210 N 
HETATM    7  N3  LIG X 999      42.232 132.820  19.615  1.00  0.00    -0.162 NA
HETATM    8  H20 LIG X 999      41.491 133.226  21.531  1.00  0.00     0.211 HD
ENDROOT
BRANCH   4   9
HETATM    9  C10 LIG X 999      43.220 129.742  23.036  1.00  0.00     0.035 A 
HETATM   10  C11 LIG X 999      44.552 129.309  22.925  1.00  0.00     0.018 A 
HETATM   11  C12 LIG X 999      44.902 127.996  23.251  1.00  0.00     0.013 A 
HETATM   12  C13 LIG X 999      43.928 127.097  23.705  1.00  0.00    -0.026 A 
HETATM   13  C14 LIG X 999      44.268 125.776  24.033  1.00  0.00     0.012 A 
HETATM   14  C18 LIG X 999      42.585 127.529  23.839  1.00  0.00    -0.025 A 
HETATM   15  C15 LIG X 999      43.287 124.891  24.491  1.00  0.00     0.001 A 
HETATM   16  C16 LIG X 999      41.963 125.317  24.624  1.00  0.00     0.001 A 
HETATM   17  C17 LIG X 999      41.610 126.631  24.300  1.00  0.00     0.012 A 
HETATM   18  C19 LIG X 999      42.244 128.849  23.512  1.00  0.00     0.029 A 
ENDBRANCH   4   9
BRANCH   1  19
HETATM   19  C6  LIG X 999      43.483 131.654  17.759  1.00  0.00     0.094 C 
BRANCH  19  20
HETATM   20  C4  LIG X 999      45.008 131.710  17.559  1.00  0.00     0.123 C 
HETATM   21  C5  LIG X 999      45.675 130.379  17.930  1.00  0.00     0.040 C 
BRANCH  20  22
HETATM   22  O1  LIG X 999      45.289 132.024  16.204  1.00  0.00    -0.382 OA
BRANCH  22  23
HETATM   23  C3  LIG X 999      46.168 131.076  15.636  1.00  0.00     0.194 C 
BRANCH  23  24
HETATM   24  C2  LIG X 999      46.037 131.113  14.143  1.00  0.00    -0.011 C 
HETATM   25  C1  LIG X 999      47.107 131.022  13.349  1.00  0.00     0.009 C 
ENDBRANCH  23  24
ENDBRANCH  22  23
ENDBRANCH  20  22
ENDBRANCH  19  20
ENDBRANCH   1  19
TORSDOF 6
