REMARK VINA RESULT:      -7.1      4.537      5.199
REMARK  7 active torsions:
REMARK  status: ('A' for Active; 'I' for Inactive)
REMARK    1  A    between atoms: C6_6  and  O1_7 
REMARK    2  A    between atoms: O1_7  and  C7_8 
REMARK    3  A    between atoms: C7_8  and  O3_10 
REMARK    4  A    between atoms: O3_10  and  C8_11 
REMARK    5  A    between atoms: C8_11  and  N1_12 
REMARK       I    between atoms: N1_12  and  C9_14 
REMARK    6  A    between atoms: C9_14  and  C10_16 
REMARK    7  A    between atoms: C10_16  and  N2_17 
ROOT
HETATM    1  N2  LIG X 999      50.356 135.508  22.528  1.00  0.00    -0.261 NA
HETATM    2  C11 LIG X 999      51.336 135.906  23.238  1.00  0.00     0.158 C 
HETATM    3  S1  LIG X 999      52.572 136.410  24.140  1.00  0.00    -0.055 SA
ENDROOT
BRANCH   1   4
HETATM    4  C10 LIG X 999      49.291 134.675  23.080  1.00  0.00     0.197 C 
HETATM    5  C12 LIG X 999      49.855 133.306  23.452  1.00  0.00     0.044 C 
BRANCH   4   6
HETATM    6  C9  LIG X 999      48.173 134.527  22.079  1.00  0.00     0.243 C 
HETATM    7  N1  LIG X 999      47.521 133.261  21.908  1.00  0.00    -0.338 N 
HETATM    8  H7  LIG X 999      47.904 132.416  22.390  1.00  0.00     0.164 HD
HETATM    9  O4  LIG X 999      47.794 135.529  21.412  1.00  0.00    -0.271 OA
BRANCH   7  10
HETATM   10  C8  LIG X 999      46.278 133.128  21.154  1.00  0.00     0.306 C 
BRANCH  10  11
HETATM   11  O3  LIG X 999      46.180 131.821  20.593  1.00  0.00    -0.278 OA
BRANCH  11  12
HETATM   12  C7  LIG X 999      45.064 131.380  19.879  1.00  0.00     0.413 C 
HETATM   13  O2  LIG X 999      43.923 131.864  20.116  1.00  0.00    -0.229 OA
BRANCH  12  14
HETATM   14  O1  LIG X 999      45.247 130.445  18.852  1.00  0.00    -0.256 OA
BRANCH  14  15
HETATM   15  C6  LIG X 999      45.619 130.750  17.535  1.00  0.00     0.082 A 
HETATM   16  C5  LIG X 999      46.444 129.850  16.851  1.00  0.00     0.049 A 
HETATM   17  C4  LIG X 999      46.846 130.111  15.533  1.00  0.00    -0.023 A 
HETATM   18  C3  LIG X 999      47.688 129.217  14.851  1.00  0.00     0.012 A 
HETATM   19  C15 LIG X 999      46.400 131.287  14.883  1.00  0.00    -0.026 A 
HETATM   20  C2  LIG X 999      48.082 129.489  13.537  1.00  0.00     0.001 A 
HETATM   21  C1  LIG X 999      47.642 130.650  12.897  1.00  0.00     0.001 A 
HETATM   22  C16 LIG X 999      46.803 131.547  13.564  1.00  0.00     0.012 A 
HETATM   23  C14 LIG X 999      45.555 132.175  15.562  1.00  0.00     0.015 A 
HETATM   24  C13 LIG X 999      45.163 131.907  16.877  1.00  0.00     0.038 A 
ENDBRANCH  14  15
ENDBRANCH  12  14
ENDBRANCH  11  12
ENDBRANCH  10  11
ENDBRANCH   7  10
ENDBRANCH   4   6
ENDBRANCH   1   4
TORSDOF 7
