MODEL 1
REMARK VINA RESULT:      -8.3      0.000      0.000
REMARK  1 active torsions:
REMARK  status: ('A' for Active; 'I' for Inactive)
REMARK    1  A    between atoms: C11_13  and  O1_14 
ROOT
HETATM    1  H1  LIG X 999      47.142 129.657  15.784  1.00  0.00     0.187 HD
HETATM    2  N1  LIG X 999      46.850 129.868  16.765  1.00  0.00    -0.300 NA
HETATM    3  C1  LIG X 999      45.739 130.481  17.028  1.00  0.00     0.059 A 
HETATM    4  C2  LIG X 999      44.816 130.922  15.923  1.00  0.00     0.034 A 
HETATM    5  C3  LIG X 999      43.655 131.563  16.198  1.00  0.00     0.033 A 
HETATM    6  C4  LIG X 999      43.317 131.821  17.609  1.00  0.00     0.046 A 
HETATM    7  C5  LIG X 999      44.149 131.424  18.601  1.00  0.00     0.018 A 
HETATM    8  C6  LIG X 999      45.346 130.768  18.434  1.00  0.00     0.005 A 
HETATM    9  C7  LIG X 999      46.064 130.441  19.603  1.00  0.00     0.015 A 
HETATM   10  C8  LIG X 999      45.535 130.795  20.875  1.00  0.00     0.002 A 
HETATM   11  C9  LIG X 999      44.292 131.472  20.982  1.00  0.00     0.017 A 
HETATM   12  C10 LIG X 999      43.621 131.772  19.797  1.00  0.00     0.028 A 
HETATM   13  C11 LIG X 999      42.424 132.403  19.489  1.00  0.00     0.151 A 
HETATM   14  N2  LIG X 999      42.236 132.434  18.140  1.00  0.00    -0.336 N 
HETATM   15  H8  LIG X 999      41.425 132.844  17.624  1.00  0.00     0.168 HD
ENDROOT
BRANCH  13  16
HETATM   16  O1  LIG X 999      41.533 132.933  20.415  1.00  0.00    -0.345 OA
HETATM   17  H7  LIG X 999      40.780 133.542  20.117  1.00  0.00     0.219 HD
ENDBRANCH  13  16
TORSDOF 1
ENDMDL
MODEL 2
REMARK VINA RESULT:      -7.9      2.745      5.331
REMARK  1 active torsions:
REMARK  status: ('A' for Active; 'I' for Inactive)
REMARK    1  A    between atoms: C11_13  and  O1_14 
ROOT
HETATM    1  H1  LIG X 999      42.281 132.521  19.239  1.00  0.00     0.187 HD
HETATM    2  N1  LIG X 999      42.551 132.342  18.245  1.00  0.00    -0.300 NA
HETATM    3  C1  LIG X 999      43.642 131.714  17.939  1.00  0.00     0.059 A 
HETATM    4  C2  LIG X 999      44.575 131.214  19.010  1.00  0.00     0.034 A 
HETATM    5  C3  LIG X 999      45.716 130.558  18.690  1.00  0.00     0.033 A 
HETATM    6  C4  LIG X 999      46.023 130.346  17.264  1.00  0.00     0.046 A 
HETATM    7  C5  LIG X 999      45.182 130.797  16.303  1.00  0.00     0.018 A 
HETATM    8  C6  LIG X 999      44.003 131.472  16.517  1.00  0.00     0.005 A 
HETATM    9  C7  LIG X 999      43.271 131.856  15.374  1.00  0.00     0.015 A 
HETATM   10  C8  LIG X 999      43.770 131.538  14.080  1.00  0.00     0.002 A 
HETATM   11  C9  LIG X 999      44.995 130.840  13.925  1.00  0.00     0.017 A 
HETATM   12  C10 LIG X 999      45.681 130.481  15.085  1.00  0.00     0.028 A 
HETATM   13  C11 LIG X 999      46.869 129.814  15.347  1.00  0.00     0.151 A 
HETATM   14  N2  LIG X 999      47.082 129.731  16.691  1.00  0.00    -0.336 N 
HETATM   15  H8  LIG X 999      47.891 129.284  17.176  1.00  0.00     0.168 HD
ENDROOT
BRANCH  13  16
HETATM   16  O1  LIG X 999      47.731 129.299  14.386  1.00  0.00    -0.345 OA
HETATM   17  H7  LIG X 999      47.368 128.879  13.539  1.00  0.00     0.219 HD
ENDBRANCH  13  16
TORSDOF 1
ENDMDL
MODEL 3
REMARK VINA RESULT:      -7.1      1.831      3.113
REMARK  1 active torsions:
REMARK  status: ('A' for Active; 'I' for Inactive)
REMARK    1  A    between atoms: C11_13  and  O1_14 
ROOT
HETATM    1  H1  LIG X 999      43.892 131.421  14.412  1.00  0.00     0.187 HD
HETATM    2  N1  LIG X 999      43.493 131.639  15.353  1.00  0.00    -0.300 NA
HETATM    3  C1  LIG X 999      44.135 131.368  16.445  1.00  0.00     0.059 A 
HETATM    4  C2  LIG X 999      45.493 130.718  16.404  1.00  0.00     0.034 A 
HETATM    5  C3  LIG X 999      46.164 130.433  17.546  1.00  0.00     0.033 A 
HETATM    6  C4  LIG X 999      45.531 130.776  18.832  1.00  0.00     0.046 A 
HETATM    7  C5  LIG X 999      44.309 131.359  18.865  1.00  0.00     0.018 A 
HETATM    8  C6  LIG X 999      43.545 131.690  17.771  1.00  0.00     0.005 A 
HETATM    9  C7  LIG X 999      42.295 132.295  18.024  1.00  0.00     0.015 A 
HETATM   10  C8  LIG X 999      41.888 132.530  19.367  1.00  0.00     0.002 A 
HETATM   11  C9  LIG X 999      42.722 132.166  20.455  1.00  0.00     0.017 A 
HETATM   12  C10 LIG X 999      43.948 131.572  20.152  1.00  0.00     0.028 A 
HETATM   13  C11 LIG X 999      45.008 131.089  20.906  1.00  0.00     0.151 A 
HETATM   14  N2  LIG X 999      45.985 130.597  20.092  1.00  0.00    -0.336 N 
HETATM   15  H8  LIG X 999      46.894 130.173  20.382  1.00  0.00     0.168 HD
ENDROOT
BRANCH  13  16
HETATM   16  O1  LIG X 999      45.078 131.099  22.294  1.00  0.00    -0.345 OA
HETATM   17  H7  LIG X 999      44.257 131.302  22.851  1.00  0.00     0.219 HD
ENDBRANCH  13  16
TORSDOF 1
ENDMDL
MODEL 4
REMARK VINA RESULT:      -6.9      0.926      1.062
REMARK  1 active torsions:
REMARK  status: ('A' for Active; 'I' for Inactive)
REMARK    1  A    between atoms: C11_13  and  O1_14 
ROOT
HETATM    1  H1  LIG X 999      47.507 129.896  14.778  1.00  0.00     0.187 HD
HETATM    2  N1  LIG X 999      47.177 130.053  15.757  1.00  0.00    -0.300 NA
HETATM    3  C1  LIG X 999      46.021 130.582  16.009  1.00  0.00     0.059 A 
HETATM    4  C2  LIG X 999      45.099 130.998  14.894  1.00  0.00     0.034 A 
HETATM    5  C3  LIG X 999      43.891 131.552  15.157  1.00  0.00     0.033 A 
HETATM    6  C4  LIG X 999      43.501 131.738  16.566  1.00  0.00     0.046 A 
HETATM    7  C5  LIG X 999      44.332 131.363  17.567  1.00  0.00     0.018 A 
HETATM    8  C6  LIG X 999      45.575 130.794  17.412  1.00  0.00     0.005 A 
HETATM    9  C7  LIG X 999      46.283 130.476  18.590  1.00  0.00     0.015 A 
HETATM   10  C8  LIG X 999      45.698 130.751  19.857  1.00  0.00     0.002 A 
HETATM   11  C9  LIG X 999      44.411 131.340  19.952  1.00  0.00     0.017 A 
HETATM   12  C10 LIG X 999      43.751 131.635  18.759  1.00  0.00     0.028 A 
HETATM   13  C11 LIG X 999      42.523 132.195  18.439  1.00  0.00     0.151 A 
HETATM   14  N2  LIG X 999      42.367 132.260  17.086  1.00  0.00    -0.336 N 
HETATM   15  H8  LIG X 999      41.545 132.633  16.561  1.00  0.00     0.168 HD
ENDROOT
BRANCH  13  16
HETATM   16  O1  LIG X 999      41.575 132.633  19.356  1.00  0.00    -0.345 OA
HETATM   17  H7  LIG X 999      41.273 133.600  19.364  1.00  0.00     0.219 HD
ENDBRANCH  13  16
TORSDOF 1
ENDMDL
MODEL 5
REMARK VINA RESULT:      -6.3      2.268      4.681
REMARK  1 active torsions:
REMARK  status: ('A' for Active; 'I' for Inactive)
REMARK    1  A    between atoms: C11_13  and  O1_14 
ROOT
HETATM    1  H1  LIG X 999      42.448 132.015  23.193  1.00  0.00     0.187 HD
HETATM    2  N1  LIG X 999      42.361 132.073  22.153  1.00  0.00    -0.300 NA
HETATM    3  C1  LIG X 999      43.315 131.684  21.368  1.00  0.00     0.059 A 
HETATM    4  C2  LIG X 999      44.600 131.130  21.924  1.00  0.00     0.034 A 
HETATM    5  C3  LIG X 999      45.598 130.724  21.103  1.00  0.00     0.033 A 
HETATM    6  C4  LIG X 999      45.394 130.837  19.648  1.00  0.00     0.046 A 
HETATM    7  C5  LIG X 999      44.237 131.336  19.150  1.00  0.00     0.018 A 
HETATM    8  C6  LIG X 999      43.165 131.775  19.891  1.00  0.00     0.005 A 
HETATM    9  C7  LIG X 999      42.050 132.259  19.175  1.00  0.00     0.015 A 
HETATM   10  C8  LIG X 999      42.080 132.274  17.753  1.00  0.00     0.002 A 
HETATM   11  C9  LIG X 999      43.217 131.807  17.045  1.00  0.00     0.017 A 
HETATM   12  C10 LIG X 999      44.293 131.337  17.798  1.00  0.00     0.028 A 
HETATM   13  C11 LIG X 999      45.541 130.816  17.491  1.00  0.00     0.151 A 
HETATM   14  N2  LIG X 999      46.222 130.507  18.631  1.00  0.00    -0.336 N 
HETATM   15  H8  LIG X 999      47.181 130.100  18.705  1.00  0.00     0.168 HD
ENDROOT
BRANCH  13  16
HETATM   16  O1  LIG X 999      46.042 130.628  16.208  1.00  0.00    -0.345 OA
HETATM   17  H7  LIG X 999      45.599 131.070  15.411  1.00  0.00     0.219 HD
ENDBRANCH  13  16
TORSDOF 1
ENDMDL
MODEL 6
REMARK VINA RESULT:      -6.2      2.117      3.863
REMARK  1 active torsions:
REMARK  status: ('A' for Active; 'I' for Inactive)
REMARK    1  A    between atoms: C11_13  and  O1_14 
ROOT
HETATM    1  H1  LIG X 999      42.950 132.046  23.847  1.00  0.00     0.187 HD
HETATM    2  N1  LIG X 999      43.574 131.713  23.078  1.00  0.00    -0.300 NA
HETATM    3  C1  LIG X 999      43.268 131.885  21.831  1.00  0.00     0.059 A 
HETATM    4  C2  LIG X 999      41.991 132.576  21.434  1.00  0.00     0.034 A 
HETATM    5  C3  LIG X 999      41.671 132.756  20.130  1.00  0.00     0.033 A 
HETATM    6  C4  LIG X 999      42.606 132.256  19.107  1.00  0.00     0.046 A 
HETATM    7  C5  LIG X 999      43.754 131.634  19.467  1.00  0.00     0.018 A 
HETATM    8  C6  LIG X 999      44.174 131.401  20.755  1.00  0.00     0.005 A 
HETATM    9  C7  LIG X 999      45.407 130.735  20.914  1.00  0.00     0.015 A 
HETATM   10  C8  LIG X 999      46.147 130.341  19.765  1.00  0.00     0.002 A 
HETATM   11  C9  LIG X 999      45.660 130.610  18.459  1.00  0.00     0.017 A 
HETATM   12  C10 LIG X 999      44.437 131.272  18.355  1.00  0.00     0.028 A 
HETATM   13  C11 LIG X 999      43.650 131.702  17.297  1.00  0.00     0.151 A 
HETATM   14  N2  LIG X 999      42.520 132.309  17.758  1.00  0.00    -0.336 N 
HETATM   15  H8  LIG X 999      41.750 132.728  17.191  1.00  0.00     0.168 HD
ENDROOT
BRANCH  13  16
HETATM   16  O1  LIG X 999      43.957 131.543  15.950  1.00  0.00    -0.345 OA
HETATM   17  H7  LIG X 999      43.300 131.098  15.320  1.00  0.00     0.219 HD
ENDBRANCH  13  16
TORSDOF 1
ENDMDL
MODEL 7
REMARK VINA RESULT:      -6.1      1.944      2.952
REMARK  1 active torsions:
REMARK  status: ('A' for Active; 'I' for Inactive)
REMARK    1  A    between atoms: C11_13  and  O1_14 
ROOT
HETATM    1  H1  LIG X 999      42.999 132.084  15.853  1.00  0.00     0.187 HD
HETATM    2  N1  LIG X 999      43.613 131.764  16.636  1.00  0.00    -0.300 NA
HETATM    3  C1  LIG X 999      43.253 131.882  17.875  1.00  0.00     0.059 A 
HETATM    4  C2  LIG X 999      41.925 132.491  18.242  1.00  0.00     0.034 A 
HETATM    5  C3  LIG X 999      41.549 132.614  19.537  1.00  0.00     0.033 A 
HETATM    6  C4  LIG X 999      42.473 132.137  20.581  1.00  0.00     0.046 A 
HETATM    7  C5  LIG X 999      43.666 131.590  20.248  1.00  0.00     0.018 A 
HETATM    8  C6  LIG X 999      44.145 131.417  18.970  1.00  0.00     0.005 A 
HETATM    9  C7  LIG X 999      45.418 130.824  18.840  1.00  0.00     0.015 A 
HETATM   10  C8  LIG X 999      46.136 130.438  20.005  1.00  0.00     0.002 A 
HETATM   11  C9  LIG X 999      45.589 130.643  21.298  1.00  0.00     0.017 A 
HETATM   12  C10 LIG X 999      44.327 131.232  21.374  1.00  0.00     0.028 A 
HETATM   13  C11 LIG X 999      43.480 131.588  22.414  1.00  0.00     0.151 A 
HETATM   14  N2  LIG X 999      42.336 132.146  21.926  1.00  0.00    -0.336 N 
HETATM   15  H8  LIG X 999      41.524 132.505  22.476  1.00  0.00     0.168 HD
ENDROOT
BRANCH  13  16
HETATM   16  O1  LIG X 999      43.746 131.407  23.766  1.00  0.00    -0.345 OA
HETATM   17  H7  LIG X 999      42.990 131.356  24.439  1.00  0.00     0.219 HD
ENDBRANCH  13  16
TORSDOF 1
ENDMDL
MODEL 8
REMARK VINA RESULT:      -5.5      2.697      4.423
REMARK  1 active torsions:
REMARK  status: ('A' for Active; 'I' for Inactive)
REMARK    1  A    between atoms: C11_13  and  O1_14 
ROOT
HETATM    1  H1  LIG X 999      45.304 128.055  24.333  1.00  0.00     0.187 HD
HETATM    2  N1  LIG X 999      45.384 128.544  23.413  1.00  0.00    -0.300 NA
HETATM    3  C1  LIG X 999      44.530 129.446  23.045  1.00  0.00     0.059 A 
HETATM    4  C2  LIG X 999      43.376 129.830  23.934  1.00  0.00     0.034 A 
HETATM    5  C3  LIG X 999      42.483 130.772  23.549  1.00  0.00     0.033 A 
HETATM    6  C4  LIG X 999      42.668 131.415  22.235  1.00  0.00     0.046 A 
HETATM    7  C5  LIG X 999      43.706 131.067  21.438  1.00  0.00     0.018 A 
HETATM    8  C6  LIG X 999      44.666 130.127  21.730  1.00  0.00     0.005 A 
HETATM    9  C7  LIG X 999      45.667 129.915  20.759  1.00  0.00     0.015 A 
HETATM   10  C8  LIG X 999      45.643 130.661  19.549  1.00  0.00     0.002 A 
HETATM   11  C9  LIG X 999      44.624 131.618  19.305  1.00  0.00     0.017 A 
HETATM   12  C10 LIG X 999      43.658 131.793  20.296  1.00  0.00     0.028 A 
HETATM   13  C11 LIG X 999      42.539 132.601  20.433  1.00  0.00     0.151 A 
HETATM   14  N2  LIG X 999      41.926 132.369  21.628  1.00  0.00    -0.336 N 
HETATM   15  H8  LIG X 999      41.066 132.831  21.999  1.00  0.00     0.168 HD
ENDROOT
BRANCH  13  16
HETATM   16  O1  LIG X 999      42.092 133.522  19.492  1.00  0.00    -0.345 OA
HETATM   17  H7  LIG X 999      42.718 134.227  19.122  1.00  0.00     0.219 HD
ENDBRANCH  13  16
TORSDOF 1
ENDMDL
