MODEL 1
REMARK VINA RESULT:      -8.4      0.000      0.000
REMARK  3 active torsions:
REMARK  status: ('A' for Active; 'I' for Inactive)
REMARK    1  A    between atoms: O1_2  and  C1_3 
REMARK    2  A    between atoms: C1_3  and  C3_8 
REMARK    3  A    between atoms: C2_4  and  N1_5 
ROOT
HETATM    1  C3  LIG X 999      43.782 131.653  18.013  1.00  0.00    -0.001 A 
HETATM    2  C4  LIG X 999      44.842 130.991  18.661  1.00  0.00     0.015 A 
HETATM    3  C5  LIG X 999      45.892 130.438  17.924  1.00  0.00     0.013 A 
HETATM    4  C6  LIG X 999      45.905 130.539  16.527  1.00  0.00    -0.026 A 
HETATM    5  C7  LIG X 999      46.955 129.986  15.778  1.00  0.00     0.012 A 
HETATM    6  C8  LIG X 999      46.956 130.094  14.385  1.00  0.00     0.001 A 
HETATM    7  C9  LIG X 999      45.911 130.753  13.729  1.00  0.00     0.001 A 
HETATM    8  C10 LIG X 999      44.859 131.308  14.464  1.00  0.00     0.012 A 
HETATM    9  C11 LIG X 999      44.847 131.207  15.864  1.00  0.00    -0.025 A 
HETATM   10  C12 LIG X 999      43.797 131.760  16.612  1.00  0.00     0.026 A 
ENDROOT
BRANCH   1  11
HETATM   11  C1  LIG X 999      42.667 132.253  18.790  1.00  0.00     0.090 C 
HETATM   12  C2  LIG X 999      42.663 132.218  20.130  1.00  0.00     0.118 C 
BRANCH  11  13
HETATM   13  O1  LIG X 999      41.599 132.850  18.117  1.00  0.00    -0.358 OA
HETATM   14  H1  LIG X 999      40.777 133.183  18.606  1.00  0.00     0.217 HD
ENDBRANCH  11  13
BRANCH  12  15
HETATM   15  N1  LIG X 999      41.600 132.795  20.893  1.00  0.00    -0.406 N 
HETATM   16  H3  LIG X 999      41.122 133.654  20.541  1.00  0.00     0.155 HD
HETATM   17  H4  LIG X 999      41.278 132.382  21.796  1.00  0.00     0.155 HD
ENDBRANCH  12  15
ENDBRANCH   1  11
TORSDOF 3
ENDMDL
MODEL 2
REMARK VINA RESULT:      -8.3      3.460      5.703
REMARK  3 active torsions:
REMARK  status: ('A' for Active; 'I' for Inactive)
REMARK    1  A    between atoms: O1_2  and  C1_3 
REMARK    2  A    between atoms: C1_3  and  C3_8 
REMARK    3  A    between atoms: C2_4  and  N1_5 
ROOT
HETATM    1  C3  LIG X 999      45.559 130.766  16.200  1.00  0.00    -0.001 A 
HETATM    2  C4  LIG X 999      44.297 131.366  16.027  1.00  0.00     0.015 A 
HETATM    3  C5  LIG X 999      43.527 131.734  17.131  1.00  0.00     0.013 A 
HETATM    4  C6  LIG X 999      44.004 131.514  18.431  1.00  0.00    -0.026 A 
HETATM    5  C7  LIG X 999      43.237 131.880  19.547  1.00  0.00     0.012 A 
HETATM    6  C8  LIG X 999      43.724 131.654  20.837  1.00  0.00     0.001 A 
HETATM    7  C9  LIG X 999      44.977 131.063  21.023  1.00  0.00     0.001 A 
HETATM    8  C10 LIG X 999      45.750 130.693  19.919  1.00  0.00     0.012 A 
HETATM    9  C11 LIG X 999      45.273 130.915  18.617  1.00  0.00    -0.025 A 
HETATM   10  C12 LIG X 999      46.041 130.549  17.502  1.00  0.00     0.026 A 
ENDROOT
BRANCH   1  11
HETATM   11  C1  LIG X 999      46.389 130.380  15.030  1.00  0.00     0.090 C 
HETATM   12  C2  LIG X 999      46.857 131.306  14.180  1.00  0.00     0.118 C 
BRANCH  11  13
HETATM   13  O1  LIG X 999      46.678 129.033  14.801  1.00  0.00    -0.358 OA
HETATM   14  H1  LIG X 999      46.382 128.306  15.440  1.00  0.00     0.217 HD
ENDBRANCH  11  13
BRANCH  12  15
HETATM   15  N1  LIG X 999      47.661 130.952  13.052  1.00  0.00    -0.406 N 
HETATM   16  H3  LIG X 999      47.441 130.082  12.517  1.00  0.00     0.155 HD
HETATM   17  H4  LIG X 999      48.465 131.538  12.739  1.00  0.00     0.155 HD
ENDBRANCH  12  15
ENDBRANCH   1  11
TORSDOF 3
ENDMDL
MODEL 3
REMARK VINA RESULT:      -7.9      2.001      2.865
REMARK  3 active torsions:
REMARK  status: ('A' for Active; 'I' for Inactive)
REMARK    1  A    between atoms: O1_2  and  C1_3 
REMARK    2  A    between atoms: C1_3  and  C3_8 
REMARK    3  A    between atoms: C2_4  and  N1_5 
ROOT
HETATM    1  C3  LIG X 999      45.650 131.018  17.529  1.00  0.00    -0.001 A 
HETATM    2  C4  LIG X 999      45.263 132.146  16.780  1.00  0.00     0.015 A 
HETATM    3  C5  LIG X 999      45.667 132.290  15.452  1.00  0.00     0.013 A 
HETATM    4  C6  LIG X 999      46.462 131.308  14.844  1.00  0.00    -0.026 A 
HETATM    5  C7  LIG X 999      46.873 131.445  13.509  1.00  0.00     0.012 A 
HETATM    6  C8  LIG X 999      47.665 130.459  12.915  1.00  0.00     0.001 A 
HETATM    7  C9  LIG X 999      48.053 129.332  13.646  1.00  0.00     0.001 A 
HETATM    8  C10 LIG X 999      47.650 129.185  14.976  1.00  0.00     0.012 A 
HETATM    9  C11 LIG X 999      46.853 130.168  15.585  1.00  0.00    -0.025 A 
HETATM   10  C12 LIG X 999      46.442 130.030  16.920  1.00  0.00     0.026 A 
ENDROOT
BRANCH   1  11
HETATM   11  C1  LIG X 999      45.217 130.852  18.941  1.00  0.00     0.090 C 
HETATM   12  C2  LIG X 999      44.186 131.554  19.433  1.00  0.00     0.118 C 
BRANCH  11  13
HETATM   13  O1  LIG X 999      45.898 129.962  19.772  1.00  0.00    -0.358 OA
HETATM   14  H1  LIG X 999      45.935 128.968  19.579  1.00  0.00     0.217 HD
ENDBRANCH  11  13
BRANCH  12  15
HETATM   15  N1  LIG X 999      43.753 131.403  20.787  1.00  0.00    -0.406 N 
HETATM   16  H3  LIG X 999      44.308 131.841  21.556  1.00  0.00     0.155 HD
HETATM   17  H4  LIG X 999      42.893 130.869  21.038  1.00  0.00     0.155 HD
ENDBRANCH  12  15
ENDBRANCH   1  11
TORSDOF 3
ENDMDL
MODEL 4
REMARK VINA RESULT:      -7.8      2.032      2.838
REMARK  3 active torsions:
REMARK  status: ('A' for Active; 'I' for Inactive)
REMARK    1  A    between atoms: O1_2  and  C1_3 
REMARK    2  A    between atoms: C1_3  and  C3_8 
REMARK    3  A    between atoms: C2_4  and  N1_5 
ROOT
HETATM    1  C3  LIG X 999      45.548 131.152  17.488  1.00  0.00    -0.001 A 
HETATM    2  C4  LIG X 999      45.300 132.302  16.716  1.00  0.00     0.015 A 
HETATM    3  C5  LIG X 999      45.785 132.402  15.411  1.00  0.00     0.013 A 
HETATM    4  C6  LIG X 999      46.526 131.352  14.850  1.00  0.00    -0.026 A 
HETATM    5  C7  LIG X 999      47.018 131.443  13.539  1.00  0.00     0.012 A 
HETATM    6  C8  LIG X 999      47.755 130.389  12.993  1.00  0.00     0.001 A 
HETATM    7  C9  LIG X 999      48.005 129.239  13.747  1.00  0.00     0.001 A 
HETATM    8  C10 LIG X 999      47.520 129.136  15.054  1.00  0.00     0.012 A 
HETATM    9  C11 LIG X 999      46.778 130.188  15.615  1.00  0.00    -0.025 A 
HETATM   10  C12 LIG X 999      46.285 130.096  16.926  1.00  0.00     0.026 A 
ENDROOT
BRANCH   1  11
HETATM   11  C1  LIG X 999      45.027 131.034  18.875  1.00  0.00     0.090 C 
HETATM   12  C2  LIG X 999      45.785 130.524  19.856  1.00  0.00     0.118 C 
BRANCH  11  13
HETATM   13  O1  LIG X 999      43.725 131.447  19.161  1.00  0.00    -0.358 OA
HETATM   14  H1  LIG X 999      43.097 131.780  18.439  1.00  0.00     0.217 HD
ENDBRANCH  11  13
BRANCH  12  15
HETATM   15  N1  LIG X 999      45.301 130.408  21.196  1.00  0.00    -0.406 N 
HETATM   16  H3  LIG X 999      44.291 130.201  21.361  1.00  0.00     0.155 HD
HETATM   17  H4  LIG X 999      45.927 130.519  22.023  1.00  0.00     0.155 HD
ENDBRANCH  12  15
ENDBRANCH   1  11
TORSDOF 3
ENDMDL
MODEL 5
REMARK VINA RESULT:      -7.7      1.846      2.621
REMARK  3 active torsions:
REMARK  status: ('A' for Active; 'I' for Inactive)
REMARK    1  A    between atoms: O1_2  and  C1_3 
REMARK    2  A    between atoms: C1_3  and  C3_8 
REMARK    3  A    between atoms: C2_4  and  N1_5 
ROOT
HETATM    1  C3  LIG X 999      44.765 131.241  18.856  1.00  0.00    -0.001 A 
HETATM    2  C4  LIG X 999      43.636 131.768  18.201  1.00  0.00     0.015 A 
HETATM    3  C5  LIG X 999      43.560 131.771  16.807  1.00  0.00     0.013 A 
HETATM    4  C6  LIG X 999      44.608 131.244  16.040  1.00  0.00    -0.026 A 
HETATM    5  C7  LIG X 999      44.541 131.243  14.638  1.00  0.00     0.012 A 
HETATM    6  C8  LIG X 999      45.593 130.716  13.886  1.00  0.00     0.001 A 
HETATM    7  C9  LIG X 999      46.719 130.187  14.524  1.00  0.00     0.001 A 
HETATM    8  C10 LIG X 999      46.798 130.182  15.920  1.00  0.00     0.012 A 
HETATM    9  C11 LIG X 999      45.747 130.708  16.688  1.00  0.00    -0.025 A 
HETATM   10  C12 LIG X 999      45.815 130.708  18.089  1.00  0.00     0.026 A 
ENDROOT
BRANCH   1  11
HETATM   11  C1  LIG X 999      44.851 131.225  20.339  1.00  0.00     0.090 C 
HETATM   12  C2  LIG X 999      43.756 131.396  21.095  1.00  0.00     0.118 C 
BRANCH  11  13
HETATM   13  O1  LIG X 999      46.088 131.043  20.959  1.00  0.00    -0.358 OA
HETATM   14  H1  LIG X 999      46.957 131.074  20.440  1.00  0.00     0.217 HD
ENDBRANCH  11  13
BRANCH  12  15
HETATM   15  N1  LIG X 999      43.819 131.378  22.523  1.00  0.00    -0.406 N 
HETATM   16  H3  LIG X 999      44.466 130.712  23.000  1.00  0.00     0.155 HD
HETATM   17  H4  LIG X 999      43.240 132.016  23.112  1.00  0.00     0.155 HD
ENDBRANCH  12  15
ENDBRANCH   1  11
TORSDOF 3
ENDMDL
MODEL 6
REMARK VINA RESULT:      -7.4      2.913      5.322
REMARK  3 active torsions:
REMARK  status: ('A' for Active; 'I' for Inactive)
REMARK    1  A    between atoms: O1_2  and  C1_3 
REMARK    2  A    between atoms: C1_3  and  C3_8 
REMARK    3  A    between atoms: C2_4  and  N1_5 
ROOT
HETATM    1  C3  LIG X 999      44.903 131.196  16.775  1.00  0.00    -0.001 A 
HETATM    2  C4  LIG X 999      45.852 130.670  17.672  1.00  0.00     0.015 A 
HETATM    3  C5  LIG X 999      45.629 130.712  19.050  1.00  0.00     0.013 A 
HETATM    4  C6  LIG X 999      44.451 131.277  19.558  1.00  0.00    -0.026 A 
HETATM    5  C7  LIG X 999      44.218 131.324  20.941  1.00  0.00     0.012 A 
HETATM    6  C8  LIG X 999      43.040 131.891  21.435  1.00  0.00     0.001 A 
HETATM    7  C9  LIG X 999      42.087 132.413  20.554  1.00  0.00     0.001 A 
HETATM    8  C10 LIG X 999      42.308 132.372  19.175  1.00  0.00     0.012 A 
HETATM    9  C11 LIG X 999      43.488 131.805  18.666  1.00  0.00    -0.025 A 
HETATM   10  C12 LIG X 999      43.719 131.758  17.283  1.00  0.00     0.026 A 
ENDROOT
BRANCH   1  11
HETATM   11  C1  LIG X 999      45.128 131.146  15.308  1.00  0.00     0.090 C 
HETATM   12  C2  LIG X 999      46.357 130.958  14.805  1.00  0.00     0.118 C 
BRANCH  11  13
HETATM   13  O1  LIG X 999      44.050 131.310  14.437  1.00  0.00    -0.358 OA
HETATM   14  H1  LIG X 999      43.344 132.021  14.586  1.00  0.00     0.217 HD
ENDBRANCH  11  13
BRANCH  12  15
HETATM   15  N1  LIG X 999      46.591 130.903  13.395  1.00  0.00    -0.406 N 
HETATM   16  H3  LIG X 999      46.039 130.239  12.809  1.00  0.00     0.155 HD
HETATM   17  H4  LIG X 999      47.298 131.511  12.926  1.00  0.00     0.155 HD
ENDBRANCH  12  15
ENDBRANCH   1  11
TORSDOF 3
ENDMDL
MODEL 7
REMARK VINA RESULT:      -7.1      1.580      1.846
REMARK  3 active torsions:
REMARK  status: ('A' for Active; 'I' for Inactive)
REMARK    1  A    between atoms: O1_2  and  C1_3 
REMARK    2  A    between atoms: C1_3  and  C3_8 
REMARK    3  A    between atoms: C2_4  and  N1_5 
ROOT
HETATM    1  C3  LIG X 999      44.635 131.217  19.173  1.00  0.00    -0.001 A 
HETATM    2  C4  LIG X 999      45.819 130.462  19.067  1.00  0.00     0.015 A 
HETATM    3  C5  LIG X 999      46.339 130.126  17.816  1.00  0.00     0.013 A 
HETATM    4  C6  LIG X 999      45.690 130.542  16.645  1.00  0.00    -0.026 A 
HETATM    5  C7  LIG X 999      46.205 130.209  15.383  1.00  0.00     0.012 A 
HETATM    6  C8  LIG X 999      45.547 130.629  14.224  1.00  0.00     0.001 A 
HETATM    7  C9  LIG X 999      44.374 131.383  14.315  1.00  0.00     0.001 A 
HETATM    8  C10 LIG X 999      43.850 131.721  15.566  1.00  0.00     0.012 A 
HETATM    9  C11 LIG X 999      44.502 131.305  16.739  1.00  0.00    -0.025 A 
HETATM   10  C12 LIG X 999      43.986 131.639  18.000  1.00  0.00     0.026 A 
ENDROOT
BRANCH   1  11
HETATM   11  C1  LIG X 999      44.080 131.587  20.500  1.00  0.00     0.090 C 
HETATM   12  C2  LIG X 999      42.776 131.862  20.650  1.00  0.00     0.118 C 
BRANCH  11  13
HETATM   13  O1  LIG X 999      44.927 131.662  21.607  1.00  0.00    -0.358 OA
HETATM   14  H1  LIG X 999      44.773 131.104  22.438  1.00  0.00     0.217 HD
ENDBRANCH  11  13
BRANCH  12  15
HETATM   15  N1  LIG X 999      42.224 132.214  21.921  1.00  0.00    -0.406 N 
HETATM   16  H3  LIG X 999      41.270 132.635  21.967  1.00  0.00     0.155 HD
HETATM   17  H4  LIG X 999      42.744 132.061  22.813  1.00  0.00     0.155 HD
ENDBRANCH  12  15
ENDBRANCH   1  11
TORSDOF 3
ENDMDL
MODEL 8
REMARK VINA RESULT:      -6.9      3.065      5.384
REMARK  3 active torsions:
REMARK  status: ('A' for Active; 'I' for Inactive)
REMARK    1  A    between atoms: O1_2  and  C1_3 
REMARK    2  A    between atoms: C1_3  and  C3_8 
REMARK    3  A    between atoms: C2_4  and  N1_5 
ROOT
HETATM    1  C3  LIG X 999      45.203 130.899  16.998  1.00  0.00    -0.001 A 
HETATM    2  C4  LIG X 999      45.899 130.615  18.189  1.00  0.00     0.015 A 
HETATM    3  C5  LIG X 999      45.338 130.917  19.431  1.00  0.00     0.013 A 
HETATM    4  C6  LIG X 999      44.068 131.506  19.508  1.00  0.00    -0.026 A 
HETATM    5  C7  LIG X 999      43.496 131.814  20.753  1.00  0.00     0.012 A 
HETATM    6  C8  LIG X 999      42.230 132.402  20.816  1.00  0.00     0.001 A 
HETATM    7  C9  LIG X 999      41.526 132.686  19.642  1.00  0.00     0.001 A 
HETATM    8  C10 LIG X 999      42.085 132.384  18.397  1.00  0.00     0.012 A 
HETATM    9  C11 LIG X 999      43.357 131.793  18.319  1.00  0.00    -0.025 A 
HETATM   10  C12 LIG X 999      43.928 131.485  17.075  1.00  0.00     0.026 A 
ENDROOT
BRANCH   1  11
HETATM   11  C1  LIG X 999      45.788 130.572  15.673  1.00  0.00     0.090 C 
HETATM   12  C2  LIG X 999      46.661 129.563  15.535  1.00  0.00     0.118 C 
BRANCH  11  13
HETATM   13  O1  LIG X 999      45.437 131.331  14.556  1.00  0.00    -0.358 OA
HETATM   14  H1  LIG X 999      44.956 130.926  13.762  1.00  0.00     0.217 HD
ENDBRANCH  11  13
BRANCH  12  15
HETATM   15  N1  LIG X 999      47.230 129.232  14.266  1.00  0.00    -0.406 N 
HETATM   16  H3  LIG X 999      47.460 128.236  14.050  1.00  0.00     0.155 HD
HETATM   17  H4  LIG X 999      47.424 129.955  13.538  1.00  0.00     0.155 HD
ENDBRANCH  12  15
ENDBRANCH   1  11
TORSDOF 3
ENDMDL
MODEL 9
REMARK VINA RESULT:      -6.2      3.186      6.219
REMARK  3 active torsions:
REMARK  status: ('A' for Active; 'I' for Inactive)
REMARK    1  A    between atoms: O1_2  and  C1_3 
REMARK    2  A    between atoms: C1_3  and  C3_8 
REMARK    3  A    between atoms: C2_4  and  N1_5 
ROOT
HETATM    1  C3  LIG X 999      44.519 131.379  18.888  1.00  0.00    -0.001 A 
HETATM    2  C4  LIG X 999      43.368 132.184  18.986  1.00  0.00     0.015 A 
HETATM    3  C5  LIG X 999      42.673 132.288  20.193  1.00  0.00     0.013 A 
HETATM    4  C6  LIG X 999      43.116 131.591  21.325  1.00  0.00    -0.026 A 
HETATM    5  C7  LIG X 999      42.424 131.689  22.542  1.00  0.00     0.012 A 
HETATM    6  C8  LIG X 999      42.876 130.989  23.664  1.00  0.00     0.001 A 
HETATM    7  C9  LIG X 999      44.019 130.189  23.581  1.00  0.00     0.001 A 
HETATM    8  C10 LIG X 999      44.718 130.084  22.375  1.00  0.00     0.012 A 
HETATM    9  C11 LIG X 999      44.274 130.782  21.240  1.00  0.00    -0.025 A 
HETATM   10  C12 LIG X 999      44.967 130.685  20.024  1.00  0.00     0.026 A 
ENDROOT
BRANCH   1  11
HETATM   11  C1  LIG X 999      45.270 131.272  17.611  1.00  0.00     0.090 C 
HETATM   12  C2  LIG X 999      45.033 132.117  16.597  1.00  0.00     0.118 C 
BRANCH  11  13
HETATM   13  O1  LIG X 999      46.229 130.269  17.455  1.00  0.00    -0.358 OA
HETATM   14  H1  LIG X 999      47.210 130.432  17.643  1.00  0.00     0.217 HD
ENDBRANCH  11  13
BRANCH  12  15
HETATM   15  N1  LIG X 999      45.750 132.031  15.363  1.00  0.00    -0.406 N 
HETATM   16  H3  LIG X 999      45.284 131.615  14.527  1.00  0.00     0.155 HD
HETATM   17  H4  LIG X 999      46.731 132.374  15.267  1.00  0.00     0.155 HD
ENDBRANCH  12  15
ENDBRANCH   1  11
TORSDOF 3
ENDMDL
