REMARK VINA RESULT:      -6.2      1.705      2.475
REMARK  2 active torsions:
REMARK  status: ('A' for Active; 'I' for Inactive)
REMARK    1  A    between atoms: C2_5  and  C3_6 
REMARK    2  A    between atoms: N3_17  and  C13_18 
ROOT
HETATM    1  H1  LIG X 999      43.018 131.567  15.959  1.00  0.00     0.190 HD
HETATM    2  N1  LIG X 999      42.856 131.878  16.941  1.00  0.00    -0.260 NA
HETATM    3  C1  LIG X 999      43.730 131.719  17.883  1.00  0.00     0.269 A 
HETATM    4  O1  LIG X 999      43.520 132.063  19.129  1.00  0.00    -0.255 OA
HETATM    5  C2  LIG X 999      44.605 131.690  19.775  1.00  0.00     0.203 A 
HETATM    6  N2  LIG X 999      45.505 131.125  18.938  1.00  0.00    -0.137 NA
HETATM    7  N3  LIG X 999      44.945 131.149  17.739  1.00  0.00    -0.189 N 
ENDROOT
BRANCH   5   8
HETATM    8  C3  LIG X 999      44.846 131.899  21.222  1.00  0.00     0.030 A 
HETATM    9  C4  LIG X 999      45.875 132.785  21.588  1.00  0.00     0.017 A 
HETATM   10  C5  LIG X 999      46.113 133.095  22.926  1.00  0.00     0.002 A 
HETATM   11  C6  LIG X 999      45.331 132.529  23.928  1.00  0.00     0.012 A 
HETATM   12  C7  LIG X 999      44.315 131.621  23.603  1.00  0.00    -0.025 A 
HETATM   13  C8  LIG X 999      43.551 131.036  24.625  1.00  0.00     0.012 A 
HETATM   14  C12 LIG X 999      44.069 131.281  22.242  1.00  0.00    -0.011 A 
HETATM   15  C9  LIG X 999      42.562 130.103  24.318  1.00  0.00     0.001 A 
HETATM   16  C10 LIG X 999      42.336 129.734  22.993  1.00  0.00     0.001 A 
HETATM   17  C11 LIG X 999      43.083 130.308  21.962  1.00  0.00     0.013 A 
ENDBRANCH   5   8
BRANCH   7  18
HETATM   18  C13 LIG X 999      45.589 130.669  16.548  1.00  0.00     0.107 A 
HETATM   19  C14 LIG X 999      45.590 129.301  16.237  1.00  0.00     0.054 A 
HETATM   20  C15 LIG X 999      46.195 128.864  15.057  1.00  0.00     0.122 A 
HETATM   21  N4  LIG X 999      46.766 129.761  14.209  1.00  0.00    -0.230 NA
HETATM   22  C16 LIG X 999      46.765 131.094  14.475  1.00  0.00     0.251 A 
HETATM   23  F1  LIG X 999      47.342 131.953  13.602  1.00  0.00    -0.181 F 
HETATM   24  C17 LIG X 999      46.169 131.574  15.645  1.00  0.00     0.203 A 
HETATM   25  F2  LIG X 999      46.174 132.906  15.908  1.00  0.00    -0.199 F 
ENDBRANCH   7  18
TORSDOF 2
