MODEL 1
REMARK VINA RESULT:      -7.7      0.000      0.000
REMARK  5 active torsions:
REMARK  status: ('A' for Active; 'I' for Inactive)
REMARK    1  A    between atoms: C6_6  and  C7_7 
REMARK    2  A    between atoms: C7_7  and  N3_15 
REMARK    3  A    between atoms: N1_8  and  C8_9 
REMARK    4  A    between atoms: C8_9  and  C9_10 
REMARK    5  A    between atoms: C9_10  and  N2_11 
ROOT
HETATM    1  N3  LIG X 999      45.040 131.831  15.417  1.00  0.00    -0.052 NA
HETATM    2  N4  LIG X 999      44.098 131.681  14.637  1.00  0.00    -0.160 NA
HETATM    3  N5  LIG X 999      43.159 131.533  13.856  1.00  0.00     0.068 N 
ENDROOT
BRANCH   1   4
HETATM    4  C7  LIG X 999      45.426 130.816  16.359  1.00  0.00     0.191 C 
HETATM    5  N1  LIG X 999      46.048 129.750  15.947  1.00  0.00    -0.267 NA
BRANCH   4   6
HETATM    6  C6  LIG X 999      45.130 130.948  17.806  1.00  0.00     0.015 A 
HETATM    7  C5  LIG X 999      43.948 131.582  18.226  1.00  0.00     0.027 A 
HETATM    8  C4  LIG X 999      43.651 131.701  19.592  1.00  0.00    -0.025 A 
HETATM    9  C3  LIG X 999      42.477 132.344  20.015  1.00  0.00     0.012 A 
HETATM   10  C12 LIG X 999      44.543 131.169  20.554  1.00  0.00    -0.026 A 
HETATM   11  C2  LIG X 999      42.191 132.457  21.379  1.00  0.00     0.001 A 
HETATM   12  C1  LIG X 999      43.072 131.931  22.328  1.00  0.00     0.001 A 
HETATM   13  C13 LIG X 999      44.244 131.288  21.920  1.00  0.00     0.012 A 
HETATM   14  C11 LIG X 999      45.713 130.524  20.131  1.00  0.00     0.013 A 
HETATM   15  C10 LIG X 999      46.001 130.410  18.769  1.00  0.00     0.016 A 
ENDBRANCH   4   6
BRANCH   5  16
HETATM   16  C8  LIG X 999      46.387 129.461  14.553  1.00  0.00     0.178 C 
BRANCH  16  17
HETATM   17  C9  LIG X 999      47.655 130.212  14.121  1.00  0.00     0.251 C 
BRANCH  17  18
HETATM   18  N2  LIG X 999      47.331 131.419  13.359  1.00  0.00    -0.078 N 
HETATM   19  H9  LIG X 999      46.293 131.539  13.335  1.00  0.00     0.274 HD
HETATM   20  H10 LIG X 999      47.680 131.331  12.377  1.00  0.00     0.274 HD
HETATM   21  H11 LIG X 999      47.758 132.258  13.813  1.00  0.00     0.274 HD
ENDBRANCH  17  18
ENDBRANCH  16  17
ENDBRANCH   5  16
ENDBRANCH   1   4
TORSDOF 5
ENDMDL
MODEL 2
REMARK VINA RESULT:      -7.5      2.931      6.865
REMARK  5 active torsions:
REMARK  status: ('A' for Active; 'I' for Inactive)
REMARK    1  A    between atoms: C6_6  and  C7_7 
REMARK    2  A    between atoms: C7_7  and  N3_15 
REMARK    3  A    between atoms: N1_8  and  C8_9 
REMARK    4  A    between atoms: C8_9  and  C9_10 
REMARK    5  A    between atoms: C9_10  and  N2_11 
ROOT
HETATM    1  N3  LIG X 999      45.451 130.732  19.641  1.00  0.00    -0.052 NA
HETATM    2  N4  LIG X 999      46.019 131.479  20.438  1.00  0.00    -0.160 NA
HETATM    3  N5  LIG X 999      46.588 132.224  21.235  1.00  0.00     0.068 N 
ENDROOT
BRANCH   1   4
HETATM    4  C7  LIG X 999      44.784 131.225  18.467  1.00  0.00     0.191 C 
HETATM    5  N1  LIG X 999      43.553 131.642  18.547  1.00  0.00    -0.267 NA
BRANCH   4   6
HETATM    6  C6  LIG X 999      45.462 131.270  17.150  1.00  0.00     0.015 A 
HETATM    7  C5  LIG X 999      46.161 130.144  16.680  1.00  0.00     0.027 A 
HETATM    8  C4  LIG X 999      46.796 130.171  15.430  1.00  0.00    -0.025 A 
HETATM    9  C3  LIG X 999      47.505 129.052  14.963  1.00  0.00     0.012 A 
HETATM   10  C12 LIG X 999      46.723 131.337  14.630  1.00  0.00    -0.026 A 
HETATM   11  C2  LIG X 999      48.134 129.090  13.715  1.00  0.00     0.001 A 
HETATM   12  C1  LIG X 999      48.061 130.241  12.926  1.00  0.00     0.001 A 
HETATM   13  C13 LIG X 999      47.358 131.361  13.378  1.00  0.00     0.012 A 
HETATM   14  C11 LIG X 999      46.012 132.451  15.094  1.00  0.00     0.013 A 
HETATM   15  C10 LIG X 999      45.383 132.417  16.340  1.00  0.00     0.016 A 
ENDBRANCH   4   6
BRANCH   5  16
HETATM   16  C8  LIG X 999      42.742 131.636  19.763  1.00  0.00     0.178 C 
BRANCH  16  17
HETATM   17  C9  LIG X 999      41.788 132.838  19.803  1.00  0.00     0.251 C 
BRANCH  17  18
HETATM   18  N2  LIG X 999      41.305 133.097  21.160  1.00  0.00    -0.078 N 
HETATM   19  H9  LIG X 999      41.695 132.373  21.804  1.00  0.00     0.274 HD
HETATM   20  H10 LIG X 999      40.261 133.042  21.189  1.00  0.00     0.274 HD
HETATM   21  H11 LIG X 999      41.619 134.040  21.482  1.00  0.00     0.274 HD
ENDBRANCH  17  18
ENDBRANCH  16  17
ENDBRANCH   5  16
ENDBRANCH   1   4
TORSDOF 5
ENDMDL
MODEL 3
REMARK VINA RESULT:      -7.5      2.741      6.565
REMARK  5 active torsions:
REMARK  status: ('A' for Active; 'I' for Inactive)
REMARK    1  A    between atoms: C6_6  and  C7_7 
REMARK    2  A    between atoms: C7_7  and  N3_15 
REMARK    3  A    between atoms: N1_8  and  C8_9 
REMARK    4  A    between atoms: C8_9  and  C9_10 
REMARK    5  A    between atoms: C9_10  and  N2_11 
ROOT
HETATM    1  N3  LIG X 999      44.854 132.340  19.170  1.00  0.00    -0.052 NA
HETATM    2  N4  LIG X 999      45.311 131.658  20.088  1.00  0.00    -0.160 NA
HETATM    3  N5  LIG X 999      45.766 130.979  21.007  1.00  0.00     0.068 N 
ENDROOT
BRANCH   1   4
HETATM    4  C7  LIG X 999      44.329 131.755  17.966  1.00  0.00     0.191 C 
HETATM    5  N1  LIG X 999      43.052 131.811  17.722  1.00  0.00    -0.267 NA
BRANCH   4   6
HETATM    6  C6  LIG X 999      45.209 131.080  16.984  1.00  0.00     0.015 A 
HETATM    7  C5  LIG X 999      45.679 131.782  15.861  1.00  0.00     0.027 A 
HETATM    8  C4  LIG X 999      46.523 131.156  14.931  1.00  0.00    -0.025 A 
HETATM    9  C3  LIG X 999      46.984 131.852  13.802  1.00  0.00     0.012 A 
HETATM   10  C12 LIG X 999      46.914 129.811  15.132  1.00  0.00    -0.026 A 
HETATM   11  C2  LIG X 999      47.825 131.219  12.882  1.00  0.00     0.001 A 
HETATM   12  C1  LIG X 999      48.211 129.890  13.081  1.00  0.00     0.001 A 
HETATM   13  C13 LIG X 999      47.759 129.187  14.201  1.00  0.00     0.012 A 
HETATM   14  C11 LIG X 999      46.457 129.118  16.261  1.00  0.00     0.013 A 
HETATM   15  C10 LIG X 999      45.616 129.748  17.181  1.00  0.00     0.016 A 
ENDBRANCH   4   6
BRANCH   5  16
HETATM   16  C8  LIG X 999      42.053 132.416  18.602  1.00  0.00     0.178 C 
BRANCH  16  17
HETATM   17  C9  LIG X 999      41.853 131.581  19.875  1.00  0.00     0.251 C 
BRANCH  17  18
HETATM   18  N2  LIG X 999      42.388 132.261  21.055  1.00  0.00    -0.078 N 
HETATM   19  H9  LIG X 999      42.205 131.673  21.899  1.00  0.00     0.274 HD
HETATM   20  H10 LIG X 999      41.918 133.186  21.184  1.00  0.00     0.274 HD
HETATM   21  H11 LIG X 999      43.420 132.399  20.956  1.00  0.00     0.274 HD
ENDBRANCH  17  18
ENDBRANCH  16  17
ENDBRANCH   5  16
ENDBRANCH   1   4
TORSDOF 5
ENDMDL
MODEL 4
REMARK VINA RESULT:      -7.4      3.206      6.522
REMARK  5 active torsions:
REMARK  status: ('A' for Active; 'I' for Inactive)
REMARK    1  A    between atoms: C6_6  and  C7_7 
REMARK    2  A    between atoms: C7_7  and  N3_15 
REMARK    3  A    between atoms: N1_8  and  C8_9 
REMARK    4  A    between atoms: C8_9  and  C9_10 
REMARK    5  A    between atoms: C9_10  and  N2_11 
ROOT
HETATM    1  N3  LIG X 999      42.720 131.389  19.567  1.00  0.00    -0.052 NA
HETATM    2  N4  LIG X 999      42.173 132.393  20.024  1.00  0.00    -0.160 NA
HETATM    3  N5  LIG X 999      41.625 133.394  20.483  1.00  0.00     0.068 N 
ENDROOT
BRANCH   1   4
HETATM    4  C7  LIG X 999      44.106 131.375  19.186  1.00  0.00     0.191 C 
HETATM    5  N1  LIG X 999      45.031 131.440  20.100  1.00  0.00    -0.267 NA
BRANCH   4   6
HETATM    6  C6  LIG X 999      44.519 131.292  17.765  1.00  0.00     0.015 A 
HETATM    7  C5  LIG X 999      45.707 130.626  17.416  1.00  0.00     0.027 A 
HETATM    8  C4  LIG X 999      46.101 130.530  16.073  1.00  0.00    -0.025 A 
HETATM    9  C3  LIG X 999      47.292 129.875  15.722  1.00  0.00     0.012 A 
HETATM   10  C12 LIG X 999      45.290 131.098  15.061  1.00  0.00    -0.026 A 
HETATM   11  C2  LIG X 999      47.676 129.785  14.381  1.00  0.00     0.001 A 
HETATM   12  C1  LIG X 999      46.875 130.346  13.382  1.00  0.00     0.001 A 
HETATM   13  C13 LIG X 999      45.686 131.000  13.718  1.00  0.00     0.012 A 
HETATM   14  C11 LIG X 999      44.100 131.747  15.411  1.00  0.00     0.013 A 
HETATM   15  C10 LIG X 999      43.714 131.839  16.750  1.00  0.00     0.016 A 
ENDBRANCH   4   6
BRANCH   5  16
HETATM   16  C8  LIG X 999      44.786 131.553  21.537  1.00  0.00     0.178 C 
BRANCH  16  17
HETATM   17  C9  LIG X 999      44.250 130.236  22.117  1.00  0.00     0.251 C 
BRANCH  17  18
HETATM   18  N2  LIG X 999      42.823 130.326  22.427  1.00  0.00    -0.078 N 
HETATM   19  H9  LIG X 999      42.417 129.363  22.447  1.00  0.00     0.274 HD
HETATM   20  H10 LIG X 999      42.327 130.882  21.693  1.00  0.00     0.274 HD
HETATM   21  H11 LIG X 999      42.684 130.770  23.363  1.00  0.00     0.274 HD
ENDBRANCH  17  18
ENDBRANCH  16  17
ENDBRANCH   5  16
ENDBRANCH   1   4
TORSDOF 5
ENDMDL
MODEL 5
REMARK VINA RESULT:      -7.2      1.119      2.080
REMARK  5 active torsions:
REMARK  status: ('A' for Active; 'I' for Inactive)
REMARK    1  A    between atoms: C6_6  and  C7_7 
REMARK    2  A    between atoms: C7_7  and  N3_15 
REMARK    3  A    between atoms: N1_8  and  C8_9 
REMARK    4  A    between atoms: C8_9  and  C9_10 
REMARK    5  A    between atoms: C9_10  and  N2_11 
ROOT
HETATM    1  N3  LIG X 999      44.861 132.122  15.422  1.00  0.00    -0.052 NA
HETATM    2  N4  LIG X 999      44.008 131.729  14.625  1.00  0.00    -0.160 NA
HETATM    3  N5  LIG X 999      43.159 131.337  13.826  1.00  0.00     0.068 N 
ENDROOT
BRANCH   1   4
HETATM    4  C7  LIG X 999      45.208 131.381  16.604  1.00  0.00     0.191 C 
HETATM    5  N1  LIG X 999      46.212 130.553  16.579  1.00  0.00    -0.267 NA
BRANCH   4   6
HETATM    6  C6  LIG X 999      44.444 131.531  17.865  1.00  0.00     0.015 A 
HETATM    7  C5  LIG X 999      45.086 131.341  19.101  1.00  0.00     0.027 A 
HETATM    8  C4  LIG X 999      44.376 131.493  20.302  1.00  0.00    -0.025 A 
HETATM    9  C3  LIG X 999      45.011 131.294  21.538  1.00  0.00     0.012 A 
HETATM   10  C12 LIG X 999      43.006 131.850  20.268  1.00  0.00    -0.026 A 
HETATM   11  C2  LIG X 999      44.294 131.447  22.729  1.00  0.00     0.001 A 
HETATM   12  C1  LIG X 999      42.942 131.800  22.695  1.00  0.00     0.001 A 
HETATM   13  C13 LIG X 999      42.298 132.002  21.470  1.00  0.00     0.012 A 
HETATM   14  C11 LIG X 999      42.374 132.054  19.035  1.00  0.00     0.013 A 
HETATM   15  C10 LIG X 999      43.088 131.900  17.844  1.00  0.00     0.016 A 
ENDBRANCH   4   6
BRANCH   5  16
HETATM   16  C8  LIG X 999      47.043 130.275  15.408  1.00  0.00     0.178 C 
BRANCH  16  17
HETATM   17  C9  LIG X 999      46.462 129.125  14.573  1.00  0.00     0.251 C 
BRANCH  17  18
HETATM   18  N2  LIG X 999      45.445 128.381  15.316  1.00  0.00    -0.078 N 
HETATM   19  H9  LIG X 999      45.837 127.453  15.594  1.00  0.00     0.274 HD
HETATM   20  H10 LIG X 999      44.602 128.222  14.718  1.00  0.00     0.274 HD
HETATM   21  H11 LIG X 999      45.172 128.904  16.179  1.00  0.00     0.274 HD
ENDBRANCH  17  18
ENDBRANCH  16  17
ENDBRANCH   5  16
ENDBRANCH   1   4
TORSDOF 5
ENDMDL
MODEL 6
REMARK VINA RESULT:      -7.1      3.436      6.694
REMARK  5 active torsions:
REMARK  status: ('A' for Active; 'I' for Inactive)
REMARK    1  A    between atoms: C6_6  and  C7_7 
REMARK    2  A    between atoms: C7_7  and  N3_15 
REMARK    3  A    between atoms: N1_8  and  C8_9 
REMARK    4  A    between atoms: C8_9  and  C9_10 
REMARK    5  A    between atoms: C9_10  and  N2_11 
ROOT
HETATM    1  N3  LIG X 999      45.757 131.269  20.859  1.00  0.00    -0.052 NA
HETATM    2  N4  LIG X 999      46.412 132.261  21.182  1.00  0.00    -0.160 NA
HETATM    3  N5  LIG X 999      47.069 133.250  21.504  1.00  0.00     0.068 N 
ENDROOT
BRANCH   1   4
HETATM    4  C7  LIG X 999      44.576 131.360  20.043  1.00  0.00     0.191 C 
HETATM    5  N1  LIG X 999      43.408 131.481  20.604  1.00  0.00    -0.267 NA
BRANCH   4   6
HETATM    6  C6  LIG X 999      44.650 131.315  18.564  1.00  0.00     0.015 A 
HETATM    7  C5  LIG X 999      45.764 130.735  17.933  1.00  0.00     0.027 A 
HETATM    8  C4  LIG X 999      45.839 130.675  16.533  1.00  0.00    -0.025 A 
HETATM    9  C3  LIG X 999      46.956 130.107  15.900  1.00  0.00     0.012 A 
HETATM   10  C12 LIG X 999      44.779 131.193  15.751  1.00  0.00    -0.026 A 
HETATM   11  C2  LIG X 999      47.020 130.053  14.504  1.00  0.00     0.001 A 
HETATM   12  C1  LIG X 999      45.973 130.564  13.732  1.00  0.00     0.001 A 
HETATM   13  C13 LIG X 999      44.856 131.132  14.350  1.00  0.00     0.012 A 
HETATM   14  C11 LIG X 999      43.663 131.756  16.383  1.00  0.00     0.013 A 
HETATM   15  C10 LIG X 999      43.597 131.812  17.777  1.00  0.00     0.016 A 
ENDBRANCH   4   6
BRANCH   5  16
HETATM   16  C8  LIG X 999      43.168 131.512  22.046  1.00  0.00     0.178 C 
BRANCH  16  17
HETATM   17  C9  LIG X 999      43.201 130.100  22.648  1.00  0.00     0.251 C 
BRANCH  17  18
HETATM   18  N2  LIG X 999      44.486 129.819  23.288  1.00  0.00    -0.078 N 
HETATM   19  H9  LIG X 999      44.507 130.278  24.227  1.00  0.00     0.274 HD
HETATM   20  H10 LIG X 999      45.270 130.202  22.712  1.00  0.00     0.274 HD
HETATM   21  H11 LIG X 999      44.610 128.788  23.414  1.00  0.00     0.274 HD
ENDBRANCH  17  18
ENDBRANCH  16  17
ENDBRANCH   5  16
ENDBRANCH   1   4
TORSDOF 5
ENDMDL
MODEL 7
REMARK VINA RESULT:      -7.0      2.796      6.469
REMARK  5 active torsions:
REMARK  status: ('A' for Active; 'I' for Inactive)
REMARK    1  A    between atoms: C6_6  and  C7_7 
REMARK    2  A    between atoms: C7_7  and  N3_15 
REMARK    3  A    between atoms: N1_8  and  C8_9 
REMARK    4  A    between atoms: C8_9  and  C9_10 
REMARK    5  A    between atoms: C9_10  and  N2_11 
ROOT
HETATM    1  N3  LIG X 999      43.209 131.295  18.439  1.00  0.00    -0.052 NA
HETATM    2  N4  LIG X 999      42.713 132.153  19.170  1.00  0.00    -0.160 NA
HETATM    3  N5  LIG X 999      42.216 133.008  19.902  1.00  0.00     0.068 N 
ENDROOT
BRANCH   1   4
HETATM    4  C7  LIG X 999      44.628 131.072  18.368  1.00  0.00     0.191 C 
HETATM    5  N1  LIG X 999      45.292 130.773  19.446  1.00  0.00    -0.267 NA
BRANCH   4   6
HETATM    6  C6  LIG X 999      45.366 131.178  17.087  1.00  0.00     0.015 A 
HETATM    7  C5  LIG X 999      46.070 130.069  16.588  1.00  0.00     0.027 A 
HETATM    8  C4  LIG X 999      46.762 130.154  15.370  1.00  0.00    -0.025 A 
HETATM    9  C3  LIG X 999      47.476 129.051  14.875  1.00  0.00     0.012 A 
HETATM   10  C12 LIG X 999      46.742 131.363  14.634  1.00  0.00    -0.026 A 
HETATM   11  C2  LIG X 999      48.163 129.147  13.660  1.00  0.00     0.001 A 
HETATM   12  C1  LIG X 999      48.141 130.340  12.933  1.00  0.00     0.001 A 
HETATM   13  C13 LIG X 999      47.434 131.445  13.415  1.00  0.00     0.012 A 
HETATM   14  C11 LIG X 999      46.026 132.462  15.126  1.00  0.00     0.013 A 
HETATM   15  C10 LIG X 999      45.340 132.369  16.340  1.00  0.00     0.016 A 
ENDBRANCH   4   6
BRANCH   5  16
HETATM   16  C8  LIG X 999      44.715 130.659  20.785  1.00  0.00     0.178 C 
BRANCH  16  17
HETATM   17  C9  LIG X 999      45.181 131.806  21.692  1.00  0.00     0.251 C 
BRANCH  17  18
HETATM   18  N2  LIG X 999      46.477 132.335  21.268  1.00  0.00    -0.078 N 
HETATM   19  H9  LIG X 999      46.826 133.005  21.991  1.00  0.00     0.274 HD
HETATM   20  H10 LIG X 999      46.381 132.846  20.360  1.00  0.00     0.274 HD
HETATM   21  H11 LIG X 999      47.169 131.558  21.166  1.00  0.00     0.274 HD
ENDBRANCH  17  18
ENDBRANCH  16  17
ENDBRANCH   5  16
ENDBRANCH   1   4
TORSDOF 5
ENDMDL
MODEL 8
REMARK VINA RESULT:      -6.3      1.456      2.491
REMARK  5 active torsions:
REMARK  status: ('A' for Active; 'I' for Inactive)
REMARK    1  A    between atoms: C6_6  and  C7_7 
REMARK    2  A    between atoms: C7_7  and  N3_15 
REMARK    3  A    between atoms: N1_8  and  C8_9 
REMARK    4  A    between atoms: C8_9  and  C9_10 
REMARK    5  A    between atoms: C9_10  and  N2_11 
ROOT
HETATM    1  N3  LIG X 999      46.058 129.994  16.816  1.00  0.00    -0.052 NA
HETATM    2  N4  LIG X 999      45.508 129.125  16.138  1.00  0.00    -0.160 NA
HETATM    3  N5  LIG X 999      44.959 128.254  15.464  1.00  0.00     0.068 N 
ENDROOT
BRANCH   1   4
HETATM    4  C7  LIG X 999      45.435 131.258  17.097  1.00  0.00     0.191 C 
HETATM    5  N1  LIG X 999      45.606 132.261  16.284  1.00  0.00    -0.267 NA
BRANCH   4   6
HETATM    6  C6  LIG X 999      44.595 131.459  18.302  1.00  0.00     0.015 A 
HETATM    7  C5  LIG X 999      45.138 131.245  19.580  1.00  0.00     0.027 A 
HETATM    8  C4  LIG X 999      44.357 131.444  20.728  1.00  0.00    -0.025 A 
HETATM    9  C3  LIG X 999      44.893 131.220  22.006  1.00  0.00     0.012 A 
HETATM   10  C12 LIG X 999      43.014 131.874  20.598  1.00  0.00    -0.026 A 
HETATM   11  C2  LIG X 999      44.105 131.421  23.144  1.00  0.00     0.001 A 
HETATM   12  C1  LIG X 999      42.780 131.846  23.014  1.00  0.00     0.001 A 
HETATM   13  C13 LIG X 999      42.234 132.073  21.748  1.00  0.00     0.012 A 
HETATM   14  C11 LIG X 999      42.481 132.101  19.323  1.00  0.00     0.013 A 
HETATM   15  C10 LIG X 999      43.265 131.900  18.185  1.00  0.00     0.016 A 
ENDBRANCH   4   6
BRANCH   5  16
HETATM   16  C8  LIG X 999      46.424 132.230  15.073  1.00  0.00     0.178 C 
BRANCH  16  17
HETATM   17  C9  LIG X 999      45.825 131.288  14.018  1.00  0.00     0.251 C 
BRANCH  17  18
HETATM   18  N2  LIG X 999      46.817 130.334  13.523  1.00  0.00    -0.078 N 
HETATM   19  H9  LIG X 999      47.440 130.816  12.835  1.00  0.00     0.274 HD
HETATM   20  H10 LIG X 999      46.343 129.535  13.043  1.00  0.00     0.274 HD
HETATM   21  H11 LIG X 999      47.401 129.976  14.314  1.00  0.00     0.274 HD
ENDBRANCH  17  18
ENDBRANCH  16  17
ENDBRANCH   5  16
ENDBRANCH   1   4
TORSDOF 5
ENDMDL
MODEL 9
REMARK VINA RESULT:      -6.2      2.680      6.365
REMARK  5 active torsions:
REMARK  status: ('A' for Active; 'I' for Inactive)
REMARK    1  A    between atoms: C6_6  and  C7_7 
REMARK    2  A    between atoms: C7_7  and  N3_15 
REMARK    3  A    between atoms: N1_8  and  C8_9 
REMARK    4  A    between atoms: C8_9  and  C9_10 
REMARK    5  A    between atoms: C9_10  and  N2_11 
ROOT
HETATM    1  N3  LIG X 999      42.956 131.849  17.878  1.00  0.00    -0.052 NA
HETATM    2  N4  LIG X 999      42.226 132.352  18.733  1.00  0.00    -0.160 NA
HETATM    3  N5  LIG X 999      41.494 132.852  19.586  1.00  0.00     0.068 N 
ENDROOT
BRANCH   1   4
HETATM    4  C7  LIG X 999      44.331 131.520  18.138  1.00  0.00     0.191 C 
HETATM    5  N1  LIG X 999      44.842 131.750  19.313  1.00  0.00    -0.267 NA
BRANCH   4   6
HETATM    6  C6  LIG X 999      45.196 130.923  17.094  1.00  0.00     0.015 A 
HETATM    7  C5  LIG X 999      45.648 131.709  16.020  1.00  0.00     0.027 A 
HETATM    8  C4  LIG X 999      46.478 131.158  15.033  1.00  0.00    -0.025 A 
HETATM    9  C3  LIG X 999      46.922 131.938  13.954  1.00  0.00     0.012 A 
HETATM   10  C12 LIG X 999      46.873 129.801  15.125  1.00  0.00    -0.026 A 
HETATM   11  C2  LIG X 999      47.749 131.378  12.975  1.00  0.00     0.001 A 
HETATM   12  C1  LIG X 999      48.138 130.039  13.067  1.00  0.00     0.001 A 
HETATM   13  C13 LIG X 999      47.704 129.251  14.137  1.00  0.00     0.012 A 
HETATM   14  C11 LIG X 999      46.434 129.024  16.204  1.00  0.00     0.013 A 
HETATM   15  C10 LIG X 999      45.607 129.581  17.183  1.00  0.00     0.016 A 
ENDBRANCH   4   6
BRANCH   5  16
HETATM   16  C8  LIG X 999      44.128 132.358  20.435  1.00  0.00     0.178 C 
BRANCH  16  17
HETATM   17  C9  LIG X 999      44.094 131.418  21.649  1.00  0.00     0.251 C 
BRANCH  17  18
HETATM   18  N2  LIG X 999      45.161 130.418  21.584  1.00  0.00    -0.078 N 
HETATM   19  H9  LIG X 999      44.795 129.560  21.112  1.00  0.00     0.274 HD
HETATM   20  H10 LIG X 999      45.474 130.161  22.548  1.00  0.00     0.274 HD
HETATM   21  H11 LIG X 999      45.970 130.787  21.035  1.00  0.00     0.274 HD
ENDBRANCH  17  18
ENDBRANCH  16  17
ENDBRANCH   5  16
ENDBRANCH   1   4
TORSDOF 5
ENDMDL
