REMARK VINA RESULT:      -4.9      2.053      3.356
REMARK  1 active torsions:
REMARK  status: ('A' for Active; 'I' for Inactive)
REMARK    1  A    between atoms: C12_14  and  N2_15 
ROOT
HETATM    1  C1  LIG X 999      44.149 131.388  13.828  1.00  0.00     0.001 A 
HETATM    2  C2  LIG X 999      43.146 131.907  14.641  1.00  0.00     0.001 A 
HETATM    3  C3  LIG X 999      43.248 131.830  16.032  1.00  0.00     0.013 A 
HETATM    4  C4  LIG X 999      44.371 131.227  16.643  1.00  0.00    -0.012 A 
HETATM    5  C5  LIG X 999      45.394 130.699  15.793  1.00  0.00    -0.025 A 
HETATM    6  C6  LIG X 999      45.268 130.787  14.398  1.00  0.00     0.012 A 
HETATM    7  C7  LIG X 999      46.537 130.086  16.342  1.00  0.00     0.013 A 
HETATM    8  C8  LIG X 999      46.692 129.982  17.723  1.00  0.00     0.021 A 
HETATM    9  C9  LIG X 999      45.699 130.494  18.545  1.00  0.00     0.020 A 
HETATM   10  S1  LIG X 999      45.702 130.467  20.219  1.00  0.00    -0.076 SA
HETATM   11  C10 LIG X 999      44.225 131.246  20.386  1.00  0.00     0.118 A 
HETATM   12  C11 LIG X 999      43.640 131.535  21.669  1.00  0.00     0.109 C 
HETATM   13  N1  LIG X 999      43.176 131.765  22.704  1.00  0.00    -0.191 NA
HETATM   14  C12 LIG X 999      43.698 131.545  19.116  1.00  0.00     0.133 A 
HETATM   15  C13 LIG X 999      44.545 131.113  18.056  1.00  0.00     0.026 A 
ENDROOT
BRANCH  14  16
HETATM   16  N2  LIG X 999      42.444 132.211  18.905  1.00  0.00    -0.070 NA
HETATM   17  N3  LIG X 999      41.854 132.847  19.779  1.00  0.00    -0.162 NA
HETATM   18  N4  LIG X 999      41.256 133.485  20.645  1.00  0.00     0.068 N 
ENDBRANCH  14  16
TORSDOF 1
