REMARK VINA RESULT:      -8.3      0.000      0.000
REMARK  5 active torsions:
REMARK  status: ('A' for Active; 'I' for Inactive)
REMARK    1  A    between atoms: N1_1  and  C1_2 
REMARK    2  A    between atoms: C1_2  and  C2_3 
REMARK    3  A    between atoms: C2_3  and  C3_4 
REMARK    4  A    between atoms: C3_4  and  O1_5 
REMARK    5  A    between atoms: O1_5  and  C4_6 
ROOT
HETATM    1  C4  LIG X 999      45.198 131.419  17.189  1.00  0.00     0.069 A 
HETATM    2  C5  LIG X 999      45.538 130.090  17.466  1.00  0.00     0.037 A 
HETATM    3  C6  LIG X 999      46.321 129.351  16.575  1.00  0.00     0.015 A 
HETATM    4  C7  LIG X 999      46.775 129.937  15.386  1.00  0.00    -0.026 A 
HETATM    5  C8  LIG X 999      47.562 129.205  14.482  1.00  0.00     0.012 A 
HETATM    6  C9  LIG X 999      48.010 129.800  13.300  1.00  0.00     0.001 A 
HETATM    7  C10 LIG X 999      47.676 131.126  13.010  1.00  0.00     0.001 A 
HETATM    8  C11 LIG X 999      46.893 131.865  13.901  1.00  0.00     0.012 A 
HETATM    9  C12 LIG X 999      46.438 131.280  15.092  1.00  0.00    -0.023 A 
HETATM   10  C13 LIG X 999      45.650 132.013  15.995  1.00  0.00     0.049 A 
ENDROOT
BRANCH   1  11
HETATM   11  O1  LIG X 999      44.411 132.110  18.122  1.00  0.00    -0.351 OA
BRANCH  11  12
HETATM   12  C3  LIG X 999      44.535 131.982  19.536  1.00  0.00     0.177 C 
BRANCH  12  13
HETATM   13  C2  LIG X 999      43.169 131.686  20.161  1.00  0.00     0.054 C 
BRANCH  13  14
HETATM   14  C1  LIG X 999      42.115 132.768  19.866  1.00  0.00     0.231 C 
BRANCH  14  15
HETATM   15  N1  LIG X 999      41.657 132.730  18.475  1.00  0.00    -0.079 N 
HETATM   16  H1  LIG X 999      41.777 131.769  18.077  1.00  0.00     0.274 HD
HETATM   17  H2  LIG X 999      40.643 132.981  18.445  1.00  0.00     0.274 HD
HETATM   18  H3  LIG X 999      42.185 133.424  17.899  1.00  0.00     0.274 HD
ENDBRANCH  14  15
ENDBRANCH  13  14
ENDBRANCH  12  13
ENDBRANCH  11  12
ENDBRANCH   1  11
TORSDOF 5
