REMARK VINA RESULT:      -8.1      1.693      2.392
REMARK  3 active torsions:
REMARK  status: ('A' for Active; 'I' for Inactive)
REMARK    1  A    between atoms: C1_1  and  C2_6 
REMARK    2  A    between atoms: N1_2  and  N2_3 
REMARK    3  A    between atoms: C2_6  and  C3_8 
ROOT
HETATM    1  C3  LIG X 999      44.724 131.170  17.083  1.00  0.00     0.016 A 
HETATM    2  C4  LIG X 999      45.573 130.178  17.603  1.00  0.00     0.016 A 
HETATM    3  C5  LIG X 999      46.599 129.638  16.825  1.00  0.00     0.013 A 
HETATM    4  C6  LIG X 999      46.787 130.070  15.505  1.00  0.00    -0.026 A 
HETATM    5  C7  LIG X 999      47.815 129.533  14.715  1.00  0.00     0.012 A 
HETATM    6  C8  LIG X 999      47.987 129.968  13.397  1.00  0.00     0.001 A 
HETATM    7  C9  LIG X 999      47.136 130.939  12.861  1.00  0.00     0.001 A 
HETATM    8  C10 LIG X 999      46.109 131.481  13.637  1.00  0.00     0.012 A 
HETATM    9  C11 LIG X 999      45.927 131.056  14.963  1.00  0.00    -0.025 A 
HETATM   10  C12 LIG X 999      44.899 131.593  15.753  1.00  0.00     0.028 A 
ENDROOT
BRANCH   1  11
HETATM   11  C2  LIG X 999      43.634 131.719  17.926  1.00  0.00     0.201 C 
HETATM   12  O1  LIG X 999      42.578 132.129  17.371  1.00  0.00    -0.286 OA
BRANCH  11  13
HETATM   13  C1  LIG X 999      43.720 131.791  19.395  1.00  0.00     0.195 C 
HETATM   14  N1  LIG X 999      42.659 131.677  20.136  1.00  0.00    -0.164 NA
BRANCH  14  15
HETATM   15  N2  LIG X 999      42.672 131.768  21.540  1.00  0.00    -0.177 N 
HETATM   16  H2  LIG X 999      41.810 132.087  22.035  1.00  0.00     0.214 HD
HETATM   17  N3  LIG X 999      43.701 131.465  22.222  1.00  0.00    -0.031 N 
ENDBRANCH  14  15
ENDBRANCH  11  13
ENDBRANCH   1  11
TORSDOF 3
