REMARK VINA RESULT:      -5.7      3.923      7.360
REMARK  7 active torsions:
REMARK  status: ('A' for Active; 'I' for Inactive)
REMARK    1  A    between atoms: O1_2  and  C1_3 
REMARK    2  A    between atoms: C1_3  and  O2_18 
REMARK    3  A    between atoms: N1_4  and  C2_5 
REMARK    4  A    between atoms: C3_6  and  N2_7 
REMARK    5  A    between atoms: O2_18  and  C12_19 
REMARK    6  A    between atoms: C12_19  and  C14_21 
REMARK    7  A    between atoms: C14_21  and  O3_22 
ROOT
HETATM    1  N2  LIG X 999      42.401 126.773  24.388  1.00  0.00    -0.070 NA
HETATM    2  N3  LIG X 999      41.265 126.485  24.008  1.00  0.00    -0.162 NA
HETATM    3  N4  LIG X 999      40.129 126.205  23.631  1.00  0.00     0.068 N 
ENDROOT
BRANCH   1   4
HETATM    4  C3  LIG X 999      43.586 126.340  23.704  1.00  0.00     0.122 A 
HETATM    5  C2  LIG X 999      44.398 127.213  22.932  1.00  0.00     0.094 A 
HETATM    6  C11 LIG X 999      45.607 126.744  22.401  1.00  0.00     0.046 A 
HETATM    7  C10 LIG X 999      45.990 125.407  22.565  1.00  0.00    -0.024 A 
HETATM    8  C5  LIG X 999      45.153 124.522  23.281  1.00  0.00    -0.024 A 
HETATM    9  C9  LIG X 999      47.192 124.934  22.014  1.00  0.00     0.012 A 
HETATM   10  C4  LIG X 999      43.958 124.997  23.840  1.00  0.00     0.049 A 
HETATM   11  C6  LIG X 999      45.532 123.179  23.435  1.00  0.00     0.012 A 
HETATM   12  C7  LIG X 999      46.731 122.719  22.883  1.00  0.00     0.001 A 
HETATM   13  C8  LIG X 999      47.559 123.595  22.175  1.00  0.00     0.001 A 
BRANCH   5  14
HETATM   14  N1  LIG X 999      44.021 128.565  22.640  1.00  0.00    -0.200 NA
HETATM   15  C1  LIG X 999      44.339 129.589  23.374  1.00  0.00     0.285 C 
BRANCH  15  16
HETATM   16  O1  LIG X 999      45.096 129.415  24.530  1.00  0.00    -0.325 OA
HETATM   17  H1  LIG X 999      45.766 128.659  24.598  1.00  0.00     0.221 HD
ENDBRANCH  15  16
BRANCH  15  18
HETATM   18  O2  LIG X 999      43.923 130.886  23.031  1.00  0.00    -0.308 OA
BRANCH  18  19
HETATM   19  C12 LIG X 999      44.134 131.557  21.779  1.00  0.00     0.152 C 
HETATM   20  C13 LIG X 999      45.367 131.032  21.033  1.00  0.00     0.042 C 
BRANCH  19  21
HETATM   21  C14 LIG X 999      42.863 131.576  20.911  1.00  0.00     0.199 C 
BRANCH  21  22
HETATM   22  O3  LIG X 999      43.186 131.702  19.543  1.00  0.00    -0.393 OA
HETATM   23  C15 LIG X 999      42.065 132.183  18.837  1.00  0.00     0.201 C 
ENDBRANCH  21  22
ENDBRANCH  19  21
ENDBRANCH  18  19
ENDBRANCH  15  18
ENDBRANCH   5  14
ENDBRANCH   1   4
TORSDOF 7
