MODEL 1
REMARK VINA RESULT:      -6.2      0.000      0.000
REMARK  6 active torsions:
REMARK  status: ('A' for Active; 'I' for Inactive)
REMARK    1  A    between atoms: C8_8  and  O1_9 
REMARK    2  A    between atoms: O1_9  and  C9_10 
REMARK    3  A    between atoms: C9_10  and  C10_11 
REMARK    4  A    between atoms: C10_11  and  C11_12 
REMARK    5  A    between atoms: C11_12  and  N1_13 
REMARK    6  A    between atoms: C13_18  and  N4_19 
ROOT
HETATM    1  N1  LIG X 999      46.288 129.829  14.786  1.00  0.00    -0.116 NA
HETATM    2  N2  LIG X 999      47.314 129.676  14.124  1.00  0.00    -0.168 NA
HETATM    3  N3  LIG X 999      48.339 129.522  13.462  1.00  0.00     0.068 N 
ENDROOT
BRANCH   1   4
HETATM    4  C11 LIG X 999      45.693 131.150  14.957  1.00  0.00     0.191 C 
BRANCH   4   5
HETATM    5  C10 LIG X 999      45.626 131.520  16.442  1.00  0.00     0.051 C 
BRANCH   5   6
HETATM    6  C9  LIG X 999      45.741 130.298  17.356  1.00  0.00     0.170 C 
BRANCH   6   7
HETATM    7  O1  LIG X 999      46.190 130.701  18.634  1.00  0.00    -0.384 OA
BRANCH   7   8
HETATM    8  C8  LIG X 999      45.140 130.639  19.584  1.00  0.00     0.146 C 
HETATM    9  C7  LIG X 999      45.546 129.661  20.698  1.00  0.00     0.072 C 
HETATM   10  C5  LIG X 999      44.685 129.763  21.935  1.00  0.00    -0.047 A 
HETATM   11  C4  LIG X 999      43.896 130.910  22.205  1.00  0.00    -0.023 A 
HETATM   12  C6  LIG X 999      44.774 128.745  22.898  1.00  0.00     0.008 A 
HETATM   13  C3  LIG X 999      43.204 130.995  23.425  1.00  0.00     0.010 A 
HETATM   14  C13 LIG X 999      43.714 132.008  21.175  1.00  0.00     0.199 C 
HETATM   15  C2  LIG X 999      43.292 129.969  24.366  1.00  0.00     0.001 A 
HETATM   16  C1  LIG X 999      44.074 128.844  24.102  1.00  0.00     0.001 A 
HETATM   17  C12 LIG X 999      44.871 132.045  20.161  1.00  0.00     0.143 C 
HETATM   18 CL1  LIG X 999      46.343 132.742  20.911  1.00  0.00    -0.120 Cl
BRANCH  14  19
HETATM   19  N4  LIG X 999      42.455 131.813  20.457  1.00  0.00    -0.104 NA
HETATM   20  N5  LIG X 999      42.391 131.925  19.232  1.00  0.00    -0.167 NA
HETATM   21  N6  LIG X 999      42.327 132.037  18.009  1.00  0.00     0.068 N 
ENDBRANCH  14  19
ENDBRANCH   7   8
ENDBRANCH   6   7
ENDBRANCH   5   6
ENDBRANCH   4   5
ENDBRANCH   1   4
TORSDOF 6
ENDMDL
MODEL 2
REMARK VINA RESULT:      -5.2      2.513      3.073
REMARK  6 active torsions:
REMARK  status: ('A' for Active; 'I' for Inactive)
REMARK    1  A    between atoms: C8_8  and  O1_9 
REMARK    2  A    between atoms: O1_9  and  C9_10 
REMARK    3  A    between atoms: C9_10  and  C10_11 
REMARK    4  A    between atoms: C10_11  and  C11_12 
REMARK    5  A    between atoms: C11_12  and  N1_13 
REMARK    6  A    between atoms: C13_18  and  N4_19 
ROOT
HETATM    1  N1  LIG X 999      46.886 129.477  14.721  1.00  0.00    -0.116 NA
HETATM    2  N2  LIG X 999      47.182 130.300  13.854  1.00  0.00    -0.168 NA
HETATM    3  N3  LIG X 999      47.477 131.122  12.988  1.00  0.00     0.068 N 
ENDROOT
BRANCH   1   4
HETATM    4  C11 LIG X 999      46.517 129.902  16.067  1.00  0.00     0.191 C 
BRANCH   4   5
HETATM    5  C10 LIG X 999      45.253 130.766  16.029  1.00  0.00     0.051 C 
BRANCH   5   6
HETATM    6  C9  LIG X 999      45.199 131.776  17.178  1.00  0.00     0.170 C 
BRANCH   6   7
HETATM    7  O1  LIG X 999      44.099 131.484  18.015  1.00  0.00    -0.384 OA
BRANCH   7   8
HETATM    8  C8  LIG X 999      44.315 131.974  19.328  1.00  0.00     0.146 C 
HETATM    9  C7  LIG X 999      43.102 131.602  20.194  1.00  0.00     0.072 C 
HETATM   10  C5  LIG X 999      43.349 131.753  21.677  1.00  0.00    -0.047 A 
HETATM   11  C4  LIG X 999      44.659 131.800  22.216  1.00  0.00    -0.023 A 
HETATM   12  C6  LIG X 999      42.247 131.717  22.546  1.00  0.00     0.008 A 
HETATM   13  C3  LIG X 999      44.827 131.829  23.611  1.00  0.00     0.010 A 
HETATM   14  C13 LIG X 999      45.881 131.905  21.324  1.00  0.00     0.199 C 
HETATM   15  C2  LIG X 999      43.721 131.805  24.461  1.00  0.00     0.001 A 
HETATM   16  C1  LIG X 999      42.432 131.752  23.929  1.00  0.00     0.001 A 
HETATM   17  C12 LIG X 999      45.610 131.365  19.909  1.00  0.00     0.143 C 
HETATM   18 CL1  LIG X 999      45.547 129.573  19.920  1.00  0.00    -0.120 Cl
BRANCH  14  19
HETATM   19  N4  LIG X 999      46.310 133.300  21.229  1.00  0.00    -0.104 NA
HETATM   20  N5  LIG X 999      47.353 133.688  21.757  1.00  0.00    -0.167 NA
HETATM   21  N6  LIG X 999      48.394 134.077  22.284  1.00  0.00     0.068 N 
ENDBRANCH  14  19
ENDBRANCH   7   8
ENDBRANCH   6   7
ENDBRANCH   5   6
ENDBRANCH   4   5
ENDBRANCH   1   4
TORSDOF 6
ENDMDL
MODEL 3
REMARK VINA RESULT:      -4.9      5.129      6.558
REMARK  6 active torsions:
REMARK  status: ('A' for Active; 'I' for Inactive)
REMARK    1  A    between atoms: C8_8  and  O1_9 
REMARK    2  A    between atoms: O1_9  and  C9_10 
REMARK    3  A    between atoms: C9_10  and  C10_11 
REMARK    4  A    between atoms: C10_11  and  C11_12 
REMARK    5  A    between atoms: C11_12  and  N1_13 
REMARK    6  A    between atoms: C13_18  and  N4_19 
ROOT
HETATM    1  N1  LIG X 999      43.827 125.454  22.619  1.00  0.00    -0.116 NA
HETATM    2  N2  LIG X 999      43.011 124.735  22.042  1.00  0.00    -0.168 NA
HETATM    3  N3  LIG X 999      42.196 124.017  21.466  1.00  0.00     0.068 N 
ENDROOT
BRANCH   1   4
HETATM    4  C11 LIG X 999      44.745 124.905  23.611  1.00  0.00     0.191 C 
BRANCH   4   5
HETATM    5  C10 LIG X 999      45.636 126.011  24.186  1.00  0.00     0.051 C 
BRANCH   5   6
HETATM    6  C9  LIG X 999      45.310 127.389  23.604  1.00  0.00     0.170 C 
BRANCH   6   7
HETATM    7  O1  LIG X 999      44.614 128.157  24.565  1.00  0.00    -0.384 OA
BRANCH   7   8
HETATM    8  C8  LIG X 999      44.280 129.434  24.049  1.00  0.00     0.146 C 
HETATM    9  C7  LIG X 999      44.671 129.478  22.564  1.00  0.00     0.072 C 
HETATM   10  C5  LIG X 999      44.061 130.638  21.812  1.00  0.00    -0.047 A 
HETATM   11  C4  LIG X 999      42.927 131.332  22.302  1.00  0.00    -0.023 A 
HETATM   12  C6  LIG X 999      44.560 130.945  20.536  1.00  0.00     0.008 A 
HETATM   13  C3  LIG X 999      42.336 132.329  21.507  1.00  0.00     0.010 A 
HETATM   14  C13 LIG X 999      42.386 131.086  23.697  1.00  0.00     0.199 C 
HETATM   15  C2  LIG X 999      42.851 132.632  20.246  1.00  0.00     0.001 A 
HETATM   16  C1  LIG X 999      43.964 131.942  19.762  1.00  0.00     0.001 A 
HETATM   17  C12 LIG X 999      42.768 129.692  24.225  1.00  0.00     0.143 C 
HETATM   18 CL1  LIG X 999      41.785 128.424  23.423  1.00  0.00    -0.120 Cl
BRANCH  14  19
HETATM   19  N4  LIG X 999      42.897 132.101  24.616  1.00  0.00    -0.104 NA
HETATM   20  N5  LIG X 999      44.085 132.427  24.616  1.00  0.00    -0.167 NA
HETATM   21  N6  LIG X 999      45.272 132.752  24.617  1.00  0.00     0.068 N 
ENDBRANCH  14  19
ENDBRANCH   7   8
ENDBRANCH   6   7
ENDBRANCH   5   6
ENDBRANCH   4   5
ENDBRANCH   1   4
TORSDOF 6
ENDMDL
MODEL 4
REMARK VINA RESULT:      -4.7      3.473      7.009
REMARK  6 active torsions:
REMARK  status: ('A' for Active; 'I' for Inactive)
REMARK    1  A    between atoms: C8_8  and  O1_9 
REMARK    2  A    between atoms: O1_9  and  C9_10 
REMARK    3  A    between atoms: C9_10  and  C10_11 
REMARK    4  A    between atoms: C10_11  and  C11_12 
REMARK    5  A    between atoms: C11_12  and  N1_13 
REMARK    6  A    between atoms: C13_18  and  N4_19 
ROOT
HETATM    1  N1  LIG X 999      41.835 128.507  23.552  1.00  0.00    -0.116 NA
HETATM    2  N2  LIG X 999      40.746 127.985  23.792  1.00  0.00    -0.168 NA
HETATM    3  N3  LIG X 999      39.659 127.463  24.031  1.00  0.00     0.068 N 
ENDROOT
BRANCH   1   4
HETATM    4  C11 LIG X 999      42.422 129.479  24.469  1.00  0.00     0.191 C 
BRANCH   4   5
HETATM    5  C10 LIG X 999      42.104 130.907  24.012  1.00  0.00     0.051 C 
BRANCH   5   6
HETATM    6  C9  LIG X 999      43.350 131.664  23.547  1.00  0.00     0.170 C 
BRANCH   6   7
HETATM    7  O1  LIG X 999      43.113 132.232  22.275  1.00  0.00    -0.384 OA
BRANCH   7   8
HETATM    8  C8  LIG X 999      43.644 131.414  21.246  1.00  0.00     0.146 C 
HETATM    9  C7  LIG X 999      43.302 132.052  19.891  1.00  0.00     0.072 C 
HETATM   10  C5  LIG X 999      44.095 131.481  18.738  1.00  0.00    -0.047 A 
HETATM   11  C4  LIG X 999      45.305 130.773  18.941  1.00  0.00    -0.023 A 
HETATM   12  C6  LIG X 999      43.679 131.776  17.429  1.00  0.00     0.008 A 
HETATM   13  C3  LIG X 999      46.056 130.363  17.826  1.00  0.00     0.010 A 
HETATM   14  C13 LIG X 999      45.768 130.372  20.328  1.00  0.00     0.199 C 
HETATM   15  C2  LIG X 999      45.623 130.653  16.531  1.00  0.00     0.001 A 
HETATM   16  C1  LIG X 999      44.434 131.356  16.333  1.00  0.00     0.001 A 
HETATM   17  C12 LIG X 999      45.172 131.281  21.419  1.00  0.00     0.143 C 
HETATM   18 CL1  LIG X 999      45.979 132.883  21.414  1.00  0.00    -0.120 Cl
BRANCH  14  19
HETATM   19  N4  LIG X 999      45.388 128.987  20.600  1.00  0.00    -0.104 NA
HETATM   20  N5  LIG X 999      45.272 128.568  21.752  1.00  0.00    -0.167 NA
HETATM   21  N6  LIG X 999      45.157 128.148  22.903  1.00  0.00     0.068 N 
ENDBRANCH  14  19
ENDBRANCH   7   8
ENDBRANCH   6   7
ENDBRANCH   5   6
ENDBRANCH   4   5
ENDBRANCH   1   4
TORSDOF 6
ENDMDL
MODEL 5
REMARK VINA RESULT:      -4.4      1.373      1.819
REMARK  6 active torsions:
REMARK  status: ('A' for Active; 'I' for Inactive)
REMARK    1  A    between atoms: C8_8  and  O1_9 
REMARK    2  A    between atoms: O1_9  and  C9_10 
REMARK    3  A    between atoms: C9_10  and  C10_11 
REMARK    4  A    between atoms: C10_11  and  C11_12 
REMARK    5  A    between atoms: C11_12  and  N1_13 
REMARK    6  A    between atoms: C13_18  and  N4_19 
ROOT
HETATM    1  N1  LIG X 999      46.102 129.242  15.010  1.00  0.00    -0.116 NA
HETATM    2  N2  LIG X 999      46.773 129.889  14.205  1.00  0.00    -0.168 NA
HETATM    3  N3  LIG X 999      47.442 130.536  13.401  1.00  0.00     0.068 N 
ENDROOT
BRANCH   1   4
HETATM    4  C11 LIG X 999      45.841 129.749  16.352  1.00  0.00     0.191 C 
BRANCH   4   5
HETATM    5  C10 LIG X 999      45.193 131.136  16.286  1.00  0.00     0.051 C 
BRANCH   5   6
HETATM    6  C9  LIG X 999      44.925 131.724  17.673  1.00  0.00     0.170 C 
BRANCH   6   7
HETATM    7  O1  LIG X 999      45.740 131.076  18.629  1.00  0.00    -0.384 OA
BRANCH   7   8
HETATM    8  C8  LIG X 999      45.004 130.775  19.803  1.00  0.00     0.146 C 
HETATM    9  C7  LIG X 999      45.537 129.458  20.388  1.00  0.00     0.072 C 
HETATM   10  C5  LIG X 999      45.087 129.203  21.808  1.00  0.00    -0.047 A 
HETATM   11  C4  LIG X 999      44.611 130.246  22.640  1.00  0.00    -0.023 A 
HETATM   12  C6  LIG X 999      45.271 127.919  22.348  1.00  0.00     0.008 A 
HETATM   13  C3  LIG X 999      44.314 129.969  23.986  1.00  0.00     0.010 A 
HETATM   14  C13 LIG X 999      44.334 131.634  22.095  1.00  0.00     0.199 C 
HETATM   15  C2  LIG X 999      44.490 128.686  24.504  1.00  0.00     0.001 A 
HETATM   16  C1  LIG X 999      44.965 127.661  23.685  1.00  0.00     0.001 A 
HETATM   17  C12 LIG X 999      45.149 131.925  20.822  1.00  0.00     0.143 C 
HETATM   18 CL1  LIG X 999      46.868 132.231  21.231  1.00  0.00    -0.120 Cl
BRANCH  14  19
HETATM   19  N4  LIG X 999      42.911 131.776  21.794  1.00  0.00    -0.104 NA
HETATM   20  N5  LIG X 999      42.096 132.070  22.669  1.00  0.00    -0.167 NA
HETATM   21  N6  LIG X 999      41.281 132.363  23.543  1.00  0.00     0.068 N 
ENDBRANCH  14  19
ENDBRANCH   7   8
ENDBRANCH   6   7
ENDBRANCH   5   6
ENDBRANCH   4   5
ENDBRANCH   1   4
TORSDOF 6
ENDMDL
MODEL 6
REMARK VINA RESULT:      -4.0      7.335      9.741
REMARK  6 active torsions:
REMARK  status: ('A' for Active; 'I' for Inactive)
REMARK    1  A    between atoms: C8_8  and  O1_9 
REMARK    2  A    between atoms: O1_9  and  C9_10 
REMARK    3  A    between atoms: C9_10  and  C10_11 
REMARK    4  A    between atoms: C10_11  and  C11_12 
REMARK    5  A    between atoms: C11_12  and  N1_13 
REMARK    6  A    between atoms: C13_18  and  N4_19 
ROOT
HETATM    1  N1  LIG X 999      43.502 124.696  23.220  1.00  0.00    -0.116 NA
HETATM    2  N2  LIG X 999      42.868 124.325  22.232  1.00  0.00    -0.168 NA
HETATM    3  N3  LIG X 999      42.234 123.954  21.246  1.00  0.00     0.068 N 
ENDROOT
BRANCH   1   4
HETATM    4  C11 LIG X 999      44.258 125.944  23.203  1.00  0.00     0.191 C 
BRANCH   4   5
HETATM    5  C10 LIG X 999      45.465 125.828  22.267  1.00  0.00     0.051 C 
BRANCH   5   6
HETATM    6  C9  LIG X 999      46.646 125.107  22.922  1.00  0.00     0.170 C 
BRANCH   6   7
HETATM    7  O1  LIG X 999      47.241 124.228  21.989  1.00  0.00    -0.384 OA
BRANCH   7   8
HETATM    8  C8  LIG X 999      48.535 124.676  21.622  1.00  0.00     0.146 C 
HETATM    9  C7  LIG X 999      49.098 125.532  22.768  1.00  0.00     0.072 C 
HETATM   10  C5  LIG X 999      50.584 125.781  22.662  1.00  0.00    -0.047 A 
HETATM   11  C4  LIG X 999      51.424 124.966  21.864  1.00  0.00    -0.023 A 
HETATM   12  C6  LIG X 999      51.157 126.769  23.480  1.00  0.00     0.008 A 
HETATM   13  C3  LIG X 999      52.813 125.176  21.893  1.00  0.00     0.010 A 
HETATM   14  C13 LIG X 999      50.855 123.928  20.915  1.00  0.00     0.199 C 
HETATM   15  C2  LIG X 999      53.366 126.170  22.701  1.00  0.00     0.001 A 
HETATM   16  C1  LIG X 999      52.538 126.967  23.492  1.00  0.00     0.001 A 
HETATM   17  C12 LIG X 999      49.451 123.465  21.343  1.00  0.00     0.143 C 
HETATM   18 CL1  LIG X 999      49.553 122.375  22.763  1.00  0.00    -0.120 Cl
BRANCH  14  19
HETATM   19  N4  LIG X 999      50.785 124.477  19.562  1.00  0.00    -0.104 NA
HETATM   20  N5  LIG X 999      51.647 124.221  18.720  1.00  0.00    -0.167 NA
HETATM   21  N6  LIG X 999      52.507 123.965  17.879  1.00  0.00     0.068 N 
ENDBRANCH  14  19
ENDBRANCH   7   8
ENDBRANCH   6   7
ENDBRANCH   5   6
ENDBRANCH   4   5
ENDBRANCH   1   4
TORSDOF 6
ENDMDL
MODEL 7
REMARK VINA RESULT:      -3.9      8.080     10.246
REMARK  6 active torsions:
REMARK  status: ('A' for Active; 'I' for Inactive)
REMARK    1  A    between atoms: C8_8  and  O1_9 
REMARK    2  A    between atoms: O1_9  and  C9_10 
REMARK    3  A    between atoms: C9_10  and  C10_11 
REMARK    4  A    between atoms: C10_11  and  C11_12 
REMARK    5  A    between atoms: C11_12  and  N1_13 
REMARK    6  A    between atoms: C13_18  and  N4_19 
ROOT
HETATM    1  N1  LIG X 999      42.896 125.098  23.099  1.00  0.00    -0.116 NA
HETATM    2  N2  LIG X 999      42.081 124.545  22.360  1.00  0.00    -0.168 NA
HETATM    3  N3  LIG X 999      41.267 123.994  21.621  1.00  0.00     0.068 N 
ENDROOT
BRANCH   1   4
HETATM    4  C11 LIG X 999      44.233 124.547  23.291  1.00  0.00     0.191 C 
BRANCH   4   5
HETATM    5  C10 LIG X 999      44.333 123.151  22.667  1.00  0.00     0.051 C 
BRANCH   5   6
HETATM    6  C9  LIG X 999      45.758 122.807  22.228  1.00  0.00     0.170 C 
BRANCH   6   7
HETATM    7  O1  LIG X 999      46.645 122.983  23.314  1.00  0.00    -0.384 OA
BRANCH   7   8
HETATM    8  C8  LIG X 999      47.983 123.105  22.862  1.00  0.00     0.146 C 
HETATM    9  C7  LIG X 999      47.993 122.991  21.329  1.00  0.00     0.072 C 
HETATM   10  C5  LIG X 999      49.289 123.446  20.699  1.00  0.00    -0.047 A 
HETATM   11  C4  LIG X 999      50.202 124.283  21.386  1.00  0.00    -0.023 A 
HETATM   12  C6  LIG X 999      49.523 123.131  19.350  1.00  0.00     0.008 A 
HETATM   13  C3  LIG X 999      51.336 124.765  20.710  1.00  0.00     0.010 A 
HETATM   14  C13 LIG X 999      50.032 124.603  22.859  1.00  0.00     0.199 C 
HETATM   15  C2  LIG X 999      51.561 124.432  19.373  1.00  0.00     0.001 A 
HETATM   16  C1  LIG X 999      50.657 123.614  18.695  1.00  0.00     0.001 A 
HETATM   17  C12 LIG X 999      48.569 124.460  23.315  1.00  0.00     0.143 C 
HETATM   18 CL1  LIG X 999      47.586 125.835  22.715  1.00  0.00    -0.120 Cl
BRANCH  14  19
HETATM   19  N4  LIG X 999      50.871 123.714  23.662  1.00  0.00    -0.104 NA
HETATM   20  N5  LIG X 999      51.948 124.092  24.123  1.00  0.00    -0.167 NA
HETATM   21  N6  LIG X 999      53.025 124.468  24.584  1.00  0.00     0.068 N 
ENDBRANCH  14  19
ENDBRANCH   7   8
ENDBRANCH   6   7
ENDBRANCH   5   6
ENDBRANCH   4   5
ENDBRANCH   1   4
TORSDOF 6
ENDMDL
