REMARK VINA RESULT:      -8.2      0.000      0.000
REMARK  2 active torsions:
REMARK  status: ('A' for Active; 'I' for Inactive)
REMARK    1  A    between atoms: N1_1  and  C1_2 
REMARK    2  A    between atoms: C2_5  and  C3_6 
ROOT
HETATM    1  C3  LIG X 999      44.338 131.399  17.339  1.00  0.00     0.030 A 
HETATM    2  C4  LIG X 999      43.070 131.832  16.911  1.00  0.00     0.017 A 
HETATM    3  C5  LIG X 999      42.086 132.190  17.829  1.00  0.00     0.002 A 
HETATM    4  C6  LIG X 999      42.341 132.121  19.196  1.00  0.00     0.012 A 
HETATM    5  C7  LIG X 999      43.583 131.668  19.660  1.00  0.00    -0.025 A 
HETATM    6  C8  LIG X 999      43.819 131.579  21.041  1.00  0.00     0.012 A 
HETATM    7  C9  LIG X 999      45.036 131.094  21.518  1.00  0.00     0.001 A 
HETATM    8  C10 LIG X 999      46.022 130.681  20.624  1.00  0.00     0.001 A 
HETATM    9  C11 LIG X 999      45.806 130.766  19.246  1.00  0.00     0.013 A 
HETATM   10  C12 LIG X 999      44.595 131.284  18.735  1.00  0.00    -0.011 A 
ENDROOT
BRANCH   1  11
HETATM   11  C2  LIG X 999      45.356 131.120  16.298  1.00  0.00     0.205 A 
HETATM   12  N3  LIG X 999      45.941 132.073  15.542  1.00  0.00    -0.119 NA
HETATM   13  N2  LIG X 999      46.811 131.455  14.759  1.00  0.00    -0.103 NA
HETATM   14  C1  LIG X 999      46.724 130.151  15.075  1.00  0.00     0.265 A 
HETATM   15  O1  LIG X 999      45.842 129.933  16.018  1.00  0.00    -0.255 OA
BRANCH  14  16
HETATM   16  N1  LIG X 999      47.502 129.131  14.457  1.00  0.00    -0.362 N 
HETATM   17  H1  LIG X 999      47.137 128.155  14.400  1.00  0.00     0.159 HD
HETATM   18  H2  LIG X 999      48.441 129.352  14.058  1.00  0.00     0.159 HD
ENDBRANCH  14  16
ENDBRANCH   1  11
TORSDOF 2
