REMARK VINA RESULT:      -8.7      0.000      0.000
REMARK  4 active torsions:
REMARK  status: ('A' for Active; 'I' for Inactive)
REMARK    1  A    between atoms: C3_3  and  O1_4 
REMARK    2  A    between atoms: O1_4  and  C4_5 
REMARK    3  A    between atoms: C4_5  and  O2_6 
REMARK    4  A    between atoms: C5_8  and  C6_9 
ROOT
HETATM    1  C1  LIG X 999      47.628 131.004  13.001  1.00  0.00     0.014 C 
HETATM    2  C2  LIG X 999      46.990 130.446  13.858  1.00  0.00    -0.091 C 
HETATM    3  C3  LIG X 999      46.215 129.770  14.898  1.00  0.00     0.270 C 
ENDROOT
BRANCH   3   4
HETATM    4  O1  LIG X 999      45.779 130.727  15.853  1.00  0.00    -0.319 OA
BRANCH   4   5
HETATM    5  C4  LIG X 999      44.529 131.349  15.773  1.00  0.00     0.179 C 
HETATM    6  C5  LIG X 999      43.869 131.686  16.890  1.00  0.00     0.075 C 
BRANCH   5   7
HETATM    7  O2  LIG X 999      43.978 131.637  14.523  1.00  0.00    -0.341 OA
HETATM    8  H4  LIG X 999      44.476 132.179  13.827  1.00  0.00     0.220 HD
ENDBRANCH   5   7
BRANCH   6   9
HETATM    9  C6  LIG X 999      44.382 131.402  18.253  1.00  0.00    -0.021 A 
HETATM   10  C7  LIG X 999      45.604 130.721  18.398  1.00  0.00     0.012 A 
HETATM   11  C8  LIG X 999      46.096 130.395  19.662  1.00  0.00     0.002 A 
HETATM   12  C9  LIG X 999      45.372 130.728  20.805  1.00  0.00     0.012 A 
HETATM   13  C10 LIG X 999      44.146 131.395  20.695  1.00  0.00    -0.025 A 
HETATM   14  C11 LIG X 999      43.421 131.725  21.852  1.00  0.00     0.012 A 
HETATM   15  C15 LIG X 999      43.635 131.740  19.413  1.00  0.00    -0.015 A 
HETATM   16  C12 LIG X 999      42.205 132.400  21.752  1.00  0.00     0.001 A 
HETATM   17  C13 LIG X 999      41.701 132.753  20.500  1.00  0.00     0.001 A 
HETATM   18  C14 LIG X 999      42.407 132.432  19.339  1.00  0.00     0.013 A 
ENDBRANCH   6   9
ENDBRANCH   4   5
ENDBRANCH   3   4
TORSDOF 4
