REMARK VINA RESULT:      -6.9      2.282      5.474
REMARK  1 active torsions:
REMARK  status: ('A' for Active; 'I' for Inactive)
REMARK    1  A    between atoms: N1_2  and  C1_3 
ROOT
HETATM    1  C1  LIG X 999      42.602 131.974  19.039  1.00  0.00     0.120 C 
HETATM    2  C2  LIG X 999      43.840 131.544  19.515  1.00  0.00     0.057 C 
HETATM    3  C3  LIG X 999      44.875 131.231  18.621  1.00  0.00    -0.045 C 
HETATM    4  C4  LIG X 999      46.251 131.081  19.225  1.00  0.00     0.049 C 
HETATM    5  C5  LIG X 999      44.606 131.215  17.216  1.00  0.00     0.008 C 
HETATM    6  C6  LIG X 999      45.493 130.709  16.208  1.00  0.00    -0.013 C 
HETATM    7  C7  LIG X 999      46.554 129.814  16.482  1.00  0.00     0.013 C 
HETATM    8  C8  LIG X 999      47.426 129.397  15.474  1.00  0.00     0.001 C 
HETATM    9  C9  LIG X 999      47.235 129.817  14.161  1.00  0.00     0.001 C 
HETATM   10  C10 LIG X 999      46.138 130.612  13.840  1.00  0.00     0.012 C 
HETATM   11  C11 LIG X 999      45.245 131.027  14.842  1.00  0.00    -0.025 C 
HETATM   12  C12 LIG X 999      44.081 131.706  14.478  1.00  0.00     0.014 C 
HETATM   13  C13 LIG X 999      43.129 132.029  15.435  1.00  0.00     0.031 C 
HETATM   14  C14 LIG X 999      43.368 131.784  16.793  1.00  0.00     0.045 C 
HETATM   15  N2  LIG X 999      42.408 132.120  17.703  1.00  0.00    -0.341 N 
HETATM   16  H12 LIG X 999      41.492 132.500  17.371  1.00  0.00     0.167 HD
ENDROOT
BRANCH   1  17
HETATM   17  N1  LIG X 999      41.647 132.276  19.862  1.00  0.00    -0.284 NA
HETATM   18  H1  LIG X 999      40.657 131.975  19.712  1.00  0.00     0.188 HD
ENDBRANCH   1  17
TORSDOF 1
