REMARK VINA RESULT:      -5.8      4.565      7.065
REMARK  3 active torsions:
REMARK  status: ('A' for Active; 'I' for Inactive)
REMARK    1  A    between atoms: C3_3  and  S1_4 
REMARK    2  A    between atoms: S1_4  and  C4_7 
REMARK    3  A    between atoms: C17_20  and  N1_21 
ROOT
HETATM    1  C1  LIG X 999      48.357 129.550  13.331  1.00  0.00     0.013 C 
HETATM    2  C2  LIG X 999      47.573 129.704  14.233  1.00  0.00    -0.102 C 
HETATM    3  C3  LIG X 999      46.621 129.895  15.330  1.00  0.00     0.238 C 
ENDROOT
BRANCH   3   4
HETATM    4  S1  LIG X 999      45.697 131.402  15.080  1.00  0.00     0.186 S 
HETATM    5  O1  LIG X 999      46.653 132.557  15.197  1.00  0.00    -0.222 OA
HETATM    6  O2  LIG X 999      45.107 131.424  13.698  1.00  0.00    -0.222 OA
BRANCH   4   7
HETATM    7  C4  LIG X 999      44.408 131.550  16.296  1.00  0.00     0.071 C 
HETATM    8  C5  LIG X 999      43.154 131.999  15.864  1.00  0.00     0.024 C 
HETATM    9  C6  LIG X 999      42.095 132.110  16.754  1.00  0.00     0.002 C 
HETATM   10  C7  LIG X 999      42.284 131.849  18.107  1.00  0.00     0.013 C 
HETATM   11  C8  LIG X 999      43.556 131.510  18.615  1.00  0.00    -0.011 C 
HETATM   12  C9  LIG X 999      44.601 131.249  17.675  1.00  0.00    -0.003 C 
HETATM   13  C13 LIG X 999      43.795 131.314  20.017  1.00  0.00     0.008 C 
HETATM   14  C10 LIG X 999      45.786 130.646  18.130  1.00  0.00     0.016 C 
HETATM   15  C11 LIG X 999      45.930 130.268  19.456  1.00  0.00     0.031 C 
HETATM   16  C12 LIG X 999      44.954 130.586  20.403  1.00  0.00     0.045 C 
HETATM   17  N4  LIG X 999      45.140 130.208  21.702  1.00  0.00    -0.338 N 
HETATM   18  C17 LIG X 999      44.260 130.550  22.682  1.00  0.00     0.165 C 
HETATM   19  H13 LIG X 999      45.982 129.641  21.950  1.00  0.00     0.167 HD
HETATM   20  C16 LIG X 999      43.185 131.380  22.382  1.00  0.00     0.061 C 
HETATM   21  C14 LIG X 999      42.976 131.830  21.071  1.00  0.00    -0.045 C 
HETATM   22  C15 LIG X 999      41.989 132.960  20.906  1.00  0.00     0.049 C 
BRANCH  18  23
HETATM   23  N1  LIG X 999      44.451 130.127  24.038  1.00  0.00    -0.054 NA
HETATM   24  N2  LIG X 999      44.726 128.963  24.330  1.00  0.00    -0.160 NA
HETATM   25  N3  LIG X 999      45.000 127.801  24.624  1.00  0.00     0.068 N 
ENDBRANCH  18  23
ENDBRANCH   4   7
ENDBRANCH   3   4
TORSDOF 3
