REMARK VINA RESULT:      -7.0      1.700      6.266
REMARK  1 active torsions:
REMARK  status: ('A' for Active; 'I' for Inactive)
REMARK    1  A    between atoms: C11_13  and  N2_14 
ROOT
HETATM    1  N2  LIG X 999      41.854 132.865  20.548  1.00  0.00    -0.053 NA
HETATM    2  N3  LIG X 999      41.938 132.559  21.738  1.00  0.00    -0.160 NA
HETATM    3  N4  LIG X 999      42.013 132.262  22.929  1.00  0.00     0.068 N 
ENDROOT
BRANCH   1   4
HETATM    4  C11 LIG X 999      42.719 132.318  19.545  1.00  0.00     0.175 A 
HETATM    5  C10 LIG X 999      43.950 131.680  19.736  1.00  0.00     0.026 A 
HETATM    6  C5  LIG X 999      44.364 131.352  18.486  1.00  0.00     0.017 A 
HETATM    7  C9  LIG X 999      44.745 131.354  20.842  1.00  0.00     0.016 A 
HETATM    8  C4  LIG X 999      43.445 131.762  17.582  1.00  0.00     0.046 A 
HETATM    9  C6  LIG X 999      45.541 130.701  18.192  1.00  0.00     0.005 A 
HETATM   10  C3  LIG X 999      43.648 131.529  16.141  1.00  0.00     0.033 A 
HETATM   11  N5  LIG X 999      42.417 132.363  18.218  1.00  0.00    -0.337 N 
HETATM   12  C2  LIG X 999      44.777 130.895  15.747  1.00  0.00     0.034 A 
HETATM   13  C1  LIG X 999      45.800 130.438  16.751  1.00  0.00     0.059 A 
HETATM   14  N1  LIG X 999      46.880 129.831  16.374  1.00  0.00    -0.300 NA
HETATM   15  H1  LIG X 999      47.079 129.638  15.366  1.00  0.00     0.187 HD
HETATM   16  H7  LIG X 999      41.566 132.778  17.781  1.00  0.00     0.167 HD
HETATM   17  C7  LIG X 999      46.371 130.354  19.277  1.00  0.00     0.015 A 
HETATM   18  C8  LIG X 999      45.968 130.682  20.600  1.00  0.00     0.002 A 
ENDBRANCH   1   4
TORSDOF 1
