REMARK VINA RESULT:      -6.3      3.271      5.879
REMARK  4 active torsions:
REMARK  status: ('A' for Active; 'I' for Inactive)
REMARK    1  A    between atoms: C3_4  and  O1_5 
REMARK    2  A    between atoms: C3_4  and  O2_6 
REMARK    3  A    between atoms: O2_6  and  C4_7 
REMARK    4  A    between atoms: C7_10  and  N2_11 
ROOT
HETATM    1  C4  LIG X 999      43.957 131.400  21.129  1.00  0.00     0.091 A 
HETATM    2  C5  LIG X 999      42.732 132.035  21.376  1.00  0.00     0.040 A 
HETATM    3  C6  LIG X 999      41.947 132.497  20.324  1.00  0.00     0.033 A 
HETATM    4  C7  LIG X 999      42.364 132.355  18.994  1.00  0.00     0.037 A 
HETATM    5  C8  LIG X 999      43.603 131.715  18.717  1.00  0.00     0.003 A 
HETATM    6  C9  LIG X 999      44.066 131.509  17.398  1.00  0.00     0.014 A 
HETATM    7  C10 LIG X 999      45.293 130.886  17.161  1.00  0.00     0.001 A 
HETATM    8  C11 LIG X 999      46.078 130.452  18.226  1.00  0.00     0.001 A 
HETATM    9  C12 LIG X 999      45.639 130.627  19.536  1.00  0.00     0.015 A 
HETATM   10  C13 LIG X 999      44.405 131.251  19.801  1.00  0.00     0.010 A 
ENDROOT
BRANCH   1  11
HETATM   11  O2  LIG X 999      44.763 130.948  22.187  1.00  0.00    -0.273 OA
BRANCH  11  12
HETATM   12  C3  LIG X 999      44.294 130.305  23.343  1.00  0.00     0.265 C 
HETATM   13  N1  LIG X 999      44.395 129.000  23.442  1.00  0.00    -0.350 N 
HETATM   14  C1  LIG X 999      45.019 128.240  22.348  1.00  0.00     0.153 C 
HETATM   15  C2  LIG X 999      43.903 128.280  24.624  1.00  0.00     0.153 C 
BRANCH  12  16
HETATM   16  O1  LIG X 999      43.690 131.074  24.347  1.00  0.00    -0.327 OA
HETATM   17  H7  LIG X 999      44.167 131.401  25.177  1.00  0.00     0.221 HD
ENDBRANCH  12  16
ENDBRANCH  11  12
ENDBRANCH   1  11
BRANCH   4  18
HETATM   18  N2  LIG X 999      41.517 132.887  17.962  1.00  0.00    -0.398 N 
HETATM   19  H10 LIG X 999      41.004 133.788  18.047  1.00  0.00     0.156 HD
HETATM   20  H11 LIG X 999      41.314 132.320  17.108  1.00  0.00     0.156 HD
ENDBRANCH   4  18
TORSDOF 4
