REMARK VINA RESULT:      -4.7      4.640      6.643
REMARK  4 active torsions:
REMARK  status: ('A' for Active; 'I' for Inactive)
REMARK    1  A    between atoms: C5_5  and  C6_6 
REMARK    2  A    between atoms: C7_7  and  C8_8 
REMARK    3  A    between atoms: C11_13  and  C12_14 
REMARK    4  A    between atoms: C13_17  and  N3_18 
ROOT
HETATM    1  N3  LIG X 999      45.688 130.846  20.521  1.00  0.00    -0.023 NA
HETATM    2  N4  LIG X 999      45.046 131.287  19.567  1.00  0.00    -0.158 NA
HETATM    3  N5  LIG X 999      44.405 131.727  18.614  1.00  0.00     0.068 N 
ENDROOT
BRANCH   1   4
HETATM    4  C13 LIG X 999      45.036 130.132  21.570  1.00  0.00     0.326 A 
HETATM    5  N2  LIG X 999      44.292 130.723  22.520  1.00  0.00    -0.099 NA
HETATM    6  N1  LIG X 999      43.862 129.745  23.301  1.00  0.00    -0.124 NA
HETATM    7  C12 LIG X 999      44.367 128.598  22.799  1.00  0.00     0.184 A 
HETATM    8  O3  LIG X 999      45.087 128.832  21.725  1.00  0.00    -0.255 OA
BRANCH   7   9
HETATM    9  C11 LIG X 999      44.094 127.220  23.372  1.00  0.00     0.054 C 
HETATM   10  C3  LIG X 999      44.356 126.110  22.294  1.00  0.00     0.030 C 
HETATM   11  C2  LIG X 999      43.726 124.793  22.696  1.00  0.00    -0.021 C 
HETATM   12  C4  LIG X 999      45.859 125.943  21.982  1.00  0.00     0.027 C 
HETATM   13  C1  LIG X 999      42.569 124.773  23.365  1.00  0.00    -0.004 C 
HETATM   14  C15 LIG X 999      41.957 126.027  23.837  1.00  0.00    -0.003 C 
HETATM   15  C14 LIG X 999      42.637 127.178  23.802  1.00  0.00    -0.008 C 
HETATM   16  C5  LIG X 999      46.687 125.701  23.256  1.00  0.00     0.066 C 
HETATM   17  C9  LIG X 999      46.467 126.834  24.269  1.00  0.00     0.019 C 
HETATM   18  C10 LIG X 999      44.980 126.966  24.624  1.00  0.00     0.024 C 
BRANCH  16  19
HETATM   19  C6  LIG X 999      48.114 125.604  22.915  1.00  0.00    -0.090 C 
HETATM   20  C7  LIG X 999      49.284 125.526  22.636  1.00  0.00     0.005 C 
BRANCH  20  21
HETATM   21  C8  LIG X 999      50.677 125.433  22.304  1.00  0.00     0.258 C 
HETATM   22  O1  LIG X 999      51.509 126.193  22.863  1.00  0.00    -0.637 OA
HETATM   23  O2  LIG X 999      51.106 124.504  21.367  1.00  0.00    -0.637 OA
ENDBRANCH  20  21
ENDBRANCH  16  19
ENDBRANCH   7   9
ENDBRANCH   1   4
TORSDOF 4
