REMARK VINA RESULT:      -8.3      1.261      1.943
REMARK  3 active torsions:
REMARK  status: ('A' for Active; 'I' for Inactive)
REMARK    1  A    between atoms: C3_3  and  O1_4 
REMARK    2  A    between atoms: O1_4  and  C4_5 
REMARK    3  A    between atoms: C5_7  and  C6_8 
ROOT
HETATM    1  C1  LIG X 999      44.692 128.893  22.670  1.00  0.00     0.014 C 
HETATM    2  C2  LIG X 999      44.240 130.002  22.536  1.00  0.00    -0.091 C 
HETATM    3  C3  LIG X 999      43.691 131.350  22.375  1.00  0.00     0.270 C 
ENDROOT
BRANCH   3   4
HETATM    4  O1  LIG X 999      43.828 131.749  21.017  1.00  0.00    -0.317 OA
BRANCH   4   5
HETATM    5  C4  LIG X 999      42.752 132.229  20.266  1.00  0.00     0.217 C 
HETATM    6  O2  LIG X 999      41.651 132.789  20.908  1.00  0.00    -0.164 OA
HETATM    7  C5  LIG X 999      42.773 132.189  18.929  1.00  0.00     0.078 C 
BRANCH   7   8
HETATM    8  C6  LIG X 999      43.881 131.619  18.129  1.00  0.00    -0.031 A 
HETATM    9  C7  LIG X 999      44.936 130.904  18.725  1.00  0.00     0.012 A 
HETATM   10  C8  LIG X 999      45.956 130.359  17.942  1.00  0.00     0.013 A 
HETATM   11  C9  LIG X 999      45.932 130.504  16.548  1.00  0.00    -0.026 A 
HETATM   12  C10 LIG X 999      46.952 129.960  15.753  1.00  0.00     0.012 A 
HETATM   13  C14 LIG X 999      44.860 131.199  15.937  1.00  0.00    -0.025 A 
HETATM   14  C11 LIG X 999      46.910 130.106  14.363  1.00  0.00     0.001 A 
HETATM   15  C12 LIG X 999      45.854 130.792  13.758  1.00  0.00     0.001 A 
HETATM   16  C13 LIG X 999      44.831 131.337  14.540  1.00  0.00     0.012 A 
HETATM   17  C15 LIG X 999      43.840 131.743  16.732  1.00  0.00     0.024 A 
ENDBRANCH   7   8
ENDBRANCH   4   5
ENDBRANCH   3   4
TORSDOF 3
