REMARK VINA RESULT:      -3.8      5.338      7.721
REMARK  2 active torsions:
REMARK  status: ('A' for Active; 'I' for Inactive)
REMARK       I    between atoms: N1_1  and  C1_2 
REMARK    1  A    between atoms: C1_2  and  C2_4 
REMARK    2  A    between atoms: C11_13  and  O2_14 
ROOT
HETATM    1  C2  LIG X 999      43.392 130.512  22.813  1.00  0.00     0.116 C 
HETATM    2  C3  LIG X 999      44.250 129.513  23.628  1.00  0.00     0.017 C 
HETATM    3  C4  LIG X 999      44.860 128.417  22.739  1.00  0.00     0.002 C 
HETATM    4  C5  LIG X 999      45.650 129.011  21.561  1.00  0.00     0.012 C 
HETATM    5  C6  LIG X 999      44.753 129.964  20.760  1.00  0.00     0.047 C 
HETATM    6  C7  LIG X 999      45.420 130.505  19.519  1.00  0.00    -0.019 C 
HETATM    7  C8  LIG X 999      44.890 131.569  18.903  1.00  0.00    -0.004 C 
HETATM    8  C9  LIG X 999      43.750 132.292  19.510  1.00  0.00    -0.001 C 
HETATM    9  C10 LIG X 999      43.391 132.058  20.783  1.00  0.00     0.012 C 
HETATM   10  C11 LIG X 999      44.227 131.128  21.654  1.00  0.00     0.095 C 
ENDROOT
BRANCH   1  11
HETATM   11  C1  LIG X 999      42.821 131.569  23.731  1.00  0.00     0.222 C 
HETATM   12  N1  LIG X 999      43.675 132.293  24.619  1.00  0.00    -0.370 N 
HETATM   13  H1  LIG X 999      44.701 132.103  24.652  1.00  0.00     0.159 HD
HETATM   14  H2  LIG X 999      43.277 133.020  25.254  1.00  0.00     0.159 HD
HETATM   15  O1  LIG X 999      41.584 131.811  23.729  1.00  0.00    -0.273 OA
ENDBRANCH   1  11
BRANCH  10  16
HETATM   16  O2  LIG X 999      45.303 131.854  22.213  1.00  0.00    -0.384 OA
HETATM   17  H15 LIG X 999      45.780 131.275  22.862  1.00  0.00     0.211 HD
ENDBRANCH  10  16
TORSDOF 2
