MODEL 1
REMARK VINA RESULT:      -7.0      0.000      0.000
REMARK  4 active torsions:
REMARK  status: ('A' for Active; 'I' for Inactive)
REMARK    1  A    between atoms: O1_2  and  C1_3 
REMARK    2  A    between atoms: C1_3  and  O2_4 
REMARK    3  A    between atoms: O2_4  and  C2_5 
REMARK    4  A    between atoms: C5_8  and  N1_9 
ROOT
HETATM    1  N1  LIG X 999      44.965 130.815  22.258  1.00  0.00    -0.205 NA
HETATM    2  C6  LIG X 999      44.556 129.809  22.923  1.00  0.00     0.337 C 
HETATM    3  O3  LIG X 999      44.158 128.831  23.569  1.00  0.00    -0.260 OA
ENDROOT
BRANCH   1   4
HETATM    4  C5  LIG X 999      44.833 130.953  20.831  1.00  0.00     0.072 A 
HETATM    5  C4  LIG X 999      45.818 130.456  19.957  1.00  0.00     0.035 A 
HETATM    6  C3  LIG X 999      45.682 130.593  18.577  1.00  0.00     0.040 A 
HETATM    7  C2  LIG X 999      44.554 131.219  18.026  1.00  0.00     0.091 A 
HETATM    8  C12 LIG X 999      43.565 131.742  18.884  1.00  0.00     0.010 A 
HETATM    9  C7  LIG X 999      43.701 131.605  20.292  1.00  0.00     0.006 A 
HETATM   10  C11 LIG X 999      42.434 132.396  18.358  1.00  0.00     0.015 A 
HETATM   11  C8  LIG X 999      42.695 132.129  21.132  1.00  0.00     0.014 A 
HETATM   12  C9  LIG X 999      41.584 132.774  20.589  1.00  0.00     0.001 A 
HETATM   13  C10 LIG X 999      41.454 132.907  19.207  1.00  0.00     0.001 A 
BRANCH   7  14
HETATM   14  O2  LIG X 999      44.421 131.373  16.637  1.00  0.00    -0.273 OA
BRANCH  14  15
HETATM   15  C1  LIG X 999      45.486 131.550  15.739  1.00  0.00     0.265 C 
HETATM   16  N2  LIG X 999      45.960 130.525  15.080  1.00  0.00    -0.350 N 
HETATM   17  C13 LIG X 999      45.361 129.196  15.261  1.00  0.00     0.153 C 
HETATM   18  C14 LIG X 999      47.089 130.702  14.155  1.00  0.00     0.153 C 
BRANCH  15  19
HETATM   19  O1  LIG X 999      46.070 132.811  15.583  1.00  0.00    -0.327 OA
HETATM   20  H1  LIG X 999      47.034 132.989  15.839  1.00  0.00     0.221 HD
ENDBRANCH  15  19
ENDBRANCH  14  15
ENDBRANCH   7  14
ENDBRANCH   1   4
TORSDOF 4
ENDMDL
MODEL 2
REMARK VINA RESULT:      -6.1      1.475      5.989
REMARK  4 active torsions:
REMARK  status: ('A' for Active; 'I' for Inactive)
REMARK    1  A    between atoms: O1_2  and  C1_3 
REMARK    2  A    between atoms: C1_3  and  O2_4 
REMARK    3  A    between atoms: O2_4  and  C2_5 
REMARK    4  A    between atoms: C5_8  and  N1_9 
ROOT
HETATM    1  N1  LIG X 999      44.524 131.754  16.909  1.00  0.00    -0.205 NA
HETATM    2  C6  LIG X 999      45.478 131.724  16.067  1.00  0.00     0.337 C 
HETATM    3  O3  LIG X 999      46.406 131.697  15.248  1.00  0.00    -0.260 OA
ENDROOT
BRANCH   1   4
HETATM    4  C5  LIG X 999      44.655 131.390  18.297  1.00  0.00     0.072 A 
HETATM    5  C4  LIG X 999      45.742 130.618  18.747  1.00  0.00     0.035 A 
HETATM    6  C3  LIG X 999      45.861 130.271  20.091  1.00  0.00     0.040 A 
HETATM    7  C2  LIG X 999      44.908 130.694  21.029  1.00  0.00     0.091 A 
HETATM    8  C12 LIG X 999      43.801 131.450  20.596  1.00  0.00     0.010 A 
HETATM    9  C7  LIG X 999      43.674 131.806  19.225  1.00  0.00     0.006 A 
HETATM   10  C11 LIG X 999      42.817 131.868  21.513  1.00  0.00     0.015 A 
HETATM   11  C8  LIG X 999      42.562 132.571  18.815  1.00  0.00     0.014 A 
HETATM   12  C9  LIG X 999      41.599 132.973  19.740  1.00  0.00     0.001 A 
HETATM   13  C10 LIG X 999      41.725 132.622  21.084  1.00  0.00     0.001 A 
BRANCH   7  14
HETATM   14  O2  LIG X 999      45.017 130.332  22.381  1.00  0.00    -0.273 OA
BRANCH  14  15
HETATM   15  C1  LIG X 999      44.601 129.106  22.925  1.00  0.00     0.265 C 
HETATM   16  N2  LIG X 999      43.859 129.090  24.002  1.00  0.00    -0.350 N 
HETATM   17  C13 LIG X 999      43.441 130.354  24.624  1.00  0.00     0.153 C 
HETATM   18  C14 LIG X 999      43.438 127.810  24.587  1.00  0.00     0.153 C 
BRANCH  15  19
HETATM   19  O1  LIG X 999      45.016 127.904  22.345  1.00  0.00    -0.327 OA
HETATM   20  H1  LIG X 999      45.834 127.406  22.674  1.00  0.00     0.221 HD
ENDBRANCH  15  19
ENDBRANCH  14  15
ENDBRANCH   7  14
ENDBRANCH   1   4
TORSDOF 4
ENDMDL
MODEL 3
REMARK VINA RESULT:      -6.0      2.143      3.354
REMARK  4 active torsions:
REMARK  status: ('A' for Active; 'I' for Inactive)
REMARK    1  A    between atoms: O1_2  and  C1_3 
REMARK    2  A    between atoms: C1_3  and  O2_4 
REMARK    3  A    between atoms: O2_4  and  C2_5 
REMARK    4  A    between atoms: C5_8  and  N1_9 
ROOT
HETATM    1  N1  LIG X 999      41.427 132.233  19.071  1.00  0.00    -0.205 NA
HETATM    2  C6  LIG X 999      41.385 133.004  20.083  1.00  0.00     0.337 C 
HETATM    3  O3  LIG X 999      41.344 133.754  21.067  1.00  0.00    -0.260 OA
ENDROOT
BRANCH   1   4
HETATM    4  C5  LIG X 999      42.636 131.869  18.377  1.00  0.00     0.072 A 
HETATM    5  C4  LIG X 999      42.696 131.870  16.971  1.00  0.00     0.035 A 
HETATM    6  C3  LIG X 999      43.870 131.517  16.308  1.00  0.00     0.040 A 
HETATM    7  C2  LIG X 999      45.022 131.165  17.027  1.00  0.00     0.091 A 
HETATM    8  C12 LIG X 999      44.977 131.137  18.435  1.00  0.00     0.010 A 
HETATM    9  C7  LIG X 999      43.781 131.495  19.116  1.00  0.00     0.006 A 
HETATM   10  C11 LIG X 999      46.112 130.764  19.180  1.00  0.00     0.015 A 
HETATM   11  C8  LIG X 999      43.761 131.468  20.526  1.00  0.00     0.014 A 
HETATM   12  C9  LIG X 999      44.897 131.095  21.244  1.00  0.00     0.001 A 
HETATM   13  C10 LIG X 999      46.068 130.744  20.574  1.00  0.00     0.001 A 
BRANCH   7  14
HETATM   14  O2  LIG X 999      46.201 130.793  16.361  1.00  0.00    -0.273 OA
BRANCH  14  15
HETATM   15  C1  LIG X 999      46.643 131.329  15.141  1.00  0.00     0.265 C 
HETATM   16  N2  LIG X 999      47.200 130.550  14.251  1.00  0.00    -0.350 N 
HETATM   17  C13 LIG X 999      47.340 129.112  14.519  1.00  0.00     0.153 C 
HETATM   18  C14 LIG X 999      47.683 131.110  12.981  1.00  0.00     0.153 C 
BRANCH  15  19
HETATM   19  O1  LIG X 999      46.529 132.701  14.895  1.00  0.00    -0.327 OA
HETATM   20  H1  LIG X 999      45.629 133.151  14.780  1.00  0.00     0.221 HD
ENDBRANCH  15  19
ENDBRANCH  14  15
ENDBRANCH   7  14
ENDBRANCH   1   4
TORSDOF 4
ENDMDL
MODEL 4
REMARK VINA RESULT:      -5.1      1.934      2.252
REMARK  4 active torsions:
REMARK  status: ('A' for Active; 'I' for Inactive)
REMARK    1  A    between atoms: O1_2  and  C1_3 
REMARK    2  A    between atoms: C1_3  and  O2_4 
REMARK    3  A    between atoms: O2_4  and  C2_5 
REMARK    4  A    between atoms: C5_8  and  N1_9 
ROOT
HETATM    1  N1  LIG X 999      45.712 132.050  21.617  1.00  0.00    -0.205 NA
HETATM    2  C6  LIG X 999      46.593 132.916  21.925  1.00  0.00     0.337 C 
HETATM    3  O3  LIG X 999      47.451 133.757  22.224  1.00  0.00    -0.260 OA
ENDROOT
BRANCH   1   4
HETATM    4  C5  LIG X 999      45.434 131.617  20.272  1.00  0.00     0.072 A 
HETATM    5  C4  LIG X 999      46.402 130.932  19.514  1.00  0.00     0.035 A 
HETATM    6  C3  LIG X 999      46.126 130.516  18.214  1.00  0.00     0.040 A 
HETATM    7  C2  LIG X 999      44.872 130.758  17.634  1.00  0.00     0.091 A 
HETATM    8  C12 LIG X 999      43.895 131.461  18.368  1.00  0.00     0.010 A 
HETATM    9  C7  LIG X 999      44.173 131.888  19.695  1.00  0.00     0.006 A 
HETATM   10  C11 LIG X 999      42.636 131.739  17.801  1.00  0.00     0.015 A 
HETATM   11  C8  LIG X 999      43.178 132.583  20.414  1.00  0.00     0.014 A 
HETATM   12  C9  LIG X 999      41.938 132.848  19.833  1.00  0.00     0.001 A 
HETATM   13  C10 LIG X 999      41.668 132.428  18.531  1.00  0.00     0.001 A 
BRANCH   7  14
HETATM   14  O2  LIG X 999      44.595 130.354  16.318  1.00  0.00    -0.273 OA
BRANCH  14  15
HETATM   15  C1  LIG X 999      45.497 129.687  15.472  1.00  0.00     0.265 C 
HETATM   16  N2  LIG X 999      46.349 130.375  14.757  1.00  0.00    -0.350 N 
HETATM   17  C13 LIG X 999      46.380 131.840  14.860  1.00  0.00     0.153 C 
HETATM   18  C14 LIG X 999      47.280 129.683  13.855  1.00  0.00     0.153 C 
BRANCH  15  19
HETATM   19  O1  LIG X 999      45.453 128.295  15.358  1.00  0.00    -0.327 OA
HETATM   20  H1  LIG X 999      46.277 127.721  15.495  1.00  0.00     0.221 HD
ENDBRANCH  15  19
ENDBRANCH  14  15
ENDBRANCH   7  14
ENDBRANCH   1   4
TORSDOF 4
ENDMDL
MODEL 5
REMARK VINA RESULT:      -4.5      2.837      6.425
REMARK  4 active torsions:
REMARK  status: ('A' for Active; 'I' for Inactive)
REMARK    1  A    between atoms: O1_2  and  C1_3 
REMARK    2  A    between atoms: C1_3  and  O2_4 
REMARK    3  A    between atoms: O2_4  and  C2_5 
REMARK    4  A    between atoms: C5_8  and  N1_9 
ROOT
HETATM    1  N1  LIG X 999      44.739 131.913  20.017  1.00  0.00    -0.205 NA
HETATM    2  C6  LIG X 999      44.571 131.827  18.758  1.00  0.00     0.337 C 
HETATM    3  O3  LIG X 999      44.408 131.744  17.533  1.00  0.00    -0.260 OA
ENDROOT
BRANCH   1   4
HETATM    4  C5  LIG X 999      44.790 130.783  20.908  1.00  0.00     0.072 A 
HETATM    5  C4  LIG X 999      45.637 129.689  20.647  1.00  0.00     0.035 A 
HETATM    6  C3  LIG X 999      45.681 128.599  21.514  1.00  0.00     0.040 A 
HETATM    7  C2  LIG X 999      44.893 128.573  22.674  1.00  0.00     0.091 A 
HETATM    8  C12 LIG X 999      44.023 129.648  22.943  1.00  0.00     0.010 A 
HETATM    9  C7  LIG X 999      43.974 130.762  22.061  1.00  0.00     0.006 A 
HETATM   10  C11 LIG X 999      43.203 129.636  24.088  1.00  0.00     0.015 A 
HETATM   11  C8  LIG X 999      43.102 131.831  22.354  1.00  0.00     0.014 A 
HETATM   12  C9  LIG X 999      42.298 131.798  23.494  1.00  0.00     0.001 A 
HETATM   13  C10 LIG X 999      42.348 130.705  24.357  1.00  0.00     0.001 A 
BRANCH   7  14
HETATM   14  O2  LIG X 999      44.923 127.469  23.541  1.00  0.00    -0.273 OA
BRANCH  14  15
HETATM   15  C1  LIG X 999      44.360 126.212  23.268  1.00  0.00     0.265 C 
HETATM   16  N2  LIG X 999      45.138 125.186  23.036  1.00  0.00    -0.350 N 
HETATM   17  C13 LIG X 999      46.598 125.346  23.087  1.00  0.00     0.153 C 
HETATM   18  C14 LIG X 999      44.554 123.874  22.729  1.00  0.00     0.153 C 
BRANCH  15  19
HETATM   19  O1  LIG X 999      42.971 126.064  23.199  1.00  0.00    -0.327 OA
HETATM   20  H1  LIG X 999      42.376 126.785  22.810  1.00  0.00     0.221 HD
ENDBRANCH  15  19
ENDBRANCH  14  15
ENDBRANCH   7  14
ENDBRANCH   1   4
TORSDOF 4
ENDMDL
MODEL 6
REMARK VINA RESULT:      -4.2      1.814      5.799
REMARK  4 active torsions:
REMARK  status: ('A' for Active; 'I' for Inactive)
REMARK    1  A    between atoms: O1_2  and  C1_3 
REMARK    2  A    between atoms: C1_3  and  O2_4 
REMARK    3  A    between atoms: O2_4  and  C2_5 
REMARK    4  A    between atoms: C5_8  and  N1_9 
ROOT
HETATM    1  N1  LIG X 999      44.945 131.289  16.024  1.00  0.00    -0.205 NA
HETATM    2  C6  LIG X 999      45.678 130.644  15.206  1.00  0.00     0.337 C 
HETATM    3  O3  LIG X 999      46.391 130.018  14.412  1.00  0.00    -0.260 OA
ENDROOT
BRANCH   1   4
HETATM    4  C5  LIG X 999      44.945 131.084  17.450  1.00  0.00     0.072 A 
HETATM    5  C4  LIG X 999      46.016 130.434  18.091  1.00  0.00     0.035 A 
HETATM    6  C3  LIG X 999      46.009 130.241  19.470  1.00  0.00     0.040 A 
HETATM    7  C2  LIG X 999      44.942 130.702  20.254  1.00  0.00     0.091 A 
HETATM    8  C12 LIG X 999      43.850 131.338  19.630  1.00  0.00     0.010 A 
HETATM    9  C7  LIG X 999      43.852 131.536  18.223  1.00  0.00     0.006 A 
HETATM   10  C11 LIG X 999      42.754 131.789  20.391  1.00  0.00     0.015 A 
HETATM   11  C8  LIG X 999      42.753 132.182  17.620  1.00  0.00     0.014 A 
HETATM   12  C9  LIG X 999      41.677 132.621  18.392  1.00  0.00     0.001 A 
HETATM   13  C10 LIG X 999      41.678 132.425  19.773  1.00  0.00     0.001 A 
BRANCH   7  14
HETATM   14  O2  LIG X 999      44.925 130.495  21.643  1.00  0.00    -0.273 OA
BRANCH  14  15
HETATM   15  C1  LIG X 999      44.862 131.511  22.610  1.00  0.00     0.265 C 
HETATM   16  N2  LIG X 999      44.039 131.399  23.621  1.00  0.00    -0.350 N 
HETATM   17  C13 LIG X 999      43.202 130.199  23.755  1.00  0.00     0.153 C 
HETATM   18  C14 LIG X 999      43.954 132.469  24.624  1.00  0.00     0.153 C 
BRANCH  15  19
HETATM   19  O1  LIG X 999      45.644 132.662  22.471  1.00  0.00    -0.327 OA
HETATM   20  H1  LIG X 999      46.196 132.836  21.640  1.00  0.00     0.221 HD
ENDBRANCH  15  19
ENDBRANCH  14  15
ENDBRANCH   7  14
ENDBRANCH   1   4
TORSDOF 4
ENDMDL
