REMARK VINA RESULT:      -5.8      1.797      2.686
REMARK  2 active torsions:
REMARK  status: ('A' for Active; 'I' for Inactive)
REMARK    1  A    between atoms: C3_3  and  S1_4 
REMARK    2  A    between atoms: S1_4  and  C4_5 
ROOT
HETATM    1  C1  LIG X 999      45.000 129.137  15.041  1.00  0.00     0.013 C 
HETATM    2  C2  LIG X 999      45.433 129.731  15.996  1.00  0.00    -0.107 C 
HETATM    3  C3  LIG X 999      45.957 130.452  17.160  1.00  0.00     0.172 C 
ENDROOT
BRANCH   3   4
HETATM    4  S1  LIG X 999      44.843 131.826  17.606  1.00  0.00    -0.118 SA
BRANCH   4   5
HETATM    5  C4  LIG X 999      44.658 131.325  19.321  1.00  0.00     0.002 A 
HETATM    6  C5  LIG X 999      45.553 130.407  19.881  1.00  0.00     0.019 A 
HETATM    7  C6  LIG X 999      45.416 130.012  21.214  1.00  0.00     0.013 A 
HETATM    8  C7  LIG X 999      44.383 130.538  22.002  1.00  0.00    -0.026 A 
HETATM    9  C8  LIG X 999      44.233 130.148  23.342  1.00  0.00     0.012 A 
HETATM   10  C12 LIG X 999      43.478 131.473  21.440  1.00  0.00    -0.025 A 
HETATM   11  C9  LIG X 999      43.198 130.680  24.117  1.00  0.00     0.001 A 
HETATM   12  C10 LIG X 999      42.307 131.602  23.562  1.00  0.00     0.001 A 
HETATM   13  C11 LIG X 999      42.444 132.000  22.228  1.00  0.00     0.012 A 
HETATM   14  C13 LIG X 999      43.628 131.863  20.100  1.00  0.00     0.030 A 
ENDBRANCH   4   5
ENDBRANCH   3   4
TORSDOF 2
