REMARK VINA RESULT:      -5.7      3.675      6.341
REMARK  4 active torsions:
REMARK  status: ('A' for Active; 'I' for Inactive)
REMARK    1  A    between atoms: C3_3  and  O1_4 
REMARK    2  A    between atoms: O1_4  and  C4_5 
REMARK    3  A    between atoms: C13_14  and  C14_15 
REMARK    4  A    between atoms: C14_15  and  O2_16 
ROOT
HETATM    1  C1  LIG X 999      44.781 127.632  22.836  1.00  0.00     0.014 C 
HETATM    2  C2  LIG X 999      44.596 128.593  23.540  1.00  0.00    -0.091 C 
HETATM    3  C3  LIG X 999      44.374 129.760  24.393  1.00  0.00     0.268 C 
ENDROOT
BRANCH   3   4
HETATM    4  O1  LIG X 999      44.695 130.940  23.664  1.00  0.00    -0.339 OA
BRANCH   4   5
HETATM    5  C4  LIG X 999      44.315 131.187  22.334  1.00  0.00     0.079 A 
HETATM    6  C5  LIG X 999      45.163 130.880  21.252  1.00  0.00     0.049 A 
HETATM    7  C6  LIG X 999      44.754 131.122  19.933  1.00  0.00    -0.023 A 
HETATM    8  C7  LIG X 999      45.598 130.816  18.854  1.00  0.00     0.012 A 
HETATM    9  C11 LIG X 999      43.476 131.675  19.686  1.00  0.00    -0.025 A 
HETATM   10  C8  LIG X 999      45.178 131.056  17.544  1.00  0.00     0.001 A 
HETATM   11  C9  LIG X 999      43.915 131.602  17.299  1.00  0.00     0.001 A 
HETATM   12  C10 LIG X 999      43.065 131.911  18.365  1.00  0.00     0.012 A 
HETATM   13  C12 LIG X 999      42.633 131.982  20.761  1.00  0.00     0.024 A 
HETATM   14  C13 LIG X 999      43.049 131.755  22.083  1.00  0.00    -0.001 A 
BRANCH  14  15
HETATM   15  C14 LIG X 999      42.114 132.066  23.221  1.00  0.00     0.205 C 
BRANCH  15  16
HETATM   16  O2  LIG X 999      41.645 130.870  23.777  1.00  0.00    -0.396 OA
HETATM   17  H12 LIG X 999      41.733 130.183  23.067  1.00  0.00     0.209 HD
ENDBRANCH  15  16
ENDBRANCH  14  15
ENDBRANCH   4   5
ENDBRANCH   3   4
TORSDOF 4
