REMARK VINA RESULT:      -8.9      0.626      1.649
REMARK  6 active torsions:
REMARK  status: ('A' for Active; 'I' for Inactive)
REMARK    1  A    between atoms: O1_2  and  C1_3 
REMARK    2  A    between atoms: C1_3  and  C4_6 
REMARK    3  A    between atoms: C4_6  and  O2_7 
REMARK    4  A    between atoms: C4_6  and  O3_9 
REMARK    5  A    between atoms: O3_9  and  C5_10 
REMARK    6  A    between atoms: C10_15  and  N1_16 
ROOT
HETATM    1  N1  LIG X 999      42.776 132.118  23.078  1.00  0.00    -0.073 NA
HETATM    2  N2  LIG X 999      42.667 131.139  23.816  1.00  0.00    -0.162 NA
HETATM    3  N3  LIG X 999      42.559 130.162  24.556  1.00  0.00     0.068 N 
ENDROOT
BRANCH   1   4
HETATM    4  C10 LIG X 999      43.007 131.993  21.667  1.00  0.00     0.094 A 
HETATM    5  C9  LIG X 999      44.188 131.423  21.157  1.00  0.00     0.046 A 
HETATM    6  C8  LIG X 999      44.382 131.316  19.771  1.00  0.00    -0.024 A 
HETATM    7  C7  LIG X 999      45.555 130.748  19.255  1.00  0.00     0.015 A 
HETATM    8  C13 LIG X 999      43.386 131.785  18.884  1.00  0.00    -0.023 A 
HETATM    9  C6  LIG X 999      45.739 130.649  17.874  1.00  0.00     0.038 A 
HETATM   10  C5  LIG X 999      44.763 131.113  16.986  1.00  0.00     0.073 A 
HETATM   11  C14 LIG X 999      43.580 131.679  17.498  1.00  0.00     0.049 A 
HETATM   12  C12 LIG X 999      42.211 132.352  19.401  1.00  0.00     0.014 A 
HETATM   13  C11 LIG X 999      42.027 132.454  20.782  1.00  0.00     0.035 A 
BRANCH  10  14
HETATM   14  O3  LIG X 999      45.011 130.989  15.608  1.00  0.00    -0.314 OA
BRANCH  14  15
HETATM   15  C4  LIG X 999      45.322 129.771  14.926  1.00  0.00     0.321 C 
BRANCH  15  16
HETATM   16  C1  LIG X 999      46.623 129.902  14.176  1.00  0.00     0.094 C 
HETATM   17  C2  LIG X 999      46.842 130.965  13.382  1.00  0.00     0.006 C 
HETATM   18  C3  LIG X 999      48.106 131.161  12.605  1.00  0.00     0.038 C 
BRANCH  16  19
HETATM   19  O1  LIG X 999      47.583 128.900  14.348  1.00  0.00    -0.360 OA
HETATM   20  H1  LIG X 999      47.573 128.025  13.839  1.00  0.00     0.217 HD
ENDBRANCH  16  19
ENDBRANCH  15  16
BRANCH  15  21
HETATM   21  O2  LIG X 999      45.426 128.741  15.873  1.00  0.00    -0.365 OA
HETATM   22  H7  LIG X 999      46.170 128.155  15.577  1.00  0.00     0.213 HD
ENDBRANCH  15  21
ENDBRANCH  14  15
ENDBRANCH  10  14
ENDBRANCH   1   4
TORSDOF 6
