REMARK VINA RESULT:      -5.9      2.284      6.877
REMARK  2 active torsions:
REMARK  status: ('A' for Active; 'I' for Inactive)
REMARK    1  A    between atoms: C2_2  and  N1_3 
REMARK    2  A    between atoms: C3_6  and  O1_7 
ROOT
HETATM    1  N1  LIG X 999      44.049 131.486  23.267  1.00  0.00    -0.070 NA
HETATM    2  N2  LIG X 999      44.214 130.428  23.875  1.00  0.00    -0.162 NA
HETATM    3  N3  LIG X 999      44.379 129.375  24.490  1.00  0.00     0.068 N 
ENDROOT
BRANCH   1   4
HETATM    4  C2  LIG X 999      43.869 131.568  21.842  1.00  0.00     0.127 A 
HETATM    5  C1  LIG X 999      44.902 131.072  21.036  1.00  0.00     0.049 A 
HETATM    6  C11 LIG X 999      44.808 131.114  19.640  1.00  0.00    -0.023 A 
HETATM    7  C6  LIG X 999      43.648 131.664  19.032  1.00  0.00    -0.022 A 
HETATM    8  C10 LIG X 999      45.850 130.611  18.836  1.00  0.00     0.021 A 
HETATM    9  C5  LIG X 999      42.614 132.160  19.835  1.00  0.00     0.051 A 
HETATM   10  C7  LIG X 999      43.547 131.706  17.627  1.00  0.00     0.021 A 
HETATM   11  C3  LIG X 999      42.710 132.118  21.241  1.00  0.00     0.100 A 
HETATM   12  C8  LIG X 999      44.604 131.204  16.865  1.00  0.00    -0.024 A 
HETATM   13  C9  LIG X 999      45.715 130.676  17.448  1.00  0.00    -0.024 A 
HETATM   14  C15 LIG X 999      44.704 131.126  15.391  1.00  0.00     0.276 C 
HETATM   15  C12 LIG X 999      46.662 130.194  16.421  1.00  0.00     0.276 C 
HETATM   16  N4  LIG X 999      46.087 130.630  15.107  1.00  0.00    -0.067 N 
HETATM   17  C13 LIG X 999      46.909 131.721  14.530  1.00  0.00     0.272 C 
HETATM   18  C14 LIG X 999      46.052 129.498  14.153  1.00  0.00     0.272 C 
BRANCH  11  19
HETATM   19  O1  LIG X 999      41.676 132.614  22.054  1.00  0.00    -0.353 OA
HETATM   20  C4  LIG X 999      40.655 133.507  21.620  1.00  0.00     0.210 C 
ENDBRANCH  11  19
ENDBRANCH   1   4
TORSDOF 2
