REMARK VINA RESULT:      -8.2      0.943      1.974
REMARK  2 active torsions:
REMARK  status: ('A' for Active; 'I' for Inactive)
REMARK    1  A    between atoms: C1_1  and  N1_2 
REMARK    2  A    between atoms: C2_5  and  C3_7 
ROOT
HETATM    1  N1  LIG X 999      45.809 131.062  14.000  1.00  0.00    -0.082 NA
HETATM    2  N2  LIG X 999      46.862 131.013  13.364  1.00  0.00    -0.163 NA
HETATM    3  N3  LIG X 999      47.913 130.966  12.728  1.00  0.00     0.068 N 
ENDROOT
BRANCH   1   4
HETATM    4  C1  LIG X 999      45.818 130.982  15.425  1.00  0.00     0.196 C 
HETATM    5  C2  LIG X 999      44.727 131.315  16.126  1.00  0.00     0.137 C 
HETATM    6  O1  LIG X 999      43.600 131.765  15.444  1.00  0.00    -0.190 OA
BRANCH   5   7
HETATM    7  C3  LIG X 999      44.685 131.245  17.610  1.00  0.00     0.003 A 
HETATM    8  C4  LIG X 999      45.768 130.674  18.301  1.00  0.00     0.015 A 
HETATM    9  C5  LIG X 999      45.768 130.598  19.695  1.00  0.00     0.013 A 
HETATM   10  C6  LIG X 999      44.687 131.103  20.429  1.00  0.00    -0.026 A 
HETATM   11  C7  LIG X 999      44.678 131.033  21.831  1.00  0.00     0.012 A 
HETATM   12  C11 LIG X 999      43.596 131.695  19.750  1.00  0.00    -0.025 A 
HETATM   13  C8  LIG X 999      43.597 131.547  22.552  1.00  0.00     0.001 A 
HETATM   14  C9  LIG X 999      42.520 132.134  21.883  1.00  0.00     0.001 A 
HETATM   15  C10 LIG X 999      42.517 132.211  20.487  1.00  0.00     0.012 A 
HETATM   16  C12 LIG X 999      43.603 131.766  18.348  1.00  0.00     0.026 A 
ENDBRANCH   5   7
ENDBRANCH   1   4
TORSDOF 2
