REMARK VINA RESULT:      -8.0      0.000      0.000
REMARK  3 active torsions:
REMARK  status: ('A' for Active; 'I' for Inactive)
REMARK    1  A    between atoms: N1_1  and  C1_2 
REMARK    2  A    between atoms: C1_2  and  C2_3 
REMARK    3  A    between atoms: C2_3  and  C3_5 
ROOT
HETATM    1  C3  LIG X 999      45.913 130.908  15.226  1.00  0.00     0.012 A 
HETATM    2  C4  LIG X 999      44.642 131.345  14.808  1.00  0.00     0.016 A 
HETATM    3  C5  LIG X 999      43.656 131.676  15.740  1.00  0.00     0.013 A 
HETATM    4  C6  LIG X 999      43.919 131.576  17.112  1.00  0.00    -0.026 A 
HETATM    5  C7  LIG X 999      42.934 131.906  18.057  1.00  0.00     0.012 A 
HETATM    6  C8  LIG X 999      43.208 131.800  19.423  1.00  0.00     0.001 A 
HETATM    7  C9  LIG X 999      44.462 131.362  19.856  1.00  0.00     0.001 A 
HETATM    8  C10 LIG X 999      45.452 131.030  18.926  1.00  0.00     0.012 A 
HETATM    9  C11 LIG X 999      45.190 131.134  17.550  1.00  0.00    -0.025 A 
HETATM   10  C12 LIG X 999      46.175 130.803  16.607  1.00  0.00     0.027 A 
ENDROOT
BRANCH   1  11
HETATM   11  C2  LIG X 999      46.946 130.560  14.213  1.00  0.00     0.187 C 
HETATM   12  O1  LIG X 999      47.240 131.398  13.317  1.00  0.00    -0.290 OA
BRANCH  11  13
HETATM   13  C1  LIG X 999      47.626 129.213  14.209  1.00  0.00     0.350 C 
BRANCH  13  14
HETATM   14  N1  LIG X 999      48.785 129.210  13.321  1.00  0.00     0.085 N 
HETATM   15  H1  LIG X 999      48.736 128.345  12.736  1.00  0.00     0.313 HD
HETATM   16  H2  LIG X 999      49.647 129.122  13.908  1.00  0.00     0.313 HD
ENDBRANCH  13  14
ENDBRANCH  11  13
ENDBRANCH   1  11
TORSDOF 3
