REMARK VINA RESULT:      -6.5      0.000      0.000
REMARK  4 active torsions:
REMARK  status: ('A' for Active; 'I' for Inactive)
REMARK    1  A    between atoms: C4_4  and  N1_5 
REMARK    2  A    between atoms: C7_10  and  S1_11 
REMARK    3  A    between atoms: S1_11  and  C8_12 
REMARK    4  A    between atoms: C8_12  and  C9_13 
ROOT
HETATM    1  N1  LIG X 999      41.455 128.021  24.506  1.00  0.00    -0.071 NA
HETATM    2  N2  LIG X 999      40.407 127.614  24.008  1.00  0.00    -0.162 NA
HETATM    3  N3  LIG X 999      39.360 127.193  23.518  1.00  0.00     0.068 N 
ENDROOT
BRANCH   1   4
HETATM    4  C4  LIG X 999      42.711 128.046  23.799  1.00  0.00     0.108 A 
HETATM    5  C3  LIG X 999      43.509 126.897  23.621  1.00  0.00     0.008 A 
HETATM    6  C2  LIG X 999      44.710 126.965  22.981  1.00  0.00    -0.021 A 
HETATM    7  C15 LIG X 999      43.244 125.486  24.013  1.00  0.00     0.278 C 
HETATM    8  C1  LIG X 999      45.186 128.152  22.437  1.00  0.00     0.018 A 
HETATM    9  C18 LIG X 999      45.355 125.635  22.927  1.00  0.00     0.276 C 
HETATM   10  C6  LIG X 999      44.390 129.313  22.507  1.00  0.00    -0.035 A 
HETATM   11  C5  LIG X 999      43.166 129.272  23.245  1.00  0.00    -0.018 A 
HETATM   12  C7  LIG X 999      44.911 130.606  21.899  1.00  0.00     0.081 C 
HETATM   13  C14 LIG X 999      42.296 130.504  23.382  1.00  0.00     0.042 C 
HETATM   14  C13 LIG X 999      43.029 131.809  23.062  1.00  0.00     0.006 C 
HETATM   15  C12 LIG X 999      43.816 131.671  21.764  1.00  0.00     0.020 C 
HETATM   16  N4  LIG X 999      44.285 124.672  23.317  1.00  0.00    -0.067 N 
HETATM   17  C16 LIG X 999      43.709 124.044  22.104  1.00  0.00     0.272 C 
HETATM   18  C17 LIG X 999      44.820 123.617  24.205  1.00  0.00     0.272 C 
BRANCH  12  19
HETATM   19  S1  LIG X 999      45.604 130.317  20.217  1.00  0.00    -0.147 SA
BRANCH  19  20
HETATM   20  C8  LIG X 999      44.550 131.508  19.325  1.00  0.00     0.168 C 
BRANCH  20  21
HETATM   21  C9  LIG X 999      44.973 131.613  17.926  1.00  0.00    -0.097 C 
HETATM   22  C10 LIG X 999      45.325 131.705  16.776  1.00  0.00    -0.110 C 
HETATM   23  C11 LIG X 999      45.752 131.816  15.380  1.00  0.00     0.112 C 
ENDBRANCH  20  21
ENDBRANCH  19  20
ENDBRANCH  12  19
ENDBRANCH   1   4
TORSDOF 4
