REMARK VINA RESULT:      -4.7      8.430     10.777
REMARK  2 active torsions:
REMARK  status: ('A' for Active; 'I' for Inactive)
REMARK    1  A    between atoms: C9_10  and  N2_11 
REMARK       I    between atoms: N2_11  and  C10_12 
REMARK    2  A    between atoms: C10_12  and  C11_14 
ROOT
HETATM    1  C11 LIG X 999      40.536 126.229  24.624  1.00  0.00     0.282 C 
HETATM    2 CL1  LIG X 999      40.481 127.535  23.415  1.00  0.00    -0.099 Cl
HETATM    3  C12 LIG X 999      39.276 125.479  24.590  1.00  0.00     0.089 C 
HETATM    4  N3  LIG X 999      38.283 124.886  24.563  1.00  0.00    -0.195 NA
ENDROOT
BRANCH   1   5
HETATM    5  C10 LIG X 999      41.687 125.317  24.339  1.00  0.00     0.276 C 
HETATM    6  N2  LIG X 999      42.910 125.856  23.815  1.00  0.00    -0.212 NA
HETATM    7  O1  LIG X 999      41.592 124.091  24.616  1.00  0.00    -0.268 OA
BRANCH   6   8
HETATM    8  C9  LIG X 999      44.003 125.112  23.258  1.00  0.00     0.061 A 
HETATM    9  C8  LIG X 999      43.814 123.857  22.648  1.00  0.00     0.032 A 
HETATM   10  C7  LIG X 999      44.896 123.167  22.095  1.00  0.00     0.014 A 
HETATM   11  C6  LIG X 999      46.181 123.725  22.130  1.00  0.00    -0.025 A 
HETATM   12  C5  LIG X 999      47.277 123.037  21.572  1.00  0.00     0.021 A 
HETATM   13  C14 LIG X 999      46.375 125.004  22.723  1.00  0.00    -0.023 A 
HETATM   14  C4  LIG X 999      48.538 123.635  21.628  1.00  0.00    -0.024 A 
HETATM   15  C3  LIG X 999      49.813 123.111  21.093  1.00  0.00     0.276 C 
HETATM   16  C16 LIG X 999      48.724 124.858  22.196  1.00  0.00    -0.024 A 
HETATM   17  N1  LIG X 999      50.865 124.082  21.535  1.00  0.00    -0.067 N 
HETATM   18  C1  LIG X 999      51.721 124.481  20.395  1.00  0.00     0.272 C 
HETATM   19  C2  LIG X 999      51.713 123.467  22.583  1.00  0.00     0.272 C 
HETATM   20  C17 LIG X 999      50.140 125.268  22.093  1.00  0.00     0.276 C 
HETATM   21  C15 LIG X 999      47.662 125.575  22.751  1.00  0.00     0.021 A 
HETATM   22  C13 LIG X 999      45.280 125.685  23.273  1.00  0.00     0.044 A 
ENDBRANCH   6   8
ENDBRANCH   1   5
TORSDOF 2
