REMARK VINA RESULT:      -8.1      1.276      1.997
REMARK  2 active torsions:
REMARK  status: ('A' for Active; 'I' for Inactive)
REMARK    1  A    between atoms: C1_1  and  N1_14 
REMARK    2  A    between atoms: C2_2  and  C3_4 
ROOT
HETATM    1  C3  LIG X 999      45.250 131.130  16.872  1.00  0.00     0.003 A 
HETATM    2  C4  LIG X 999      43.926 131.575  16.691  1.00  0.00     0.015 A 
HETATM    3  C5  LIG X 999      43.103 131.831  17.790  1.00  0.00     0.013 A 
HETATM    4  C6  LIG X 999      43.583 131.641  19.092  1.00  0.00    -0.026 A 
HETATM    5  C7  LIG X 999      42.763 131.897  20.202  1.00  0.00     0.012 A 
HETATM    6  C8  LIG X 999      43.252 131.699  21.497  1.00  0.00     0.001 A 
HETATM    7  C9  LIG X 999      44.560 131.245  21.691  1.00  0.00     0.001 A 
HETATM    8  C10 LIG X 999      45.386 130.987  20.594  1.00  0.00     0.012 A 
HETATM    9  C11 LIG X 999      44.906 131.182  19.289  1.00  0.00    -0.025 A 
HETATM   10  C12 LIG X 999      45.726 130.925  18.179  1.00  0.00     0.026 A 
ENDROOT
BRANCH   1  11
HETATM   11  C2  LIG X 999      46.141 130.837  15.720  1.00  0.00     0.132 C 
HETATM   12  C1  LIG X 999      46.540 129.591  15.428  1.00  0.00     0.121 C 
HETATM   13  O1  LIG X 999      46.552 131.894  14.911  1.00  0.00    -0.190 OA
BRANCH  12  14
HETATM   14  N1  LIG X 999      47.404 129.320  14.320  1.00  0.00    -0.406 N 
HETATM   15  H9  LIG X 999      48.443 129.370  14.402  1.00  0.00     0.155 HD
HETATM   16  H10 LIG X 999      46.989 129.058  13.398  1.00  0.00     0.155 HD
ENDBRANCH  12  14
ENDBRANCH   1  11
TORSDOF 2
