REMARK VINA RESULT:      -7.7      1.166      2.900
REMARK  2 active torsions:
REMARK  status: ('A' for Active; 'I' for Inactive)
REMARK    1  A    between atoms: N1_1  and  C1_2 
REMARK    2  A    between atoms: C2_5  and  C3_6 
ROOT
HETATM    1  C3  LIG X 999      45.341 130.943  18.329  1.00  0.00     0.030 A 
HETATM    2  C4  LIG X 999      46.300 130.635  19.311  1.00  0.00     0.017 A 
HETATM    3  C5  LIG X 999      46.028 130.819  20.664  1.00  0.00     0.002 A 
HETATM    4  C6  LIG X 999      44.793 131.316  21.071  1.00  0.00     0.012 A 
HETATM    5  C7  LIG X 999      43.823 131.660  20.121  1.00  0.00    -0.025 A 
HETATM    6  C8  LIG X 999      42.590 132.184  20.543  1.00  0.00     0.012 A 
HETATM    7  C9  LIG X 999      41.630 132.566  19.607  1.00  0.00     0.001 A 
HETATM    8  C10 LIG X 999      41.893 132.441  18.245  1.00  0.00     0.001 A 
HETATM    9  C11 LIG X 999      43.112 131.917  17.806  1.00  0.00     0.013 A 
HETATM   10  C12 LIG X 999      44.091 131.492  18.732  1.00  0.00    -0.011 A 
ENDROOT
BRANCH   1  11
HETATM   11  C2  LIG X 999      45.680 130.637  16.919  1.00  0.00     0.205 A 
HETATM   12  N3  LIG X 999      45.500 129.428  16.346  1.00  0.00    -0.119 NA
HETATM   13  N2  LIG X 999      45.879 129.546  15.083  1.00  0.00    -0.103 NA
HETATM   14  C1  LIG X 999      46.268 130.825  14.938  1.00  0.00     0.265 A 
HETATM   15  O1  LIG X 999      46.146 131.504  16.051  1.00  0.00    -0.255 OA
BRANCH  14  16
HETATM   16  N1  LIG X 999      46.751 131.374  13.715  1.00  0.00    -0.362 N 
HETATM   17  H1  LIG X 999      47.717 131.767  13.663  1.00  0.00     0.159 HD
HETATM   18  H2  LIG X 999      46.144 131.386  12.866  1.00  0.00     0.159 HD
ENDBRANCH  14  16
ENDBRANCH   1  11
TORSDOF 2
