REMARK VINA RESULT:      -8.2      1.796      3.312
REMARK  3 active torsions:
REMARK  status: ('A' for Active; 'I' for Inactive)
REMARK    1  A    between atoms: C2_2  and  C3_3 
REMARK       I    between atoms: C3_3  and  N1_5 
REMARK    2  A    between atoms: N1_5  and  C4_6 
REMARK    3  A    between atoms: C4_6  and  C6_8 
ROOT
HETATM    1  C6  LIG X 999      45.534 130.865  17.666  1.00  0.00    -0.035 A 
HETATM    2  C7  LIG X 999      45.221 132.071  17.015  1.00  0.00     0.010 A 
HETATM    3  C8  LIG X 999      45.654 132.307  15.709  1.00  0.00     0.013 A 
HETATM    4  C9  LIG X 999      46.414 131.343  15.032  1.00  0.00    -0.026 A 
HETATM    5  C10 LIG X 999      46.853 131.571  13.718  1.00  0.00     0.012 A 
HETATM    6  C11 LIG X 999      47.613 130.603  13.055  1.00  0.00     0.001 A 
HETATM    7  C12 LIG X 999      47.940 129.405  13.695  1.00  0.00     0.001 A 
HETATM    8  C13 LIG X 999      47.508 129.166  15.003  1.00  0.00     0.012 A 
HETATM    9  C14 LIG X 999      46.744 130.129  15.681  1.00  0.00    -0.025 A 
HETATM   10  C15 LIG X 999      46.306 129.901  16.994  1.00  0.00     0.021 A 
ENDROOT
BRANCH   1  11
HETATM   11  C4  LIG X 999      45.078 130.615  19.088  1.00  0.00     0.113 C 
HETATM   12  C5  LIG X 999      46.266 130.720  20.050  1.00  0.00     0.037 C 
BRANCH  11  13
HETATM   13  N1  LIG X 999      44.025 131.565  19.463  1.00  0.00    -0.353 N 
HETATM   14  C3  LIG X 999      43.345 131.487  20.724  1.00  0.00     0.217 C 
HETATM   15  O1  LIG X 999      43.670 130.611  21.571  1.00  0.00    -0.274 OA
HETATM   16  H6  LIG X 999      43.755 132.326  18.798  1.00  0.00     0.163 HD
BRANCH  14  17
HETATM   17  C2  LIG X 999      42.269 132.476  21.060  1.00  0.00     0.098 C 
HETATM   18  C1  LIG X 999      41.659 133.056  19.790  1.00  0.00     0.014 C 
ENDBRANCH  14  17
ENDBRANCH  11  13
ENDBRANCH   1  11
TORSDOF 3
