REMARK VINA RESULT:      -7.5      2.870      6.207
REMARK  4 active torsions:
REMARK  status: ('A' for Active; 'I' for Inactive)
REMARK    1  A    between atoms: C3_4  and  O1_5 
REMARK    2  A    between atoms: C3_4  and  O2_6 
REMARK    3  A    between atoms: O2_6  and  C4_7 
REMARK    4  A    between atoms: C13_16  and  N2_17 
ROOT
HETATM    1  C4  LIG X 999      44.123 131.527  19.998  1.00  0.00     0.106 A 
HETATM    2  C5  LIG X 999      42.976 131.985  19.331  1.00  0.00     0.040 A 
HETATM    3  C6  LIG X 999      42.909 131.968  17.941  1.00  0.00     0.015 A 
HETATM    4  C7  LIG X 999      43.974 131.464  17.189  1.00  0.00    -0.024 A 
HETATM    5  C8  LIG X 999      43.886 131.440  15.787  1.00  0.00     0.012 A 
HETATM    6  C9  LIG X 999      44.927 130.913  15.025  1.00  0.00     0.001 A 
HETATM    7  C10 LIG X 999      46.059 130.396  15.653  1.00  0.00     0.001 A 
HETATM    8  C11 LIG X 999      46.165 130.413  17.045  1.00  0.00     0.014 A 
HETATM    9  C12 LIG X 999      45.134 130.963  17.841  1.00  0.00     0.003 A 
HETATM   10  C13 LIG X 999      45.207 131.008  19.261  1.00  0.00     0.071 A 
ENDROOT
BRANCH   1  11
HETATM   11  O2  LIG X 999      44.196 131.545  21.400  1.00  0.00    -0.272 OA
BRANCH  11  12
HETATM   12  C3  LIG X 999      43.176 131.127  22.268  1.00  0.00     0.265 C 
HETATM   13  N1  LIG X 999      43.299 129.984  22.906  1.00  0.00    -0.350 N 
HETATM   14  C1  LIG X 999      42.266 129.513  23.838  1.00  0.00     0.153 C 
HETATM   15  C2  LIG X 999      44.493 129.157  22.680  1.00  0.00     0.153 C 
BRANCH  12  16
HETATM   16  O1  LIG X 999      42.067 131.962  22.462  1.00  0.00    -0.327 OA
HETATM   17  H7  LIG X 999      41.233 131.691  22.967  1.00  0.00     0.221 HD
ENDBRANCH  12  16
ENDBRANCH  11  12
ENDBRANCH   1  11
BRANCH  10  18
HETATM   18  N2  LIG X 999      46.374 130.562  19.974  1.00  0.00    -0.396 N 
HETATM   19  H14 LIG X 999      46.508 130.722  20.995  1.00  0.00     0.156 HD
HETATM   20  H15 LIG X 999      47.085 129.953  19.513  1.00  0.00     0.156 HD
ENDBRANCH  10  18
TORSDOF 4
