REMARK VINA RESULT:      -7.4      0.000      0.000
REMARK  7 active torsions:
REMARK  status: ('A' for Active; 'I' for Inactive)
REMARK    1  A    between atoms: C14_14  and  N1_15 
REMARK    2  A    between atoms: N1_15  and  C15_17 
REMARK    3  A    between atoms: C15_17  and  C16_18 
REMARK    4  A    between atoms: C16_18  and  C17_19 
REMARK    5  A    between atoms: C17_19  and  C18_20 
REMARK    6  A    between atoms: C18_20  and  C19_21 
REMARK    7  A    between atoms: C19_21  and  N2_22 
ROOT
HETATM    1  C1  LIG X 999      45.269 131.017  15.481  1.00  0.00     0.001 C 
HETATM    2  C2  LIG X 999      46.100 130.510  16.475  1.00  0.00     0.001 C 
HETATM    3  C3  LIG X 999      45.734 130.611  17.819  1.00  0.00     0.013 C 
HETATM    4  C4  LIG X 999      44.545 131.271  18.207  1.00  0.00    -0.013 C 
HETATM    5  C5  LIG X 999      43.655 131.673  17.170  1.00  0.00    -0.025 C 
HETATM    6  C6  LIG X 999      44.041 131.579  15.823  1.00  0.00     0.012 C 
HETATM    7  C7  LIG X 999      42.366 132.111  17.480  1.00  0.00     0.014 C 
HETATM    8  C8  LIG X 999      41.923 132.105  18.795  1.00  0.00     0.031 C 
HETATM    9  C9  LIG X 999      42.790 131.771  19.843  1.00  0.00     0.045 C 
HETATM   10  C10 LIG X 999      44.151 131.453  19.575  1.00  0.00     0.008 C 
HETATM   11  C11 LIG X 999      45.028 131.381  20.700  1.00  0.00    -0.045 C 
HETATM   12  C12 LIG X 999      46.531 131.494  20.612  1.00  0.00     0.049 C 
HETATM   13  C13 LIG X 999      44.486 131.345  21.993  1.00  0.00     0.056 C 
HETATM   14  C14 LIG X 999      43.108 131.520  22.201  1.00  0.00     0.101 C 
HETATM   15  N3  LIG X 999      42.314 131.774  21.122  1.00  0.00    -0.342 N 
HETATM   16  H28 LIG X 999      41.298 131.972  21.278  1.00  0.00     0.167 HD
ENDROOT
BRANCH  14  17
HETATM   17  N1  LIG X 999      42.570 131.489  23.399  1.00  0.00    -0.376 N 
HETATM   18  H11 LIG X 999      42.057 132.334  23.741  1.00  0.00     0.161 HD
BRANCH  17  19
HETATM   19  C15 LIG X 999      42.617 130.363  24.340  1.00  0.00     0.121 C 
BRANCH  19  20
HETATM   20  C16 LIG X 999      42.303 129.042  23.625  1.00  0.00     0.020 C 
BRANCH  20  21
HETATM   21  C17 LIG X 999      43.328 127.959  23.995  1.00  0.00     0.004 C 
BRANCH  21  22
HETATM   22  C18 LIG X 999      44.510 127.893  23.011  1.00  0.00     0.035 C 
BRANCH  22  23
HETATM   23  C19 LIG X 999      44.757 126.488  22.426  1.00  0.00     0.216 C 
HETATM   24  C21 LIG X 999      46.243 126.114  22.577  1.00  0.00     0.042 C 
BRANCH  23  25
HETATM   25  N2  LIG X 999      43.883 125.509  23.101  1.00  0.00     0.083 N 
HETATM   26  H21 LIG X 999      44.181 125.379  24.096  1.00  0.00     0.315 HD
HETATM   27  C20 LIG X 999      43.892 124.206  22.432  1.00  0.00     0.307 C 
ENDBRANCH  23  25
ENDBRANCH  22  23
ENDBRANCH  21  22
ENDBRANCH  20  21
ENDBRANCH  19  20
ENDBRANCH  17  19
ENDBRANCH  14  17
TORSDOF 7
