REMARK VINA RESULT:      -6.0      2.305      7.549
REMARK  5 active torsions:
REMARK  status: ('A' for Active; 'I' for Inactive)
REMARK    1  A    between atoms: C6_6  and  C7_7 
REMARK       I    between atoms: C7_7  and  N1_9 
REMARK    2  A    between atoms: N1_9  and  C8_11 
REMARK    3  A    between atoms: C8_11  and  C9_12 
REMARK    4  A    between atoms: C9_12  and  N2_13 
REMARK    5  A    between atoms: C13_19  and  N5_20 
ROOT
HETATM    1  N2  LIG X 999      42.373 132.119  23.092  1.00  0.00    -0.114 NA
HETATM    2  N3  LIG X 999      42.137 132.449  21.930  1.00  0.00    -0.168 NA
HETATM    3  N4  LIG X 999      41.902 132.780  20.769  1.00  0.00     0.068 N 
ENDROOT
BRANCH   1   4
HETATM    4  C9  LIG X 999      42.735 130.746  23.412  1.00  0.00     0.208 C 
BRANCH   4   5
HETATM    5  C8  LIG X 999      44.182 130.475  23.001  1.00  0.00     0.147 C 
BRANCH   5   6
HETATM    6  N1  LIG X 999      44.293 130.320  21.551  1.00  0.00    -0.355 N 
HETATM    7  C7  LIG X 999      45.058 131.222  20.735  1.00  0.00     0.251 C 
HETATM    8  O1  LIG X 999      45.587 132.242  21.260  1.00  0.00    -0.268 OA
HETATM    9  H4  LIG X 999      43.778 129.526  21.110  1.00  0.00     0.162 HD
BRANCH   7  10
HETATM   10  C6  LIG X 999      45.226 130.989  19.280  1.00  0.00     0.032 A 
HETATM   11  C1  LIG X 999      46.289 130.199  18.817  1.00  0.00     0.017 A 
HETATM   12  C2  LIG X 999      46.457 129.964  17.452  1.00  0.00     0.011 A 
HETATM   13  C3  LIG X 999      45.558 130.499  16.517  1.00  0.00    -0.024 A 
HETATM   14  C4  LIG X 999      44.485 131.303  16.971  1.00  0.00    -0.049 A 
HETATM   15  C13 LIG X 999      45.818 130.277  15.043  1.00  0.00     0.179 C 
HETATM   16  C5  LIG X 999      44.320 131.524  18.349  1.00  0.00     0.024 A 
HETATM   17  C10 LIG X 999      43.436 131.834  16.022  1.00  0.00     0.039 C 
HETATM   18  C11 LIG X 999      43.911 131.862  14.566  1.00  0.00     0.007 C 
HETATM   19  C12 LIG X 999      44.560 130.529  14.193  1.00  0.00     0.035 C 
BRANCH  15  20
HETATM   20  N5  LIG X 999      46.910 131.152  14.622  1.00  0.00    -0.105 NA
HETATM   21  N6  LIG X 999      47.393 131.070  13.492  1.00  0.00    -0.167 NA
HETATM   22  N7  LIG X 999      47.877 130.988  12.364  1.00  0.00     0.068 N 
ENDBRANCH  15  20
ENDBRANCH   7  10
ENDBRANCH   5   6
ENDBRANCH   4   5
ENDBRANCH   1   4
TORSDOF 5
