MODEL 1
REMARK VINA RESULT:      -8.2      0.000      0.000
REMARK  1 active torsions:
REMARK  status: ('A' for Active; 'I' for Inactive)
REMARK    1  A    between atoms: C8_8  and  N1_9 
ROOT
HETATM    1  N1  LIG X 999      46.568 129.978  16.751  1.00  0.00    -0.072 NA
HETATM    2  N2  LIG X 999      46.950 129.865  15.585  1.00  0.00    -0.162 NA
HETATM    3  N3  LIG X 999      47.333 129.752  14.422  1.00  0.00     0.068 N 
ENDROOT
BRANCH   1   4
HETATM    4  C8  LIG X 999      45.355 130.665  17.097  1.00  0.00     0.104 A 
HETATM    5  C7  LIG X 999      44.421 131.078  16.097  1.00  0.00     0.038 A 
HETATM    6  C6  LIG X 999      43.228 131.754  16.445  1.00  0.00     0.033 A 
HETATM    7  C5  LIG X 999      42.990 132.006  17.794  1.00  0.00     0.047 A 
HETATM    8  C4  LIG X 999      43.890 131.604  18.737  1.00  0.00     0.019 A 
HETATM    9  N4  LIG X 999      41.877 132.661  18.405  1.00  0.00    -0.322 N 
HETATM   10  C3  LIG X 999      43.481 131.940  19.991  1.00  0.00     0.045 A 
HETATM   11  C9  LIG X 999      45.073 130.941  18.456  1.00  0.00     0.009 A 
HETATM   12  C2  LIG X 999      44.260 131.619  21.102  1.00  0.00     0.018 A 
HETATM   13  C11 LIG X 999      42.198 132.615  19.804  1.00  0.00     0.257 A 
HETATM   14  C1  LIG X 999      45.480 130.940  20.874  1.00  0.00     0.002 A 
HETATM   15  C10 LIG X 999      45.889 130.600  19.557  1.00  0.00     0.015 A 
HETATM   16  O1  LIG X 999      41.471 133.091  20.714  1.00  0.00    -0.267 OA
HETATM   17  H6  LIG X 999      41.036 133.074  17.947  1.00  0.00     0.169 HD
ENDBRANCH   1   4
TORSDOF 1
ENDMDL
MODEL 2
REMARK VINA RESULT:      -7.9      2.772      5.818
REMARK  1 active torsions:
REMARK  status: ('A' for Active; 'I' for Inactive)
REMARK    1  A    between atoms: C8_8  and  N1_9 
ROOT
HETATM    1  N1  LIG X 999      42.353 132.276  18.226  1.00  0.00    -0.072 NA
HETATM    2  N2  LIG X 999      42.083 132.626  19.375  1.00  0.00    -0.162 NA
HETATM    3  N3  LIG X 999      41.812 132.976  20.523  1.00  0.00     0.068 N 
ENDROOT
BRANCH   1   4
HETATM    4  C8  LIG X 999      43.592 131.630  17.891  1.00  0.00     0.104 A 
HETATM    5  C7  LIG X 999      44.486 131.165  18.904  1.00  0.00     0.038 A 
HETATM    6  C6  LIG X 999      45.705 130.530  18.569  1.00  0.00     0.033 A 
HETATM    7  C5  LIG X 999      46.009 130.371  17.218  1.00  0.00     0.047 A 
HETATM    8  C4  LIG X 999      45.144 130.820  16.263  1.00  0.00     0.019 A 
HETATM    9  N4  LIG X 999      47.158 129.772  16.617  1.00  0.00    -0.322 N 
HETATM   10  C3  LIG X 999      45.615 130.575  15.009  1.00  0.00     0.045 A 
HETATM   11  C9  LIG X 999      43.940 131.448  16.532  1.00  0.00     0.009 A 
HETATM   12  C2  LIG X 999      44.881 130.956  13.888  1.00  0.00     0.018 A 
HETATM   13  C11 LIG X 999      46.899 129.906  15.212  1.00  0.00     0.257 A 
HETATM   14  C1  LIG X 999      43.641 131.603  14.103  1.00  0.00     0.002 A 
HETATM   15  C10 LIG X 999      43.168 131.850  15.419  1.00  0.00     0.015 A 
HETATM   16  O1  LIG X 999      47.675 129.502  14.306  1.00  0.00    -0.267 OA
HETATM   17  H6  LIG X 999      47.984 129.341  17.086  1.00  0.00     0.169 HD
ENDBRANCH   1   4
TORSDOF 1
ENDMDL
MODEL 3
REMARK VINA RESULT:      -7.0      1.854      3.179
REMARK  1 active torsions:
REMARK  status: ('A' for Active; 'I' for Inactive)
REMARK    1  A    between atoms: C8_8  and  N1_9 
ROOT
HETATM    1  N1  LIG X 999      45.039 131.156  16.837  1.00  0.00    -0.072 NA
HETATM    2  N2  LIG X 999      45.198 130.153  16.140  1.00  0.00    -0.162 NA
HETATM    3  N3  LIG X 999      45.356 129.152  15.442  1.00  0.00     0.068 N 
ENDROOT
BRANCH   1   4
HETATM    4  C8  LIG X 999      44.998 131.094  18.271  1.00  0.00     0.104 A 
HETATM    5  C7  LIG X 999      46.068 130.517  19.023  1.00  0.00     0.038 A 
HETATM    6  C6  LIG X 999      46.022 130.459  20.436  1.00  0.00     0.033 A 
HETATM    7  C5  LIG X 999      44.900 130.983  21.074  1.00  0.00     0.047 A 
HETATM    8  C4  LIG X 999      43.887 131.531  20.343  1.00  0.00     0.019 A 
HETATM    9  N4  LIG X 999      44.608 131.049  22.471  1.00  0.00    -0.322 N 
HETATM   10  C3  LIG X 999      42.885 131.986  21.144  1.00  0.00     0.045 A 
HETATM   11  C9  LIG X 999      43.878 131.615  18.961  1.00  0.00     0.009 A 
HETATM   12  C2  LIG X 999      41.752 132.584  20.594  1.00  0.00     0.018 A 
HETATM   13  C11 LIG X 999      43.323 131.689  22.507  1.00  0.00     0.257 A 
HETATM   14  C1  LIG X 999      41.688 132.696  19.184  1.00  0.00     0.002 A 
HETATM   15  C10 LIG X 999      42.745 132.215  18.367  1.00  0.00     0.015 A 
HETATM   16  O1  LIG X 999      42.688 131.946  23.562  1.00  0.00    -0.267 OA
HETATM   17  H6  LIG X 999      45.187 130.714  23.272  1.00  0.00     0.169 HD
ENDBRANCH   1   4
TORSDOF 1
ENDMDL
MODEL 4
REMARK VINA RESULT:      -6.9      1.954      2.430
REMARK  1 active torsions:
REMARK  status: ('A' for Active; 'I' for Inactive)
REMARK    1  A    between atoms: C8_8  and  N1_9 
ROOT
HETATM    1  N1  LIG X 999      44.521 131.331  16.489  1.00  0.00    -0.072 NA
HETATM    2  N2  LIG X 999      44.040 131.485  15.366  1.00  0.00    -0.162 NA
HETATM    3  N3  LIG X 999      43.560 131.638  14.244  1.00  0.00     0.068 N 
ENDROOT
BRANCH   1   4
HETATM    4  C8  LIG X 999      43.786 131.631  17.686  1.00  0.00     0.104 A 
HETATM    5  C7  LIG X 999      42.487 132.223  17.634  1.00  0.00     0.038 A 
HETATM    6  C6  LIG X 999      41.767 132.515  18.816  1.00  0.00     0.033 A 
HETATM    7  C5  LIG X 999      42.365 132.208  20.037  1.00  0.00     0.047 A 
HETATM    8  C4  LIG X 999      43.606 131.642  20.070  1.00  0.00     0.019 A 
HETATM    9  N4  LIG X 999      41.861 132.398  21.360  1.00  0.00    -0.322 N 
HETATM   10  C3  LIG X 999      44.017 131.418  21.349  1.00  0.00     0.045 A 
HETATM   11  C9  LIG X 999      44.356 131.335  18.947  1.00  0.00     0.009 A 
HETATM   12  C2  LIG X 999      45.261 130.844  21.604  1.00  0.00     0.018 A 
HETATM   13  C11 LIG X 999      42.919 131.893  22.189  1.00  0.00     0.257 A 
HETATM   14  C1  LIG X 999      46.071 130.510  20.493  1.00  0.00     0.002 A 
HETATM   15  C10 LIG X 999      45.623 130.752  19.167  1.00  0.00     0.015 A 
HETATM   16  O1  LIG X 999      42.885 131.872  23.447  1.00  0.00    -0.267 OA
HETATM   17  H6  LIG X 999      40.946 132.805  21.653  1.00  0.00     0.169 HD
ENDBRANCH   1   4
TORSDOF 1
ENDMDL
MODEL 5
REMARK VINA RESULT:      -6.6      2.955      5.058
REMARK  1 active torsions:
REMARK  status: ('A' for Active; 'I' for Inactive)
REMARK    1  A    between atoms: C8_8  and  N1_9 
ROOT
HETATM    1  N1  LIG X 999      43.082 131.899  22.952  1.00  0.00    -0.072 NA
HETATM    2  N2  LIG X 999      42.623 130.953  23.593  1.00  0.00    -0.162 NA
HETATM    3  N3  LIG X 999      42.165 130.009  24.235  1.00  0.00     0.068 N 
ENDROOT
BRANCH   1   4
HETATM    4  C8  LIG X 999      42.931 132.005  21.527  1.00  0.00     0.104 A 
HETATM    5  C7  LIG X 999      41.771 132.603  20.944  1.00  0.00     0.038 A 
HETATM    6  C6  LIG X 999      41.628 132.704  19.540  1.00  0.00     0.033 A 
HETATM    7  C5  LIG X 999      42.654 132.203  18.741  1.00  0.00     0.047 A 
HETATM    8  C4  LIG X 999      43.755 131.635  19.313  1.00  0.00     0.019 A 
HETATM    9  N4  LIG X 999      42.757 132.180  17.317  1.00  0.00    -0.322 N 
HETATM   10  C3  LIG X 999      44.640 131.207  18.372  1.00  0.00     0.045 A 
HETATM   11  C9  LIG X 999      43.948 131.509  20.679  1.00  0.00     0.009 A 
HETATM   12  C2  LIG X 999      45.836 130.596  18.748  1.00  0.00     0.018 A 
HETATM   13  C11 LIG X 999      44.025 131.545  17.090  1.00  0.00     0.257 A 
HETATM   14  C1  LIG X 999      46.086 130.440  20.132  1.00  0.00     0.002 A 
HETATM   15  C10 LIG X 999      45.149 130.893  21.098  1.00  0.00     0.015 A 
HETATM   16  O1  LIG X 999      44.513 131.321  15.952  1.00  0.00    -0.267 OA
HETATM   17  H6  LIG X 999      42.078 132.539  16.611  1.00  0.00     0.169 HD
ENDBRANCH   1   4
TORSDOF 1
ENDMDL
MODEL 6
REMARK VINA RESULT:      -6.6      2.954      5.101
REMARK  1 active torsions:
REMARK  status: ('A' for Active; 'I' for Inactive)
REMARK    1  A    between atoms: C8_8  and  N1_9 
ROOT
HETATM    1  N1  LIG X 999      44.247 131.435  22.623  1.00  0.00    -0.072 NA
HETATM    2  N2  LIG X 999      43.733 130.536  23.290  1.00  0.00    -0.162 NA
HETATM    3  N3  LIG X 999      43.219 129.639  23.957  1.00  0.00     0.068 N 
ENDROOT
BRANCH   1   4
HETATM    4  C8  LIG X 999      44.588 131.264  21.238  1.00  0.00     0.104 A 
HETATM    5  C7  LIG X 999      45.830 130.678  20.843  1.00  0.00     0.038 A 
HETATM    6  C6  LIG X 999      46.159 130.512  19.478  1.00  0.00     0.033 A 
HETATM    7  C5  LIG X 999      45.234 130.937  18.527  1.00  0.00     0.047 A 
HETATM    8  C4  LIG X 999      44.052 131.493  18.919  1.00  0.00     0.019 A 
HETATM    9  N4  LIG X 999      45.319 130.884  17.101  1.00  0.00    -0.322 N 
HETATM   10  C3  LIG X 999      43.286 131.842  17.849  1.00  0.00     0.045 A 
HETATM   11  C9  LIG X 999      43.677 131.681  20.239  1.00  0.00     0.009 A 
HETATM   12  C2  LIG X 999      42.035 132.429  18.033  1.00  0.00     0.018 A 
HETATM   13  C11 LIG X 999      44.075 131.462  16.678  1.00  0.00     0.257 A 
HETATM   14  C1  LIG X 999      41.600 132.645  19.362  1.00  0.00     0.002 A 
HETATM   15  C10 LIG X 999      42.415 132.273  20.464  1.00  0.00     0.015 A 
HETATM   16  O1  LIG X 999      43.735 131.611  15.476  1.00  0.00    -0.267 OA
HETATM   17  H6  LIG X 999      46.095 130.515  16.511  1.00  0.00     0.169 HD
ENDBRANCH   1   4
TORSDOF 1
ENDMDL
MODEL 7
REMARK VINA RESULT:      -5.3      8.374      9.481
REMARK  1 active torsions:
REMARK  status: ('A' for Active; 'I' for Inactive)
REMARK    1  A    between atoms: C8_8  and  N1_9 
ROOT
HETATM    1  N1  LIG X 999      52.018 134.434  24.333  1.00  0.00    -0.072 NA
HETATM    2  N2  LIG X 999      52.662 133.452  23.962  1.00  0.00    -0.162 NA
HETATM    3  N3  LIG X 999      53.305 132.470  23.593  1.00  0.00     0.068 N 
ENDROOT
BRANCH   1   4
HETATM    4  C8  LIG X 999      51.709 135.526  23.453  1.00  0.00     0.104 A 
HETATM    5  C7  LIG X 999      52.613 136.617  23.272  1.00  0.00     0.038 A 
HETATM    6  C6  LIG X 999      52.302 137.689  22.403  1.00  0.00     0.033 A 
HETATM    7  C5  LIG X 999      51.085 137.649  21.726  1.00  0.00     0.047 A 
HETATM    8  C4  LIG X 999      50.233 136.599  21.908  1.00  0.00     0.019 A 
HETATM    9  N4  LIG X 999      50.536 138.591  20.803  1.00  0.00    -0.322 N 
HETATM   10  C3  LIG X 999      49.101 136.742  21.164  1.00  0.00     0.045 A 
HETATM   11  C9  LIG X 999      50.483 135.525  22.745  1.00  0.00     0.009 A 
HETATM   12  C2  LIG X 999      48.098 135.775  21.205  1.00  0.00     0.018 A 
HETATM   13  C11 LIG X 999      49.274 138.006  20.450  1.00  0.00     0.257 A 
HETATM   14  C1  LIG X 999      48.301 134.654  22.045  1.00  0.00     0.002 A 
HETATM   15  C10 LIG X 999      49.488 134.525  22.813  1.00  0.00     0.015 A 
HETATM   16  O1  LIG X 999      48.454 138.521  19.646  1.00  0.00    -0.267 OA
HETATM   17  H6  LIG X 999      50.952 139.487  20.466  1.00  0.00     0.169 HD
ENDBRANCH   1   4
TORSDOF 1
ENDMDL
MODEL 8
REMARK VINA RESULT:      -5.2      3.047      4.534
REMARK  1 active torsions:
REMARK  status: ('A' for Active; 'I' for Inactive)
REMARK    1  A    between atoms: C8_8  and  N1_9 
ROOT
HETATM    1  N1  LIG X 999      45.804 130.508  20.251  1.00  0.00    -0.072 NA
HETATM    2  N2  LIG X 999      45.339 129.960  21.251  1.00  0.00    -0.162 NA
HETATM    3  N3  LIG X 999      44.875 129.413  22.250  1.00  0.00     0.068 N 
ENDROOT
BRANCH   1   4
HETATM    4  C8  LIG X 999      44.976 130.958  19.167  1.00  0.00     0.104 A 
HETATM    5  C7  LIG X 999      43.776 131.697  19.405  1.00  0.00     0.038 A 
HETATM    6  C6  LIG X 999      42.964 132.138  18.333  1.00  0.00     0.033 A 
HETATM    7  C5  LIG X 999      43.370 131.830  17.036  1.00  0.00     0.047 A 
HETATM    8  C4  LIG X 999      44.519 131.125  16.826  1.00  0.00     0.019 A 
HETATM    9  N4  LIG X 999      42.741 132.152  15.795  1.00  0.00    -0.322 N 
HETATM   10  C3  LIG X 999      44.745 130.924  15.498  1.00  0.00     0.045 A 
HETATM   11  C9  LIG X 999      45.351 130.668  17.834  1.00  0.00     0.009 A 
HETATM   12  C2  LIG X 999      45.870 130.223  15.067  1.00  0.00     0.018 A 
HETATM   13  C11 LIG X 999      43.623 131.572  14.821  1.00  0.00     0.257 A 
HETATM   14  C1  LIG X 999      46.756 129.732  16.056  1.00  0.00     0.002 A 
HETATM   15  C10 LIG X 999      46.502 129.952  17.435  1.00  0.00     0.015 A 
HETATM   16  O1  LIG X 999      43.438 131.624  13.577  1.00  0.00    -0.267 OA
HETATM   17  H6  LIG X 999      41.857 132.681  15.634  1.00  0.00     0.169 HD
ENDBRANCH   1   4
TORSDOF 1
ENDMDL
