REMARK VINA RESULT:      -5.1      4.789      6.565
REMARK  3 active torsions:
REMARK  status: ('A' for Active; 'I' for Inactive)
REMARK    1  A    between atoms: C2_2  and  O1_3 
REMARK    2  A    between atoms: O1_3  and  C3_4 
REMARK       I    between atoms: C3_4  and  N1_6 
REMARK    3  A    between atoms: N1_6  and  C4_7 
ROOT
HETATM    1  C4  LIG X 999      44.199 130.312  22.384  1.00  0.00     0.063 A 
HETATM    2  C5  LIG X 999      42.987 130.289  23.086  1.00  0.00     0.032 A 
HETATM    3  C6  LIG X 999      42.476 129.090  23.589  1.00  0.00     0.014 A 
HETATM    4  C7  LIG X 999      43.180 127.893  23.410  1.00  0.00    -0.025 A 
HETATM    5  C8  LIG X 999      42.675 126.679  23.915  1.00  0.00     0.021 A 
HETATM    6  C9  LIG X 999      43.416 125.513  23.718  1.00  0.00    -0.024 A 
HETATM    7  C10 LIG X 999      44.609 125.528  23.061  1.00  0.00    -0.024 A 
HETATM    8  C11 LIG X 999      45.149 126.710  22.553  1.00  0.00     0.021 A 
HETATM    9  C12 LIG X 999      44.428 127.909  22.721  1.00  0.00    -0.023 A 
HETATM   10  C13 LIG X 999      44.929 129.120  22.223  1.00  0.00     0.044 A 
HETATM   11  C14 LIG X 999      45.196 124.172  23.020  1.00  0.00     0.276 C 
HETATM   12  N2  LIG X 999      44.151 123.262  23.587  1.00  0.00    -0.067 N 
HETATM   13  C15 LIG X 999      43.570 122.423  22.512  1.00  0.00     0.272 C 
HETATM   14  C16 LIG X 999      44.733 122.380  24.624  1.00  0.00     0.272 C 
HETATM   15  C17 LIG X 999      43.094 124.145  24.177  1.00  0.00     0.276 C 
ENDROOT
BRANCH   1  16
HETATM   16  N1  LIG X 999      44.687 131.571  21.899  1.00  0.00    -0.188 NA
HETATM   17  C3  LIG X 999      44.950 131.898  20.531  1.00  0.00     0.387 C 
HETATM   18  O2  LIG X 999      45.598 132.946  20.265  1.00  0.00    -0.236 OA
BRANCH  17  19
HETATM   19  O1  LIG X 999      44.449 131.097  19.501  1.00  0.00    -0.303 OA
BRANCH  19  20
HETATM   20  C2  LIG X 999      44.596 131.429  18.125  1.00  0.00     0.176 C 
HETATM   21  C1  LIG X 999      45.697 130.580  17.513  1.00  0.00     0.034 C 
ENDBRANCH  19  20
ENDBRANCH  17  19
ENDBRANCH   1  16
TORSDOF 3
