REMARK VINA RESULT:      -8.0      2.303      3.707
REMARK  4 active torsions:
REMARK  status: ('A' for Active; 'I' for Inactive)
REMARK    1  A    between atoms: O1_2  and  C1_3 
REMARK    2  A    between atoms: C1_3  and  C5_11 
REMARK       I    between atoms: N1_4  and  C2_5 
REMARK    3  A    between atoms: C2_5  and  O3_7 
REMARK    4  A    between atoms: O3_7  and  C3_8 
ROOT
HETATM    1  C5  LIG X 999      44.845 131.150  16.651  1.00  0.00     0.054 A 
HETATM    2  C6  LIG X 999      45.737 130.251  17.278  1.00  0.00     0.122 A 
HETATM    3  O4  LIG X 999      45.577 129.887  18.611  1.00  0.00    -0.191 OA
HETATM    4  C7  LIG X 999      46.816 129.712  16.570  1.00  0.00     0.053 A 
HETATM    5  C8  LIG X 999      47.032 130.057  15.230  1.00  0.00    -0.023 A 
HETATM    6  C9  LIG X 999      48.116 129.518  14.518  1.00  0.00     0.012 A 
HETATM    7  C10 LIG X 999      48.321 129.871  13.181  1.00  0.00     0.001 A 
HETATM    8  C11 LIG X 999      47.450 130.761  12.548  1.00  0.00     0.001 A 
HETATM    9  C12 LIG X 999      46.369 131.304  13.247  1.00  0.00     0.012 A 
HETATM   10  C13 LIG X 999      46.152 130.958  14.590  1.00  0.00    -0.025 A 
HETATM   11  C14 LIG X 999      45.070 131.496  15.301  1.00  0.00     0.031 A 
ENDROOT
BRANCH   1  12
HETATM   12  C1  LIG X 999      43.683 131.730  17.383  1.00  0.00     0.181 C 
HETATM   13  N1  LIG X 999      43.649 131.654  18.686  1.00  0.00    -0.162 NA
HETATM   14  C2  LIG X 999      42.589 132.049  19.565  1.00  0.00     0.390 C 
HETATM   15  O2  LIG X 999      41.390 132.061  19.171  1.00  0.00    -0.236 OA
BRANCH  12  16
HETATM   16  O1  LIG X 999      42.673 132.373  16.660  1.00  0.00    -0.344 OA
HETATM   17  H1  LIG X 999      42.577 133.377  16.597  1.00  0.00     0.219 HD
ENDBRANCH  12  16
BRANCH  14  18
HETATM   18  O3  LIG X 999      42.893 132.337  20.898  1.00  0.00    -0.282 OA
BRANCH  18  19
HETATM   19  C3  LIG X 999      43.099 131.332  21.889  1.00  0.00     0.225 C 
HETATM   20 CL1  LIG X 999      42.593 131.939  23.490  1.00  0.00    -0.095 Cl
HETATM   21  C4  LIG X 999      44.574 130.959  21.929  1.00  0.00     0.057 C 
ENDBRANCH  18  19
ENDBRANCH  14  18
ENDBRANCH   1  12
TORSDOF 4
