REMARK VINA RESULT:      -5.0      3.571      4.610
REMARK  3 active torsions:
REMARK  status: ('A' for Active; 'I' for Inactive)
REMARK    1  A    between atoms: N2_3  and  N3_4 
REMARK    2  A    between atoms: C1_5  and  C2_6 
REMARK    3  A    between atoms: C3_8  and  C4_9 
REMARK       I    between atoms: N4_19  and  C14_20 
ROOT
HETATM    1  C2  LIG X 999      45.460 123.675  23.846  1.00  0.00     0.259 C 
HETATM    2  O1  LIG X 999      44.338 124.066  24.617  1.00  0.00    -0.335 OA
HETATM    3  C3  LIG X 999      43.208 123.560  23.950  1.00  0.00     0.280 C 
HETATM    4  N4  LIG X 999      43.656 123.189  22.627  1.00  0.00    -0.247 N 
HETATM    5  C14 LIG X 999      42.817 122.651  21.592  1.00  0.00     0.232 C 
HETATM    6  O2  LIG X 999      41.611 122.375  21.835  1.00  0.00    -0.272 OA
HETATM    7  C15 LIG X 999      43.368 122.381  20.228  1.00  0.00     0.119 C 
HETATM    8  N5  LIG X 999      45.034 123.326  22.489  1.00  0.00    -0.199 NA
HETATM    9  H15 LIG X 999      45.425 122.383  22.255  1.00  0.00     0.150 HD
ENDROOT
BRANCH   3  10
HETATM   10  C4  LIG X 999      42.128 124.633  23.877  1.00  0.00     0.003 A 
HETATM   11  C5  LIG X 999      42.539 125.937  23.537  1.00  0.00     0.012 A 
HETATM   12  C6  LIG X 999      41.630 126.988  23.467  1.00  0.00     0.002 A 
HETATM   13  C7  LIG X 999      40.283 126.768  23.725  1.00  0.00     0.012 A 
HETATM   14  C8  LIG X 999      39.825 125.482  24.040  1.00  0.00    -0.025 A 
HETATM   15  C9  LIG X 999      38.456 125.279  24.278  1.00  0.00     0.012 A 
HETATM   16  C13 LIG X 999      40.739 124.390  24.109  1.00  0.00    -0.015 A 
HETATM   17  C10 LIG X 999      37.974 124.006  24.572  1.00  0.00     0.001 A 
HETATM   18  C11 LIG X 999      38.849 122.924  24.625  1.00  0.00     0.001 A 
HETATM   19  C12 LIG X 999      40.215 123.106  24.395  1.00  0.00     0.013 A 
ENDBRANCH   3  10
BRANCH   1  20
HETATM   20  C1  LIG X 999      46.464 124.783  23.800  1.00  0.00     0.164 C 
HETATM   21  N3  LIG X 999      47.590 124.625  23.181  1.00  0.00    -0.143 NA
BRANCH  21  22
HETATM   22  N2  LIG X 999      48.531 125.659  23.136  1.00  0.00    -0.052 NA
HETATM   23  N1  LIG X 999      49.420 125.668  22.229  1.00  0.00    -0.184 NA
HETATM   24  H1  LIG X 999      50.122 126.439  22.195  1.00  0.00     0.214 HD
ENDBRANCH  21  22
ENDBRANCH   1  20
TORSDOF 3
