REMARK VINA RESULT:      -3.2      0.000      0.000
REMARK  4 active torsions:
REMARK  status: ('A' for Active; 'I' for Inactive)
REMARK    1  A    between atoms: C5_5  and  O1_6 
REMARK    2  A    between atoms: O1_6  and  C6_7 
REMARK       I    between atoms: C6_7  and  N1_9 
REMARK    3  A    between atoms: C9_12  and  N2_13 
REMARK    4  A    between atoms: C11_18  and  N5_19 
ROOT
HETATM    1  N2  LIG X 999      48.118 124.201  20.804  1.00  0.00    -0.068 NA
HETATM    2  N3  LIG X 999      48.821 123.286  20.374  1.00  0.00    -0.162 NA
HETATM    3  N4  LIG X 999      49.527 122.375  19.942  1.00  0.00     0.068 N 
ENDROOT
BRANCH   1   4
HETATM    4  C9  LIG X 999      47.573 124.211  22.135  1.00  0.00     0.151 C 
HETATM    5  C5  LIG X 999      47.965 125.293  22.963  1.00  0.00     0.114 C 
HETATM    6  C4  LIG X 999      47.259 125.740  24.110  1.00  0.00     0.040 C 
HETATM    7  C3  LIG X 999      45.927 125.448  24.417  1.00  0.00     0.003 C 
HETATM    8  C2  LIG X 999      44.946 125.224  23.449  1.00  0.00     0.000 C 
HETATM    9  C1  LIG X 999      43.974 124.230  23.594  1.00  0.00     0.000 C 
HETATM   10  C13 LIG X 999      44.181 123.008  24.261  1.00  0.00     0.002 C 
HETATM   11  C12 LIG X 999      45.432 122.415  24.538  1.00  0.00     0.036 C 
HETATM   12  C11 LIG X 999      46.654 122.733  23.899  1.00  0.00     0.117 C 
HETATM   13  C10 LIG X 999      46.704 123.171  22.560  1.00  0.00     0.100 C 
HETATM   14 CL1  LIG X 999      45.618 122.413  21.388  1.00  0.00    -0.079 Cl
BRANCH   5  15
HETATM   15  O1  LIG X 999      49.132 125.974  22.583  1.00  0.00    -0.259 OA
BRANCH  15  16
HETATM   16  C6  LIG X 999      50.298 126.062  23.357  1.00  0.00     0.367 C 
HETATM   17  O2  LIG X 999      50.241 126.465  24.551  1.00  0.00    -0.238 OA
HETATM   18  N1  LIG X 999      51.555 125.636  22.803  1.00  0.00    -0.336 N 
HETATM   19  C7  LIG X 999      52.772 125.705  23.615  1.00  0.00     0.154 C 
HETATM   20  C8  LIG X 999      51.598 125.143  21.424  1.00  0.00     0.154 C 
ENDBRANCH  15  16
ENDBRANCH   5  15
BRANCH  12  21
HETATM   21  N5  LIG X 999      47.897 122.593  24.606  1.00  0.00    -0.071 NA
HETATM   22  N6  LIG X 999      48.978 122.484  24.025  1.00  0.00    -0.162 NA
HETATM   23  N7  LIG X 999      50.058 122.376  23.447  1.00  0.00     0.068 N 
ENDBRANCH  12  21
ENDBRANCH   1   4
TORSDOF 4
