REMARK VINA RESULT:      -2.9      2.868      5.278
REMARK  5 active torsions:
REMARK  status: ('A' for Active; 'I' for Inactive)
REMARK    1  A    between atoms: C3_3  and  O1_4 
REMARK    2  A    between atoms: O1_4  and  C4_5 
REMARK    3  A    between atoms: C5_6  and  C6_7 
REMARK    4  A    between atoms: C6_7  and  O2_8 
REMARK    5  A    between atoms: C17_20  and  N1_21 
ROOT
HETATM    1  C1  LIG X 999      48.448 124.804  21.427  1.00  0.00     0.014 C 
HETATM    2  C2  LIG X 999      47.554 125.116  22.172  1.00  0.00    -0.091 C 
HETATM    3  C3  LIG X 999      46.464 125.494  23.078  1.00  0.00     0.268 C 
ENDROOT
BRANCH   3   4
HETATM    4  O1  LIG X 999      45.589 126.427  22.446  1.00  0.00    -0.336 OA
BRANCH   4   5
HETATM    5  C4  LIG X 999      44.320 126.725  22.960  1.00  0.00     0.108 C 
HETATM    6  C5  LIG X 999      43.525 125.717  23.539  1.00  0.00     0.012 C 
HETATM    7  C7  LIG X 999      42.192 126.026  23.923  1.00  0.00    -0.014 C 
HETATM    8  C8  LIG X 999      41.310 125.025  24.398  1.00  0.00     0.013 C 
HETATM    9  C12 LIG X 999      41.701 127.362  23.784  1.00  0.00    -0.012 C 
HETATM   10  C9  LIG X 999      39.966 125.301  24.623  1.00  0.00     0.001 C 
HETATM   11  C10 LIG X 999      39.459 126.562  24.347  1.00  0.00     0.001 C 
HETATM   12  C11 LIG X 999      40.309 127.575  23.910  1.00  0.00     0.013 C 
HETATM   13  C13 LIG X 999      42.605 128.412  23.430  1.00  0.00     0.013 C 
HETATM   14  C14 LIG X 999      42.341 129.813  23.581  1.00  0.00    -0.045 C 
HETATM   15  C18 LIG X 999      43.876 128.050  22.920  1.00  0.00     0.105 C 
HETATM   16  C15 LIG X 999      41.271 130.384  24.480  1.00  0.00     0.049 C 
HETATM   17  C16 LIG X 999      43.209 130.743  22.986  1.00  0.00     0.063 C 
HETATM   18  C17 LIG X 999      44.391 130.312  22.377  1.00  0.00     0.186 C 
HETATM   19  N4  LIG X 999      44.703 128.997  22.402  1.00  0.00    -0.223 NA
BRANCH   6  20
HETATM   20  C6  LIG X 999      44.127 124.339  23.765  1.00  0.00     0.206 C 
BRANCH  20  21
HETATM   21  O2  LIG X 999      43.710 123.463  22.752  1.00  0.00    -0.396 OA
HETATM   22  H6  LIG X 999      43.048 123.951  22.196  1.00  0.00     0.209 HD
ENDBRANCH  20  21
ENDBRANCH   6  20
BRANCH  18  23
HETATM   23  N1  LIG X 999      45.315 131.231  21.780  1.00  0.00    -0.052 NA
HETATM   24  N2  LIG X 999      45.450 131.331  20.560  1.00  0.00    -0.160 NA
HETATM   25  N3  LIG X 999      45.587 131.433  19.342  1.00  0.00     0.068 N 
ENDBRANCH  18  23
ENDBRANCH   4   5
ENDBRANCH   3   4
TORSDOF 5
