REMARK VINA RESULT:      -2.3      4.909      7.269
REMARK  5 active torsions:
REMARK  status: ('A' for Active; 'I' for Inactive)
REMARK    1  A    between atoms: C3_3  and  N1_4 
REMARK    2  A    between atoms: N1_4  and  C6_7 
REMARK    3  A    between atoms: C6_7  and  C7_8 
REMARK    4  A    between atoms: C9_10  and  C10_11 
REMARK    5  A    between atoms: C11_14  and  N4_15 
ROOT
HETATM    1  C1  LIG X 999      49.644 136.792  20.473  1.00  0.00     0.013 C 
HETATM    2  C2  LIG X 999      48.738 136.226  21.031  1.00  0.00    -0.089 C 
HETATM    3  C3  LIG X 999      47.628 135.531  21.715  1.00  0.00     0.329 C 
ENDROOT
BRANCH   3   4
HETATM    4  N1  LIG X 999      48.049 134.286  22.430  1.00  0.00    -0.061 N 
HETATM    5  C4  LIG X 999      49.351 134.515  23.111  1.00  0.00     0.273 C 
HETATM    6  C5  LIG X 999      47.019 133.999  23.460  1.00  0.00     0.273 C 
BRANCH   4   7
HETATM    7  C6  LIG X 999      48.138 133.153  21.454  1.00  0.00     0.275 C 
BRANCH   7   8
HETATM    8  C7  LIG X 999      46.800 132.565  21.048  1.00  0.00    -0.035 C 
HETATM    9  C8  LIG X 999      46.651 131.235  20.901  1.00  0.00     0.001 C 
HETATM   10  C9  LIG X 999      45.347 130.648  20.380  1.00  0.00     0.054 C 
HETATM   11  C12 LIG X 999      45.196 129.167  20.810  1.00  0.00     0.023 C 
HETATM   12  C16 LIG X 999      44.145 131.503  20.911  1.00  0.00     0.028 C 
HETATM   13  C13 LIG X 999      44.961 129.010  22.316  1.00  0.00     0.002 C 
HETATM   14  C14 LIG X 999      43.727 129.800  22.753  1.00  0.00     0.001 C 
HETATM   15  C15 LIG X 999      43.892 131.283  22.420  1.00  0.00     0.010 C 
HETATM   16  C17 LIG X 999      44.410 132.972  20.675  1.00  0.00    -0.020 C 
HETATM   17  C18 LIG X 999      45.649 133.464  20.787  1.00  0.00     0.005 C 
BRANCH  10  18
HETATM   18  C10 LIG X 999      45.396 130.683  18.866  1.00  0.00     0.184 A 
HETATM   19  N2  LIG X 999      44.566 131.421  18.098  1.00  0.00    -0.124 NA
HETATM   20  N3  LIG X 999      44.929 131.214  16.841  1.00  0.00    -0.099 NA
HETATM   21  C11 LIG X 999      45.968 130.363  16.895  1.00  0.00     0.326 A 
HETATM   22  O1  LIG X 999      46.267 130.033  18.128  1.00  0.00    -0.255 OA
BRANCH  21  23
HETATM   23  N4  LIG X 999      46.656 129.884  15.742  1.00  0.00    -0.023 NA
HETATM   24  N5  LIG X 999      46.906 130.636  14.801  1.00  0.00    -0.158 NA
HETATM   25  N6  LIG X 999      47.155 131.387  13.859  1.00  0.00     0.068 N 
ENDBRANCH  21  23
ENDBRANCH  10  18
ENDBRANCH   7   8
ENDBRANCH   4   7
ENDBRANCH   3   4
TORSDOF 5
