REMARK VINA RESULT:      -7.8      2.397      4.167
REMARK  3 active torsions:
REMARK  status: ('A' for Active; 'I' for Inactive)
REMARK    1  A    between atoms: C3_3  and  O1_4 
REMARK    2  A    between atoms: O1_4  and  C4_5 
REMARK    3  A    between atoms: C5_7  and  C6_8 
ROOT
HETATM    1  C1  LIG X 999      45.333 127.260  22.503  1.00  0.00     0.014 C 
HETATM    2  C2  LIG X 999      44.634 128.085  23.033  1.00  0.00    -0.091 C 
HETATM    3  C3  LIG X 999      43.784 129.088  23.679  1.00  0.00     0.270 C 
ENDROOT
BRANCH   3   4
HETATM    4  O1  LIG X 999      43.083 129.817  22.679  1.00  0.00    -0.317 OA
BRANCH   4   5
HETATM    5  C4  LIG X 999      42.869 131.195  22.771  1.00  0.00     0.217 C 
HETATM    6  O2  LIG X 999      42.183 131.721  23.862  1.00  0.00    -0.164 OA
HETATM    7  C5  LIG X 999      43.340 132.029  21.836  1.00  0.00     0.078 C 
BRANCH   7   8
HETATM    8  C6  LIG X 999      44.081 131.596  20.631  1.00  0.00    -0.031 A 
HETATM    9  C7  LIG X 999      45.298 130.895  20.718  1.00  0.00     0.012 A 
HETATM   10  C8  LIG X 999      45.964 130.480  19.562  1.00  0.00     0.013 A 
HETATM   11  C9  LIG X 999      45.416 130.743  18.299  1.00  0.00    -0.026 A 
HETATM   12  C10 LIG X 999      46.077 130.330  17.132  1.00  0.00     0.012 A 
HETATM   13  C14 LIG X 999      44.179 131.424  18.201  1.00  0.00    -0.025 A 
HETATM   14  C11 LIG X 999      45.516 130.592  15.878  1.00  0.00     0.001 A 
HETATM   15  C12 LIG X 999      44.295 131.264  15.780  1.00  0.00     0.001 A 
HETATM   16  C13 LIG X 999      43.626 131.679  16.936  1.00  0.00     0.012 A 
HETATM   17  C15 LIG X 999      43.518 131.837  19.368  1.00  0.00     0.024 A 
ENDBRANCH   7   8
ENDBRANCH   4   5
ENDBRANCH   3   4
TORSDOF 3
