REMARK VINA RESULT:      -8.1      0.965      1.128
REMARK  2 active torsions:
REMARK  status: ('A' for Active; 'I' for Inactive)
REMARK    1  A    between atoms: N1_1  and  C1_2 
REMARK    2  A    between atoms: C2_5  and  C3_6 
ROOT
HETATM    1  C3  LIG X 999      44.313 131.383  17.552  1.00  0.00     0.030 A 
HETATM    2  C4  LIG X 999      43.078 131.806  17.028  1.00  0.00     0.017 A 
HETATM    3  C5  LIG X 999      42.045 132.213  17.869  1.00  0.00     0.002 A 
HETATM    4  C6  LIG X 999      42.217 132.204  19.250  1.00  0.00     0.012 A 
HETATM    5  C7  LIG X 999      43.424 131.763  19.809  1.00  0.00    -0.025 A 
HETATM    6  C8  LIG X 999      43.575 131.734  21.204  1.00  0.00     0.012 A 
HETATM    7  C9  LIG X 999      44.756 131.262  21.775  1.00  0.00     0.001 A 
HETATM    8  C10 LIG X 999      45.790 130.801  20.961  1.00  0.00     0.001 A 
HETATM    9  C11 LIG X 999      45.657 130.824  19.570  1.00  0.00     0.013 A 
HETATM   10  C12 LIG X 999      44.485 131.329  18.965  1.00  0.00    -0.011 A 
ENDROOT
BRANCH   1  11
HETATM   11  C2  LIG X 999      45.388 131.049  16.588  1.00  0.00     0.203 A 
HETATM   12  N3  LIG X 999      46.137 129.925  16.655  1.00  0.00    -0.145 NA
HETATM   13  N2  LIG X 999      46.950 129.975  15.615  1.00  0.00    -0.240 N 
HETATM   14  C1  LIG X 999      46.671 131.106  14.950  1.00  0.00     0.240 A 
HETATM   15  H3  LIG X 999      47.664 129.252  15.374  1.00  0.00     0.193 HD
HETATM   16  O1  LIG X 999      45.709 131.775  15.536  1.00  0.00    -0.257 OA
BRANCH  14  17
HETATM   17  N1  LIG X 999      47.335 131.524  13.761  1.00  0.00    -0.364 N 
HETATM   18  H1  LIG X 999      47.415 132.542  13.537  1.00  0.00     0.159 HD
HETATM   19  H2  LIG X 999      47.743 130.821  13.108  1.00  0.00     0.159 HD
ENDBRANCH  14  17
ENDBRANCH   1  11
TORSDOF 2
