REMARK VINA RESULT:      -6.9      2.377      3.001
REMARK  4 active torsions:
REMARK  status: ('A' for Active; 'I' for Inactive)
REMARK    1  A    between atoms: C5_5  and  N1_6 
REMARK    2  A    between atoms: C7_10  and  S1_11 
REMARK    3  A    between atoms: S1_11  and  C8_14 
REMARK    4  A    between atoms: C8_14  and  C9_15 
ROOT
HETATM    1  N1  LIG X 999      41.457 132.484  19.078  1.00  0.00    -0.072 NA
HETATM    2  N2  LIG X 999      41.211 133.070  20.133  1.00  0.00    -0.162 NA
HETATM    3  N3  LIG X 999      40.965 133.655  21.187  1.00  0.00     0.068 N 
ENDROOT
BRANCH   1   4
HETATM    4  C5  LIG X 999      42.759 131.961  18.769  1.00  0.00     0.105 A 
HETATM    5  C4  LIG X 999      43.614 131.541  19.813  1.00  0.00     0.006 A 
HETATM    6  C3  LIG X 999      43.218 131.620  21.163  1.00  0.00     0.014 A 
HETATM    7  C13 LIG X 999      44.902 131.031  19.502  1.00  0.00    -0.022 A 
HETATM    8  C2  LIG X 999      44.083 131.204  22.179  1.00  0.00     0.001 A 
HETATM    9  C1  LIG X 999      45.349 130.706  21.867  1.00  0.00     0.001 A 
HETATM   10  C14 LIG X 999      45.760 130.619  20.535  1.00  0.00     0.012 A 
HETATM   11  C12 LIG X 999      45.317 130.943  18.168  1.00  0.00     0.035 A 
HETATM   12  C7  LIG X 999      44.468 131.356  17.134  1.00  0.00     0.063 A 
HETATM   13  C6  LIG X 999      43.201 131.867  17.435  1.00  0.00     0.058 A 
BRANCH  12  14
HETATM   14  S1  LIG X 999      45.016 131.278  15.461  1.00  0.00     0.186 S 
HETATM   15  O1  LIG X 999      46.242 132.131  15.290  1.00  0.00    -0.222 OA
HETATM   16  O2  LIG X 999      43.941 131.798  14.548  1.00  0.00    -0.222 OA
BRANCH  14  17
HETATM   17  C8  LIG X 999      45.405 129.593  15.033  1.00  0.00     0.239 C 
BRANCH  17  18
HETATM   18  C9  LIG X 999      46.728 129.529  14.408  1.00  0.00    -0.092 C 
HETATM   19  C10 LIG X 999      47.812 129.487  13.883  1.00  0.00    -0.110 C 
HETATM   20  C11 LIG X 999      49.124 129.444  13.240  1.00  0.00     0.112 C 
ENDBRANCH  17  18
ENDBRANCH  14  17
ENDBRANCH  12  14
ENDBRANCH   1   4
TORSDOF 4
