MODEL 1
REMARK VINA RESULT:      -8.7      0.000      0.000
REMARK  2 active torsions:
REMARK  status: ('A' for Active; 'I' for Inactive)
REMARK    1  A    between atoms: C1_1  and  N1_2 
REMARK    2  A    between atoms: C2_5  and  C3_7 
ROOT
HETATM    1  N1  LIG X 999      46.906 131.379  13.987  1.00  0.00    -0.082 NA
HETATM    2  N2  LIG X 999      47.649 130.447  13.679  1.00  0.00    -0.163 NA
HETATM    3  N3  LIG X 999      48.391 129.516  13.370  1.00  0.00     0.068 N 
ENDROOT
BRANCH   1   4
HETATM    4  C1  LIG X 999      46.394 131.490  15.315  1.00  0.00     0.196 C 
HETATM    5  C2  LIG X 999      45.084 131.336  15.546  1.00  0.00     0.137 C 
HETATM    6  O1  LIG X 999      44.241 131.041  14.479  1.00  0.00    -0.190 OA
BRANCH   5   7
HETATM    7  C3  LIG X 999      44.501 131.447  16.910  1.00  0.00     0.003 A 
HETATM    8  C4  LIG X 999      43.150 131.806  17.050  1.00  0.00     0.015 A 
HETATM    9  C5  LIG X 999      42.570 131.929  18.315  1.00  0.00     0.013 A 
HETATM   10  C6  LIG X 999      43.336 131.702  19.467  1.00  0.00    -0.026 A 
HETATM   11  C7  LIG X 999      42.762 131.823  20.743  1.00  0.00     0.012 A 
HETATM   12  C11 LIG X 999      44.701 131.354  19.342  1.00  0.00    -0.025 A 
HETATM   13  C8  LIG X 999      43.538 131.602  21.884  1.00  0.00     0.001 A 
HETATM   14  C9  LIG X 999      44.887 131.261  21.761  1.00  0.00     0.001 A 
HETATM   15  C10 LIG X 999      45.470 131.137  20.497  1.00  0.00     0.012 A 
HETATM   16  C12 LIG X 999      45.276 131.232  18.067  1.00  0.00     0.026 A 
ENDBRANCH   5   7
ENDBRANCH   1   4
TORSDOF 2
ENDMDL
MODEL 2
REMARK VINA RESULT:      -8.3      4.628      6.647
REMARK  2 active torsions:
REMARK  status: ('A' for Active; 'I' for Inactive)
REMARK    1  A    between atoms: C1_1  and  N1_2 
REMARK    2  A    between atoms: C2_5  and  C3_7 
ROOT
HETATM    1  N1  LIG X 999      42.441 132.161  21.713  1.00  0.00    -0.082 NA
HETATM    2  N2  LIG X 999      42.633 131.957  22.912  1.00  0.00    -0.163 NA
HETATM    3  N3  LIG X 999      42.823 131.754  24.110  1.00  0.00     0.068 N 
ENDROOT
BRANCH   1   4
HETATM    4  C1  LIG X 999      43.380 131.705  20.740  1.00  0.00     0.196 C 
HETATM    5  C2  LIG X 999      43.144 131.891  19.436  1.00  0.00     0.137 C 
HETATM    6  O1  LIG X 999      41.984 132.559  19.049  1.00  0.00    -0.190 OA
BRANCH   5   7
HETATM    7  C3  LIG X 999      44.088 131.431  18.384  1.00  0.00     0.003 A 
HETATM    8  C4  LIG X 999      45.265 130.764  18.765  1.00  0.00     0.015 A 
HETATM    9  C5  LIG X 999      46.181 130.326  17.805  1.00  0.00     0.013 A 
HETATM   10  C6  LIG X 999      45.941 130.555  16.444  1.00  0.00    -0.026 A 
HETATM   11  C7  LIG X 999      46.855 130.119  15.472  1.00  0.00     0.012 A 
HETATM   12  C11 LIG X 999      44.768 131.239  16.046  1.00  0.00    -0.025 A 
HETATM   13  C8  LIG X 999      46.608 130.361  14.117  1.00  0.00     0.001 A 
HETATM   14  C9  LIG X 999      45.451 131.038  13.724  1.00  0.00     0.001 A 
HETATM   15  C10 LIG X 999      44.533 131.477  14.682  1.00  0.00     0.012 A 
HETATM   16  C12 LIG X 999      43.852 131.675  17.016  1.00  0.00     0.026 A 
ENDBRANCH   5   7
ENDBRANCH   1   4
TORSDOF 2
ENDMDL
MODEL 3
REMARK VINA RESULT:      -8.2      0.926      1.994
REMARK  2 active torsions:
REMARK  status: ('A' for Active; 'I' for Inactive)
REMARK    1  A    between atoms: C1_1  and  N1_2 
REMARK    2  A    between atoms: C2_5  and  C3_7 
ROOT
HETATM    1  N1  LIG X 999      45.986 131.340  14.248  1.00  0.00    -0.082 NA
HETATM    2  N2  LIG X 999      46.991 131.000  13.624  1.00  0.00    -0.163 NA
HETATM    3  N3  LIG X 999      47.995 130.661  12.999  1.00  0.00     0.068 N 
ENDROOT
BRANCH   1   4
HETATM    4  C1  LIG X 999      45.951 131.251  15.673  1.00  0.00     0.196 C 
HETATM    5  C2  LIG X 999      44.797 131.416  16.330  1.00  0.00     0.137 C 
HETATM    6  O1  LIG X 999      43.633 131.649  15.602  1.00  0.00    -0.190 OA
BRANCH   5   7
HETATM    7  C3  LIG X 999      44.710 131.337  17.812  1.00  0.00     0.003 A 
HETATM    8  C4  LIG X 999      45.753 130.725  18.528  1.00  0.00     0.015 A 
HETATM    9  C5  LIG X 999      45.701 130.623  19.921  1.00  0.00     0.013 A 
HETATM   10  C6  LIG X 999      44.598 131.125  20.624  1.00  0.00    -0.026 A 
HETATM   11  C7  LIG X 999      44.537 131.027  22.023  1.00  0.00     0.012 A 
HETATM   12  C11 LIG X 999      43.534 131.731  19.916  1.00  0.00    -0.025 A 
HETATM   13  C8  LIG X 999      43.428 131.526  22.713  1.00  0.00     0.001 A 
HETATM   14  C9  LIG X 999      42.375 132.122  22.014  1.00  0.00     0.001 A 
HETATM   15  C10 LIG X 999      42.425 132.225  20.622  1.00  0.00     0.012 A 
HETATM   16  C12 LIG X 999      43.594 131.830  18.517  1.00  0.00     0.026 A 
ENDBRANCH   5   7
ENDBRANCH   1   4
TORSDOF 2
ENDMDL
MODEL 4
REMARK VINA RESULT:      -8.2      4.031      6.549
REMARK  2 active torsions:
REMARK  status: ('A' for Active; 'I' for Inactive)
REMARK    1  A    between atoms: C1_1  and  N1_2 
REMARK    2  A    between atoms: C2_5  and  C3_7 
ROOT
HETATM    1  N1  LIG X 999      43.287 132.431  20.131  1.00  0.00    -0.082 NA
HETATM    2  N2  LIG X 999      43.070 131.945  21.241  1.00  0.00    -0.163 NA
HETATM    3  N3  LIG X 999      42.852 131.461  22.350  1.00  0.00     0.068 N 
ENDROOT
BRANCH   1   4
HETATM    4  C1  LIG X 999      44.269 131.858  19.268  1.00  0.00     0.196 C 
HETATM    5  C2  LIG X 999      43.994 131.655  17.974  1.00  0.00     0.137 C 
HETATM    6  O1  LIG X 999      42.748 132.037  17.482  1.00  0.00    -0.190 OA
BRANCH   5   7
HETATM    7  C3  LIG X 999      44.981 131.058  17.036  1.00  0.00     0.003 A 
HETATM    8  C4  LIG X 999      45.598 129.842  17.374  1.00  0.00     0.015 A 
HETATM    9  C5  LIG X 999      46.538 129.256  16.522  1.00  0.00     0.013 A 
HETATM   10  C6  LIG X 999      46.885 129.881  15.317  1.00  0.00    -0.026 A 
HETATM   11  C7  LIG X 999      47.828 129.300  14.455  1.00  0.00     0.012 A 
HETATM   12  C11 LIG X 999      46.283 131.114  14.970  1.00  0.00    -0.025 A 
HETATM   13  C8  LIG X 999      48.171 129.938  13.260  1.00  0.00     0.001 A 
HETATM   14  C9  LIG X 999      47.579 131.156  12.917  1.00  0.00     0.001 A 
HETATM   15  C10 LIG X 999      46.639 131.744  13.767  1.00  0.00     0.012 A 
HETATM   16  C12 LIG X 999      45.339 131.696  15.831  1.00  0.00     0.026 A 
ENDBRANCH   5   7
ENDBRANCH   1   4
TORSDOF 2
ENDMDL
MODEL 5
REMARK VINA RESULT:      -8.0      4.663      6.418
REMARK  2 active torsions:
REMARK  status: ('A' for Active; 'I' for Inactive)
REMARK    1  A    between atoms: C1_1  and  N1_2 
REMARK    2  A    between atoms: C2_5  and  C3_7 
ROOT
HETATM    1  N1  LIG X 999      43.305 131.445  22.192  1.00  0.00    -0.082 NA
HETATM    2  N2  LIG X 999      42.887 130.463  22.805  1.00  0.00    -0.163 NA
HETATM    3  N3  LIG X 999      42.468 129.483  23.419  1.00  0.00     0.068 N 
ENDROOT
BRANCH   1   4
HETATM    4  C1  LIG X 999      43.374 131.435  20.766  1.00  0.00     0.196 C 
HETATM    5  C2  LIG X 999      44.541 131.212  20.150  1.00  0.00     0.137 C 
HETATM    6  O1  LIG X 999      45.674 130.964  20.920  1.00  0.00    -0.190 OA
BRANCH   5   7
HETATM    7  C3  LIG X 999      44.666 131.196  18.668  1.00  0.00     0.003 A 
HETATM    8  C4  LIG X 999      43.641 131.757  17.888  1.00  0.00     0.015 A 
HETATM    9  C5  LIG X 999      43.719 131.751  16.493  1.00  0.00     0.013 A 
HETATM   10  C6  LIG X 999      44.823 131.176  15.851  1.00  0.00    -0.026 A 
HETATM   11  C7  LIG X 999      44.910 131.165  14.450  1.00  0.00     0.012 A 
HETATM   12  C11 LIG X 999      45.856 130.594  16.622  1.00  0.00    -0.025 A 
HETATM   13  C8  LIG X 999      46.013 130.580  13.820  1.00  0.00     0.001 A 
HETATM   14  C9  LIG X 999      47.032 130.004  14.581  1.00  0.00     0.001 A 
HETATM   15  C10 LIG X 999      46.957 130.008  15.977  1.00  0.00     0.012 A 
HETATM   16  C12 LIG X 999      45.770 130.604  18.023  1.00  0.00     0.026 A 
ENDBRANCH   5   7
ENDBRANCH   1   4
TORSDOF 2
ENDMDL
MODEL 6
REMARK VINA RESULT:      -6.7      1.357      2.033
REMARK  2 active torsions:
REMARK  status: ('A' for Active; 'I' for Inactive)
REMARK    1  A    between atoms: C1_1  and  N1_2 
REMARK    2  A    between atoms: C2_5  and  C3_7 
ROOT
HETATM    1  N1  LIG X 999      45.876 131.617  15.653  1.00  0.00    -0.082 NA
HETATM    2  N2  LIG X 999      46.612 130.740  15.200  1.00  0.00    -0.163 NA
HETATM    3  N3  LIG X 999      47.347 129.864  14.747  1.00  0.00     0.068 N 
ENDROOT
BRANCH   1   4
HETATM    4  C1  LIG X 999      45.509 131.615  17.032  1.00  0.00     0.196 C 
HETATM    5  C2  LIG X 999      44.220 131.685  17.386  1.00  0.00     0.137 C 
HETATM    6  O1  LIG X 999      43.248 131.730  16.390  1.00  0.00    -0.190 OA
BRANCH   5   7
HETATM    7  C3  LIG X 999      43.787 131.691  18.808  1.00  0.00     0.003 A 
HETATM    8  C4  LIG X 999      42.654 132.436  19.176  1.00  0.00     0.015 A 
HETATM    9  C5  LIG X 999      42.223 132.474  20.505  1.00  0.00     0.013 A 
HETATM   10  C6  LIG X 999      42.924 131.771  21.494  1.00  0.00    -0.026 A 
HETATM   11  C7  LIG X 999      42.499 131.803  22.832  1.00  0.00     0.012 A 
HETATM   12  C11 LIG X 999      44.075 131.029  21.142  1.00  0.00    -0.025 A 
HETATM   13  C8  LIG X 999      43.212 131.104  23.811  1.00  0.00     0.001 A 
HETATM   14  C9  LIG X 999      44.350 130.373  23.463  1.00  0.00     0.001 A 
HETATM   15  C10 LIG X 999      44.783 130.334  22.135  1.00  0.00     0.012 A 
HETATM   16  C12 LIG X 999      44.502 130.996  19.805  1.00  0.00     0.026 A 
ENDBRANCH   5   7
ENDBRANCH   1   4
TORSDOF 2
ENDMDL
MODEL 7
REMARK VINA RESULT:      -6.5      2.037      3.191
REMARK  2 active torsions:
REMARK  status: ('A' for Active; 'I' for Inactive)
REMARK    1  A    between atoms: C1_1  and  N1_2 
REMARK    2  A    between atoms: C2_5  and  C3_7 
ROOT
HETATM    1  N1  LIG X 999      44.952 131.815  15.301  1.00  0.00    -0.082 NA
HETATM    2  N2  LIG X 999      44.064 131.635  14.468  1.00  0.00    -0.163 NA
HETATM    3  N3  LIG X 999      43.178 131.456  13.635  1.00  0.00     0.068 N 
ENDROOT
BRANCH   1   4
HETATM    4  C1  LIG X 999      44.645 131.843  16.695  1.00  0.00     0.196 C 
HETATM    5  C2  LIG X 999      45.268 131.012  17.540  1.00  0.00     0.137 C 
HETATM    6  O1  LIG X 999      46.236 130.144  17.041  1.00  0.00    -0.190 OA
BRANCH   5   7
HETATM    7  C3  LIG X 999      44.980 131.001  18.998  1.00  0.00     0.003 A 
HETATM    8  C4  LIG X 999      45.854 130.321  19.864  1.00  0.00     0.015 A 
HETATM    9  C5  LIG X 999      45.611 130.281  21.239  1.00  0.00     0.013 A 
HETATM   10  C6  LIG X 999      44.481 130.913  21.774  1.00  0.00    -0.026 A 
HETATM   11  C7  LIG X 999      44.227 130.877  23.155  1.00  0.00     0.012 A 
HETATM   12  C11 LIG X 999      43.583 131.588  20.914  1.00  0.00    -0.025 A 
HETATM   13  C8  LIG X 999      43.092 131.505  23.675  1.00  0.00     0.001 A 
HETATM   14  C9  LIG X 999      42.204 132.170  22.826  1.00  0.00     0.001 A 
HETATM   15  C10 LIG X 999      42.446 132.212  21.450  1.00  0.00     0.012 A 
HETATM   16  C12 LIG X 999      43.836 131.625  19.533  1.00  0.00     0.026 A 
ENDBRANCH   5   7
ENDBRANCH   1   4
TORSDOF 2
ENDMDL
