MODEL 1
REMARK VINA RESULT:      -8.4      0.000      0.000
REMARK  1 active torsions:
REMARK  status: ('A' for Active; 'I' for Inactive)
REMARK    1  A    between atoms: C8_9  and  N2_10 
ROOT
HETATM    1  C1  LIG X 999      45.312 129.500  14.875  1.00  0.00     0.283 C 
HETATM    2  N1  LIG X 999      45.622 130.694  15.688  1.00  0.00    -0.005 N 
HETATM    3  C2  LIG X 999      46.392 131.676  14.896  1.00  0.00     0.283 C 
HETATM    4  C3  LIG X 999      46.349 130.322  16.947  1.00  0.00     0.286 A 
HETATM    5  C4  LIG X 999      45.463 130.751  18.075  1.00  0.00    -0.015 A 
HETATM    6  C5  LIG X 999      45.691 130.625  19.445  1.00  0.00     0.022 A 
HETATM    7  C6  LIG X 999      44.711 131.103  20.339  1.00  0.00    -0.023 A 
HETATM    8  C7  LIG X 999      44.898 130.998  21.726  1.00  0.00     0.041 A 
HETATM    9  C8  LIG X 999      43.921 131.475  22.611  1.00  0.00     0.026 A 
HETATM   10  C9  LIG X 999      42.750 132.060  22.107  1.00  0.00     0.030 A 
HETATM   11  C10 LIG X 999      42.549 132.172  20.729  1.00  0.00     0.014 A 
HETATM   12  C11 LIG X 999      43.518 131.700  19.834  1.00  0.00    -0.025 A 
HETATM   13  C12 LIG X 999      43.323 131.809  18.443  1.00  0.00     0.030 A 
HETATM   14  C13 LIG X 999      44.321 131.323  17.599  1.00  0.00     0.049 A 
HETATM   15  C14 LIG X 999      44.398 131.297  16.164  1.00  0.00     0.351 A 
HETATM   16  O1  LIG X 999      43.500 131.750  15.402  1.00  0.00    -0.259 OA
ENDROOT
BRANCH   9  17
HETATM   17  N2  LIG X 999      44.116 131.365  24.023  1.00  0.00    -0.399 N 
HETATM   18  H11 LIG X 999      44.820 130.700  24.416  1.00  0.00     0.156 HD
HETATM   19  H12 LIG X 999      43.558 131.947  24.688  1.00  0.00     0.156 HD
ENDBRANCH   9  17
TORSDOF 1
ENDMDL
MODEL 2
REMARK VINA RESULT:      -7.8      1.799      5.827
REMARK  1 active torsions:
REMARK  status: ('A' for Active; 'I' for Inactive)
REMARK    1  A    between atoms: C8_9  and  N2_10 
ROOT
HETATM    1  C1  LIG X 999      44.617 132.312  22.519  1.00  0.00     0.283 C 
HETATM    2  N1  LIG X 999      44.184 131.216  21.628  1.00  0.00    -0.005 N 
HETATM    3  C2  LIG X 999      43.372 130.231  22.373  1.00  0.00     0.283 C 
HETATM    4  C3  LIG X 999      45.357 130.559  20.961  1.00  0.00     0.286 A 
HETATM    5  C4  LIG X 999      45.168 130.775  19.492  1.00  0.00    -0.015 A 
HETATM    6  C5  LIG X 999      45.991 130.356  18.446  1.00  0.00     0.022 A 
HETATM    7  C6  LIG X 999      45.616 130.672  17.124  1.00  0.00    -0.023 A 
HETATM    8  C7  LIG X 999      46.414 130.270  16.042  1.00  0.00     0.041 A 
HETATM    9  C8  LIG X 999      46.037 130.587  14.728  1.00  0.00     0.026 A 
HETATM   10  C9  LIG X 999      44.857 131.309  14.497  1.00  0.00     0.030 A 
HETATM   11  C10 LIG X 999      44.053 131.716  15.564  1.00  0.00     0.014 A 
HETATM   12  C11 LIG X 999      44.418 131.406  16.880  1.00  0.00    -0.025 A 
HETATM   13  C12 LIG X 999      43.612 131.813  17.963  1.00  0.00     0.030 A 
HETATM   14  C13 LIG X 999      44.024 131.476  19.251  1.00  0.00     0.049 A 
HETATM   15  C14 LIG X 999      43.417 131.751  20.526  1.00  0.00     0.351 A 
HETATM   16  O1  LIG X 999      42.337 132.387  20.669  1.00  0.00    -0.259 OA
ENDROOT
BRANCH   9  17
HETATM   17  N2  LIG X 999      46.853 130.175  13.629  1.00  0.00    -0.399 N 
HETATM   18  H11 LIG X 999      46.610 129.327  13.070  1.00  0.00     0.156 HD
HETATM   19  H12 LIG X 999      47.708 130.716  13.365  1.00  0.00     0.156 HD
ENDBRANCH   9  17
TORSDOF 1
ENDMDL
MODEL 3
REMARK VINA RESULT:      -7.7      1.227      2.313
REMARK  1 active torsions:
REMARK  status: ('A' for Active; 'I' for Inactive)
REMARK    1  A    between atoms: C8_9  and  N2_10 
ROOT
HETATM    1  C1  LIG X 999      46.129 132.038  14.951  1.00  0.00     0.283 C 
HETATM    2  N1  LIG X 999      45.271 131.053  15.641  1.00  0.00    -0.005 N 
HETATM    3  C2  LIG X 999      44.902 129.954  14.724  1.00  0.00     0.283 C 
HETATM    4  C3  LIG X 999      44.052 131.707  16.224  1.00  0.00     0.286 A 
HETATM    5  C4  LIG X 999      44.140 131.493  17.703  1.00  0.00    -0.015 A 
HETATM    6  C5  LIG X 999      43.246 131.912  18.689  1.00  0.00     0.022 A 
HETATM    7  C6  LIG X 999      43.529 131.598  20.034  1.00  0.00    -0.023 A 
HETATM    8  C7  LIG X 999      42.658 132.000  21.058  1.00  0.00     0.041 A 
HETATM    9  C8  LIG X 999      42.944 131.685  22.395  1.00  0.00     0.026 A 
HETATM   10  C9  LIG X 999      44.107 130.967  22.709  1.00  0.00     0.030 A 
HETATM   11  C10 LIG X 999      44.984 130.561  21.700  1.00  0.00     0.014 A 
HETATM   12  C11 LIG X 999      44.710 130.868  20.361  1.00  0.00    -0.025 A 
HETATM   13  C12 LIG X 999      45.589 130.462  19.338  1.00  0.00     0.030 A 
HETATM   14  C13 LIG X 999      45.266 130.795  18.023  1.00  0.00     0.049 A 
HETATM   15  C14 LIG X 999      45.960 130.521  16.794  1.00  0.00     0.351 A 
HETATM   16  O1  LIG X 999      47.049 129.887  16.726  1.00  0.00    -0.259 OA
ENDROOT
BRANCH   9  17
HETATM   17  N2  LIG X 999      42.053 132.097  23.435  1.00  0.00    -0.399 N 
HETATM   18  H11 LIG X 999      41.238 132.716  23.228  1.00  0.00     0.156 HD
HETATM   19  H12 LIG X 999      42.201 131.785  24.421  1.00  0.00     0.156 HD
ENDBRANCH   9  17
TORSDOF 1
ENDMDL
MODEL 4
REMARK VINA RESULT:      -7.0      2.026      5.972
REMARK  1 active torsions:
REMARK  status: ('A' for Active; 'I' for Inactive)
REMARK    1  A    between atoms: C8_9  and  N2_10 
ROOT
HETATM    1  C1  LIG X 999      43.932 132.278  24.314  1.00  0.00     0.283 C 
HETATM    2  N1  LIG X 999      43.516 131.228  23.361  1.00  0.00    -0.005 N 
HETATM    3  C2  LIG X 999      42.579 130.284  24.005  1.00  0.00     0.283 C 
HETATM    4  C3  LIG X 999      44.704 130.510  22.789  1.00  0.00     0.286 A 
HETATM    5  C4  LIG X 999      44.666 130.764  21.315  1.00  0.00    -0.015 A 
HETATM    6  C5  LIG X 999      45.555 130.312  20.339  1.00  0.00     0.022 A 
HETATM    7  C6  LIG X 999      45.326 130.675  18.996  1.00  0.00    -0.023 A 
HETATM    8  C7  LIG X 999      46.194 130.242  17.982  1.00  0.00     0.041 A 
HETATM    9  C8  LIG X 999      45.962 130.606  16.648  1.00  0.00     0.026 A 
HETATM   10  C9  LIG X 999      44.857 131.407  16.326  1.00  0.00     0.030 A 
HETATM   11  C10 LIG X 999      43.983 131.846  17.324  1.00  0.00     0.014 A 
HETATM   12  C11 LIG X 999      44.204 131.489  18.661  1.00  0.00    -0.025 A 
HETATM   13  C12 LIG X 999      43.327 131.927  19.674  1.00  0.00     0.030 A 
HETATM   14  C13 LIG X 999      43.595 131.541  20.987  1.00  0.00     0.049 A 
HETATM   15  C14 LIG X 999      42.891 131.831  22.206  1.00  0.00     0.351 A 
HETATM   16  O1  LIG X 999      41.844 132.533  22.265  1.00  0.00    -0.259 OA
ENDROOT
BRANCH   9  17
HETATM   17  N2  LIG X 999      46.850 130.163  15.619  1.00  0.00    -0.399 N 
HETATM   18  H11 LIG X 999      47.087 130.783  14.812  1.00  0.00     0.156 HD
HETATM   19  H12 LIG X 999      47.279 129.211  15.656  1.00  0.00     0.156 HD
ENDBRANCH   9  17
TORSDOF 1
ENDMDL
MODEL 5
REMARK VINA RESULT:      -6.6      2.296      6.253
REMARK  1 active torsions:
REMARK  status: ('A' for Active; 'I' for Inactive)
REMARK    1  A    between atoms: C8_9  and  N2_10 
ROOT
HETATM    1  C1  LIG X 999      42.203 130.210  23.707  1.00  0.00     0.283 C 
HETATM    2  N1  LIG X 999      43.243 131.116  23.179  1.00  0.00    -0.005 N 
HETATM    3  C2  LIG X 999      43.775 131.978  24.255  1.00  0.00     0.283 C 
HETATM    4  C3  LIG X 999      42.722 131.935  22.034  1.00  0.00     0.286 A 
HETATM    5  C4  LIG X 999      43.557 131.561  20.849  1.00  0.00    -0.015 A 
HETATM    6  C5  LIG X 999      43.466 132.046  19.544  1.00  0.00     0.022 A 
HETATM    7  C6  LIG X 999      44.363 131.549  18.576  1.00  0.00    -0.023 A 
HETATM    8  C7  LIG X 999      44.309 132.009  17.251  1.00  0.00     0.041 A 
HETATM    9  C8  LIG X 999      45.203 131.512  16.292  1.00  0.00     0.026 A 
HETATM   10  C9  LIG X 999      46.156 130.551  16.659  1.00  0.00     0.030 A 
HETATM   11  C10 LIG X 999      46.222 130.083  17.974  1.00  0.00     0.014 A 
HETATM   12  C11 LIG X 999      45.335 130.572  18.942  1.00  0.00    -0.025 A 
HETATM   13  C12 LIG X 999      45.396 130.106  20.270  1.00  0.00     0.030 A 
HETATM   14  C13 LIG X 999      44.489 130.627  21.191  1.00  0.00     0.049 A 
HETATM   15  C14 LIG X 999      44.315 130.346  22.591  1.00  0.00     0.351 A 
HETATM   16  O1  LIG X 999      45.019 129.521  23.236  1.00  0.00    -0.259 OA
ENDROOT
BRANCH   9  17
HETATM   17  N2  LIG X 999      45.143 131.984  14.944  1.00  0.00    -0.399 N 
HETATM   18  H11 LIG X 999      45.562 131.430  14.163  1.00  0.00     0.156 HD
HETATM   19  H12 LIG X 999      44.678 132.891  14.714  1.00  0.00     0.156 HD
ENDBRANCH   9  17
TORSDOF 1
ENDMDL
MODEL 6
REMARK VINA RESULT:      -5.8      2.204      6.286
REMARK  1 active torsions:
REMARK  status: ('A' for Active; 'I' for Inactive)
REMARK    1  A    between atoms: C8_9  and  N2_10 
ROOT
HETATM    1  C1  LIG X 999      43.010 131.078  21.167  1.00  0.00     0.283 C 
HETATM    2  N1  LIG X 999      44.309 131.580  20.675  1.00  0.00    -0.005 N 
HETATM    3  C2  LIG X 999      45.024 132.306  21.745  1.00  0.00     0.283 C 
HETATM    4  C3  LIG X 999      44.134 132.440  19.457  1.00  0.00     0.286 A 
HETATM    5  C4  LIG X 999      44.874 131.746  18.356  1.00  0.00    -0.015 A 
HETATM    6  C5  LIG X 999      45.012 132.146  17.027  1.00  0.00     0.022 A 
HETATM    7  C6  LIG X 999      45.761 131.331  16.152  1.00  0.00    -0.023 A 
HETATM    8  C7  LIG X 999      45.926 131.694  14.806  1.00  0.00     0.041 A 
HETATM    9  C8  LIG X 999      46.671 130.881  13.940  1.00  0.00     0.026 A 
HETATM   10  C9  LIG X 999      47.253 129.700  14.421  1.00  0.00     0.030 A 
HETATM   11  C10 LIG X 999      47.097 129.325  15.758  1.00  0.00     0.014 A 
HETATM   12  C11 LIG X 999      46.356 130.129  16.634  1.00  0.00    -0.025 A 
HETATM   13  C12 LIG X 999      46.194 129.758  17.984  1.00  0.00     0.030 A 
HETATM   14  C13 LIG X 999      45.446 130.595  18.810  1.00  0.00     0.049 A 
HETATM   15  C14 LIG X 999      45.116 130.478  20.205  1.00  0.00     0.351 A 
HETATM   16  O1  LIG X 999      45.489 129.522  20.938  1.00  0.00    -0.259 OA
ENDROOT
BRANCH   9  17
HETATM   17  N2  LIG X 999      46.836 131.255  12.570  1.00  0.00    -0.399 N 
HETATM   18  H11 LIG X 999      46.983 130.531  11.831  1.00  0.00     0.156 HD
HETATM   19  H12 LIG X 999      46.812 132.259  12.282  1.00  0.00     0.156 HD
ENDBRANCH   9  17
TORSDOF 1
ENDMDL
