MODEL 1
REMARK VINA RESULT:      -8.5      0.000      0.000
REMARK  3 active torsions:
REMARK  status: ('A' for Active; 'I' for Inactive)
REMARK    1  A    between atoms: C3_3  and  S1_4 
REMARK    2  A    between atoms: S1_4  and  C4_7 
REMARK    3  A    between atoms: C13_16  and  N1_17 
ROOT
HETATM    1  C1  LIG X 999      47.479 130.767  13.374  1.00  0.00     0.013 C 
HETATM    2  C2  LIG X 999      46.883 131.368  14.233  1.00  0.00    -0.102 C 
HETATM    3  C3  LIG X 999      46.155 132.096  15.275  1.00  0.00     0.238 C 
ENDROOT
BRANCH   3   4
HETATM    4  S1  LIG X 999      44.770 131.129  15.844  1.00  0.00     0.185 S 
HETATM    5  O1  LIG X 999      44.891 129.728  15.316  1.00  0.00    -0.222 OA
HETATM    6  O2  LIG X 999      43.490 131.727  15.331  1.00  0.00    -0.222 OA
BRANCH   4   7
HETATM    7  C4  LIG X 999      44.750 131.095  17.606  1.00  0.00     0.060 A 
HETATM    8  C5  LIG X 999      45.823 130.537  18.309  1.00  0.00     0.024 A 
HETATM    9  C6  LIG X 999      45.822 130.533  19.704  1.00  0.00     0.011 A 
HETATM   10  C7  LIG X 999      44.754 131.097  20.422  1.00  0.00    -0.019 A 
HETATM   11  C8  LIG X 999      43.663 131.658  19.713  1.00  0.00    -0.048 A 
HETATM   12  C13 LIG X 999      44.761 131.011  21.937  1.00  0.00     0.251 C 
HETATM   13  C9  LIG X 999      43.681 131.664  18.310  1.00  0.00     0.031 A 
HETATM   14  C10 LIG X 999      42.536 132.370  20.424  1.00  0.00     0.039 C 
HETATM   15  C11 LIG X 999      42.439 132.004  21.908  1.00  0.00     0.007 C 
HETATM   16  C12 LIG X 999      43.821 132.057  22.563  1.00  0.00     0.040 C 
BRANCH  12  17
HETATM   17  N1  LIG X 999      44.366 129.663  22.355  1.00  0.00     0.087 N 
HETATM   18  H14 LIG X 999      43.716 129.744  23.171  1.00  0.00     0.313 HD
HETATM   19  H15 LIG X 999      43.804 129.229  21.589  1.00  0.00     0.313 HD
ENDBRANCH  12  17
ENDBRANCH   4   7
ENDBRANCH   3   4
TORSDOF 3
ENDMDL
MODEL 2
REMARK VINA RESULT:      -8.0      1.756      2.490
REMARK  3 active torsions:
REMARK  status: ('A' for Active; 'I' for Inactive)
REMARK    1  A    between atoms: C3_3  and  S1_4 
REMARK    2  A    between atoms: S1_4  and  C4_7 
REMARK    3  A    between atoms: C13_16  and  N1_17 
ROOT
HETATM    1  C1  LIG X 999      48.382 129.624  13.306  1.00  0.00     0.013 C 
HETATM    2  C2  LIG X 999      47.590 129.643  14.215  1.00  0.00    -0.102 C 
HETATM    3  C3  LIG X 999      46.627 129.671  15.319  1.00  0.00     0.238 C 
ENDROOT
BRANCH   3   4
HETATM    4  S1  LIG X 999      45.667 131.171  15.257  1.00  0.00     0.185 S 
HETATM    5  O1  LIG X 999      44.715 131.105  14.096  1.00  0.00    -0.222 OA
HETATM    6  O2  LIG X 999      46.580 132.350  15.061  1.00  0.00    -0.222 OA
BRANCH   4   7
HETATM    7  C4  LIG X 999      44.759 131.361  16.755  1.00  0.00     0.060 A 
HETATM    8  C5  LIG X 999      43.381 131.600  16.713  1.00  0.00     0.024 A 
HETATM    9  C6  LIG X 999      42.654 131.724  17.898  1.00  0.00     0.011 A 
HETATM   10  C7  LIG X 999      43.290 131.600  19.145  1.00  0.00    -0.019 A 
HETATM   11  C8  LIG X 999      44.686 131.364  19.190  1.00  0.00    -0.048 A 
HETATM   12  C13 LIG X 999      42.476 131.809  20.408  1.00  0.00     0.251 C 
HETATM   13  C9  LIG X 999      45.403 131.232  17.991  1.00  0.00     0.031 A 
HETATM   14  C10 LIG X 999      45.408 131.119  20.495  1.00  0.00     0.039 C 
HETATM   15  C11 LIG X 999      44.629 131.623  21.713  1.00  0.00     0.007 C 
HETATM   16  C12 LIG X 999      43.166 131.182  21.633  1.00  0.00     0.040 C 
BRANCH  12  17
HETATM   17  N1  LIG X 999      42.265 133.243  20.627  1.00  0.00     0.087 N 
HETATM   18  H14 LIG X 999      41.285 133.483  20.352  1.00  0.00     0.313 HD
HETATM   19  H15 LIG X 999      42.326 133.434  21.653  1.00  0.00     0.313 HD
ENDBRANCH  12  17
ENDBRANCH   4   7
ENDBRANCH   3   4
TORSDOF 3
ENDMDL
MODEL 3
REMARK VINA RESULT:      -7.5      1.596      2.391
REMARK  3 active torsions:
REMARK  status: ('A' for Active; 'I' for Inactive)
REMARK    1  A    between atoms: C3_3  and  S1_4 
REMARK    2  A    between atoms: S1_4  and  C4_7 
REMARK    3  A    between atoms: C13_16  and  N1_17 
ROOT
HETATM    1  C1  LIG X 999      47.813 130.999  12.777  1.00  0.00     0.013 C 
HETATM    2  C2  LIG X 999      47.139 131.372  13.705  1.00  0.00    -0.102 C 
HETATM    3  C3  LIG X 999      46.316 131.823  14.831  1.00  0.00     0.238 C 
ENDROOT
BRANCH   3   4
HETATM    4  S1  LIG X 999      45.879 130.437  15.862  1.00  0.00     0.185 S 
HETATM    5  O1  LIG X 999      47.128 129.830  16.436  1.00  0.00    -0.222 OA
HETATM    6  O2  LIG X 999      45.174 129.395  15.039  1.00  0.00    -0.222 OA
BRANCH   4   7
HETATM    7  C4  LIG X 999      44.829 130.975  17.171  1.00  0.00     0.060 A 
HETATM    8  C5  LIG X 999      43.523 131.391  16.895  1.00  0.00     0.024 A 
HETATM    9  C6  LIG X 999      42.680 131.792  17.933  1.00  0.00     0.011 A 
HETATM   10  C7  LIG X 999      43.125 131.774  19.265  1.00  0.00    -0.019 A 
HETATM   11  C8  LIG X 999      44.450 131.359  19.547  1.00  0.00    -0.048 A 
HETATM   12  C13 LIG X 999      42.200 132.283  20.355  1.00  0.00     0.251 C 
HETATM   13  C9  LIG X 999      45.284 130.949  18.496  1.00  0.00     0.031 A 
HETATM   14  C10 LIG X 999      44.953 131.219  20.965  1.00  0.00     0.039 C 
HETATM   15  C11 LIG X 999      44.114 132.005  21.978  1.00  0.00     0.007 C 
HETATM   16  C12 LIG X 999      42.623 131.761  21.740  1.00  0.00     0.040 C 
BRANCH  12  17
HETATM   17  N1  LIG X 999      42.191 133.749  20.350  1.00  0.00     0.087 N 
HETATM   18  H14 LIG X 999      41.370 134.079  20.907  1.00  0.00     0.313 HD
HETATM   19  H15 LIG X 999      43.035 134.087  20.864  1.00  0.00     0.313 HD
ENDBRANCH  12  17
ENDBRANCH   4   7
ENDBRANCH   3   4
TORSDOF 3
ENDMDL
MODEL 4
REMARK VINA RESULT:      -6.9      3.353      6.622
REMARK  3 active torsions:
REMARK  status: ('A' for Active; 'I' for Inactive)
REMARK    1  A    between atoms: C3_3  and  S1_4 
REMARK    2  A    between atoms: S1_4  and  C4_7 
REMARK    3  A    between atoms: C13_16  and  N1_17 
ROOT
HETATM    1  C1  LIG X 999      43.344 131.751  23.978  1.00  0.00     0.013 C 
HETATM    2  C2  LIG X 999      43.292 131.526  22.794  1.00  0.00    -0.102 C 
HETATM    3  C3  LIG X 999      43.234 131.255  21.355  1.00  0.00     0.238 C 
ENDROOT
BRANCH   3   4
HETATM    4  S1  LIG X 999      44.880 131.041  20.705  1.00  0.00     0.185 S 
HETATM    5  O1  LIG X 999      45.412 129.701  21.129  1.00  0.00    -0.222 OA
HETATM    6  O2  LIG X 999      45.784 132.111  21.252  1.00  0.00    -0.222 OA
BRANCH   4   7
HETATM    7  C4  LIG X 999      44.843 131.131  18.946  1.00  0.00     0.060 A 
HETATM    8  C5  LIG X 999      43.864 131.897  18.304  1.00  0.00     0.024 A 
HETATM    9  C6  LIG X 999      43.848 131.993  16.912  1.00  0.00     0.011 A 
HETATM   10  C7  LIG X 999      44.817 131.333  16.138  1.00  0.00    -0.019 A 
HETATM   11  C8  LIG X 999      45.806 130.552  16.784  1.00  0.00    -0.048 A 
HETATM   12  C13 LIG X 999      44.724 131.408  14.625  1.00  0.00     0.251 C 
HETATM   13  C9  LIG X 999      45.816 130.472  18.186  1.00  0.00     0.031 A 
HETATM   14  C10 LIG X 999      46.934 129.904  16.016  1.00  0.00     0.039 C 
HETATM   15  C11 LIG X 999      46.634 129.760  14.521  1.00  0.00     0.007 C 
HETATM   16  C12 LIG X 999      46.070 131.068  13.961  1.00  0.00     0.040 C 
BRANCH  12  17
HETATM   17  N1  LIG X 999      43.682 130.493  14.150  1.00  0.00     0.087 N 
HETATM   18  H14 LIG X 999      42.762 130.803  14.540  1.00  0.00     0.313 HD
HETATM   19  H15 LIG X 999      43.597 130.595  13.113  1.00  0.00     0.313 HD
ENDBRANCH  12  17
ENDBRANCH   4   7
ENDBRANCH   3   4
TORSDOF 3
ENDMDL
MODEL 5
REMARK VINA RESULT:      -5.7      3.504      6.332
REMARK  3 active torsions:
REMARK  status: ('A' for Active; 'I' for Inactive)
REMARK    1  A    between atoms: C3_3  and  S1_4 
REMARK    2  A    between atoms: S1_4  and  C4_7 
REMARK    3  A    between atoms: C13_16  and  N1_17 
ROOT
HETATM    1  C1  LIG X 999      42.583 131.819  23.753  1.00  0.00     0.013 C 
HETATM    2  C2  LIG X 999      42.806 131.765  22.569  1.00  0.00    -0.102 C 
HETATM    3  C3  LIG X 999      43.080 131.701  21.132  1.00  0.00     0.238 C 
ENDROOT
BRANCH   3   4
HETATM    4  S1  LIG X 999      44.794 131.302  20.852  1.00  0.00     0.185 S 
HETATM    5  O1  LIG X 999      45.149 130.064  21.625  1.00  0.00    -0.222 OA
HETATM    6  O2  LIG X 999      45.662 132.432  21.332  1.00  0.00    -0.222 OA
BRANCH   4   7
HETATM    7  C4  LIG X 999      45.070 131.024  19.134  1.00  0.00     0.060 A 
HETATM    8  C5  LIG X 999      46.141 130.227  18.717  1.00  0.00     0.024 A 
HETATM    9  C6  LIG X 999      46.346 129.982  17.358  1.00  0.00     0.011 A 
HETATM   10  C7  LIG X 999      45.478 130.522  16.394  1.00  0.00    -0.019 A 
HETATM   11  C8  LIG X 999      44.396 131.335  16.814  1.00  0.00    -0.048 A 
HETATM   12  C13 LIG X 999      45.776 130.289  14.925  1.00  0.00     0.251 C 
HETATM   13  C9  LIG X 999      44.195 131.564  18.184  1.00  0.00     0.031 A 
HETATM   14  C10 LIG X 999      43.370 131.858  15.835  1.00  0.00     0.039 C 
HETATM   15  C11 LIG X 999      43.866 131.850  14.387  1.00  0.00     0.007 C 
HETATM   16  C12 LIG X 999      44.526 130.509  14.055  1.00  0.00     0.040 C 
BRANCH  12  17
HETATM   17  N1  LIG X 999      46.855 131.182  14.493  1.00  0.00     0.087 N 
HETATM   18  H14 LIG X 999      47.311 131.589  15.342  1.00  0.00     0.313 HD
HETATM   19  H15 LIG X 999      47.593 130.608  14.024  1.00  0.00     0.313 HD
ENDBRANCH  12  17
ENDBRANCH   4   7
ENDBRANCH   3   4
TORSDOF 3
ENDMDL
