REMARK VINA RESULT:      -7.0      1.306      1.955
REMARK  4 active torsions:
REMARK  status: ('A' for Active; 'I' for Inactive)
REMARK    1  A    between atoms: C3_3  and  O1_4 
REMARK    2  A    between atoms: O1_4  and  C4_5 
REMARK    3  A    between atoms: C4_5  and  O2_6 
REMARK    4  A    between atoms: C5_8  and  C6_9 
ROOT
HETATM    1  C1  LIG X 999      47.639 131.016  13.110  1.00  0.00     0.014 C 
HETATM    2  C2  LIG X 999      46.903 131.474  13.948  1.00  0.00    -0.091 C 
HETATM    3  C3  LIG X 999      46.009 132.027  14.966  1.00  0.00     0.270 C 
ENDROOT
BRANCH   3   4
HETATM    4  O1  LIG X 999      46.281 131.404  16.213  1.00  0.00    -0.319 OA
BRANCH   4   5
HETATM    5  C4  LIG X 999      46.064 130.041  16.435  1.00  0.00     0.179 C 
HETATM    6  C5  LIG X 999      45.649 129.615  17.635  1.00  0.00     0.075 C 
BRANCH   5   7
HETATM    7  O2  LIG X 999      46.270 129.128  15.400  1.00  0.00    -0.341 OA
HETATM    8  H4  LIG X 999      46.477 129.427  14.453  1.00  0.00     0.220 HD
ENDBRANCH   5   7
BRANCH   6   9
HETATM    9  C6  LIG X 999      45.374 130.540  18.757  1.00  0.00    -0.021 A 
HETATM   10  C7  LIG X 999      46.371 130.688  19.733  1.00  0.00     0.012 A 
HETATM   11  C8  LIG X 999      46.164 131.504  20.845  1.00  0.00     0.002 A 
HETATM   12  C9  LIG X 999      44.964 132.196  20.997  1.00  0.00     0.012 A 
HETATM   13  C10 LIG X 999      43.962 132.095  20.022  1.00  0.00    -0.025 A 
HETATM   14  C11 LIG X 999      42.766 132.816  20.167  1.00  0.00     0.012 A 
HETATM   15  C15 LIG X 999      44.163 131.275  18.878  1.00  0.00    -0.015 A 
HETATM   16  C12 LIG X 999      41.779 132.746  19.184  1.00  0.00     0.001 A 
HETATM   17  C13 LIG X 999      41.980 131.968  18.043  1.00  0.00     0.001 A 
HETATM   18  C14 LIG X 999      43.162 131.243  17.884  1.00  0.00     0.013 A 
ENDBRANCH   6   9
ENDBRANCH   4   5
ENDBRANCH   3   4
TORSDOF 4
