REMARK VINA RESULT:      -7.2      0.669      2.114
REMARK  3 active torsions:
REMARK  status: ('A' for Active; 'I' for Inactive)
REMARK    1  A    between atoms: C3_3  and  O1_4 
REMARK    2  A    between atoms: C3_3  and  C4_5 
REMARK    3  A    between atoms: C3_3  and  C14_15 
ROOT
HETATM    1  C1  LIG X 999      43.011 131.693  13.555  1.00  0.00     0.015 C 
HETATM    2  C2  LIG X 999      43.791 131.181  14.321  1.00  0.00    -0.073 C 
HETATM    3  C3  LIG X 999      44.751 130.548  15.263  1.00  0.00     0.154 C 
ENDROOT
BRANCH   3   4
HETATM    4  O1  LIG X 999      44.639 129.151  15.090  1.00  0.00    -0.372 OA
HETATM    5  H2  LIG X 999      45.494 128.729  15.374  1.00  0.00     0.212 HD
ENDBRANCH   3   4
BRANCH   3   6
HETATM    6  C4  LIG X 999      44.380 130.921  16.712  1.00  0.00    -0.010 A 
HETATM    7  C5  LIG X 999      43.182 131.607  17.011  1.00  0.00     0.012 A 
HETATM    8  C6  LIG X 999      42.866 131.967  18.323  1.00  0.00     0.013 A 
HETATM    9  C7  LIG X 999      43.744 131.662  19.369  1.00  0.00    -0.026 A 
HETATM   10  C8  LIG X 999      43.435 132.022  20.691  1.00  0.00     0.012 A 
HETATM   11  C12 LIG X 999      44.955 130.988  19.091  1.00  0.00    -0.025 A 
HETATM   12  C9  LIG X 999      44.323 131.717  21.726  1.00  0.00     0.001 A 
HETATM   13  C10 LIG X 999      45.521 131.054  21.452  1.00  0.00     0.001 A 
HETATM   14  C11 LIG X 999      45.840 130.689  20.139  1.00  0.00     0.012 A 
HETATM   15  C13 LIG X 999      45.265 130.629  17.772  1.00  0.00     0.023 A 
ENDBRANCH   3   6
BRANCH   3  16
HETATM   16  C14 LIG X 999      46.235 130.975  14.907  1.00  0.00    -0.004 C 
HETATM   17  C15 LIG X 999      46.519 132.420  15.385  1.00  0.00     0.019 C 
HETATM   18  C16 LIG X 999      47.249 130.041  15.619  1.00  0.00     0.019 C 
HETATM   19  C17 LIG X 999      46.512 130.909  13.385  1.00  0.00     0.019 C 
ENDBRANCH   3  16
TORSDOF 3
