REMARK VINA RESULT:      -6.1      1.558      5.483
REMARK  4 active torsions:
REMARK  status: ('A' for Active; 'I' for Inactive)
REMARK    1  A    between atoms: C2_2  and  C3_3 
REMARK    2  A    between atoms: C3_3  and  C5_5 
REMARK       I    between atoms: C5_5  and  N1_7 
REMARK    3  A    between atoms: N1_7  and  C6_8 
REMARK    4  A    between atoms: C7_9  and  O2_10 
ROOT
HETATM    1  C6  LIG X 999      44.787 130.964  16.948  1.00  0.00     0.104 A 
HETATM    2  C7  LIG X 999      43.582 131.660  16.708  1.00  0.00     0.098 A 
HETATM    3  C9  LIG X 999      43.217 131.980  15.387  1.00  0.00     0.040 A 
HETATM    4  C10 LIG X 999      44.050 131.647  14.320  1.00  0.00     0.015 A 
HETATM    5  C11 LIG X 999      45.267 130.997  14.548  1.00  0.00    -0.024 A 
HETATM    6  C12 LIG X 999      46.111 130.680  13.471  1.00  0.00     0.012 A 
HETATM    7  C13 LIG X 999      47.326 130.031  13.699  1.00  0.00     0.001 A 
HETATM    8  C14 LIG X 999      47.707 129.691  14.997  1.00  0.00     0.001 A 
HETATM    9  C15 LIG X 999      46.877 129.997  16.078  1.00  0.00     0.014 A 
HETATM   10  C16 LIG X 999      45.647 130.656  15.870  1.00  0.00     0.006 A 
ENDROOT
BRANCH   1  11
HETATM   11  N1  LIG X 999      45.181 130.622  18.287  1.00  0.00    -0.210 NA
HETATM   12  C5  LIG X 999      45.385 131.557  19.355  1.00  0.00     0.247 C 
HETATM   13  O1  LIG X 999      45.002 132.753  19.238  1.00  0.00    -0.271 OA
BRANCH  12  14
HETATM   14  C3  LIG X 999      45.996 131.094  20.651  1.00  0.00     0.076 C 
HETATM   15  C4  LIG X 999      46.482 132.304  21.455  1.00  0.00     0.020 C 
BRANCH  14  16
HETATM   16  C2  LIG X 999      45.000 130.256  21.478  1.00  0.00     0.009 C 
HETATM   17  C1  LIG X 999      43.783 131.069  21.919  1.00  0.00     0.006 C 
ENDBRANCH  14  16
ENDBRANCH  12  14
ENDBRANCH   1  11
BRANCH   2  18
HETATM   18  O2  LIG X 999      42.788 132.045  17.800  1.00  0.00    -0.354 OA
HETATM   19  C8  LIG X 999      41.802 131.224  18.418  1.00  0.00     0.210 C 
ENDBRANCH   2  18
TORSDOF 4
