REMARK VINA RESULT:      -3.6      3.022      4.750
REMARK  4 active torsions:
REMARK  status: ('A' for Active; 'I' for Inactive)
REMARK    1  A    between atoms: C3_3  and  C4_4 
REMARK    2  A    between atoms: C5_7  and  N3_8 
REMARK    3  A    between atoms: C8_14  and  C9_15 
REMARK    4  A    between atoms: C10_16  and  C11_17 
ROOT
HETATM    1  N3  LIG X 999      43.385 126.321  23.432  1.00  0.00    -0.023 NA
HETATM    2  N4  LIG X 999      42.222 126.038  23.714  1.00  0.00    -0.158 NA
HETATM    3  N5  LIG X 999      41.058 125.756  23.997  1.00  0.00     0.068 N 
ENDROOT
BRANCH   1   4
HETATM    4  C5  LIG X 999      44.416 125.339  23.518  1.00  0.00     0.326 A 
HETATM    5  N2  LIG X 999      44.407 124.326  24.401  1.00  0.00    -0.099 NA
HETATM    6  N1  LIG X 999      45.516 123.640  24.174  1.00  0.00    -0.124 NA
HETATM    7  C4  LIG X 999      46.158 124.266  23.164  1.00  0.00     0.184 A 
HETATM    8  O1  LIG X 999      45.480 125.313  22.753  1.00  0.00    -0.255 OA
BRANCH   7   9
HETATM    9  C3  LIG X 999      47.470 123.793  22.570  1.00  0.00     0.054 C 
HETATM   10  C2  LIG X 999      48.137 122.880  23.588  1.00  0.00    -0.008 C 
HETATM   11  C1  LIG X 999      48.882 123.394  24.575  1.00  0.00    -0.003 C 
HETATM   12  C15 LIG X 999      49.172 124.840  24.624  1.00  0.00    -0.004 C 
HETATM   13  C14 LIG X 999      48.903 125.621  23.570  1.00  0.00    -0.021 C 
HETATM   14  C13 LIG X 999      48.409 125.015  22.274  1.00  0.00     0.030 C 
HETATM   15  C12 LIG X 999      49.635 124.618  21.420  1.00  0.00     0.027 C 
HETATM   16  C8  LIG X 999      49.215 123.898  20.132  1.00  0.00     0.066 C 
HETATM   17  C7  LIG X 999      48.394 122.646  20.468  1.00  0.00     0.019 C 
HETATM   18  C6  LIG X 999      47.142 123.024  21.265  1.00  0.00     0.024 C 
BRANCH  16  19
HETATM   19  C9  LIG X 999      50.406 123.523  19.354  1.00  0.00    -0.090 C 
HETATM   20  C10 LIG X 999      51.382 123.214  18.717  1.00  0.00     0.005 C 
BRANCH  20  21
HETATM   21  C11 LIG X 999      52.543 122.848  17.957  1.00  0.00     0.258 C 
HETATM   22  O2  LIG X 999      53.581 122.450  18.548  1.00  0.00    -0.637 OA
HETATM   23  O3  LIG X 999      52.520 122.931  16.572  1.00  0.00    -0.637 OA
ENDBRANCH  20  21
ENDBRANCH  16  19
ENDBRANCH   7   9
ENDBRANCH   1   4
TORSDOF 4
