MODEL 1
REMARK VINA RESULT:      -8.1      0.000      0.000
REMARK  1 active torsions:
REMARK  status: ('A' for Active; 'I' for Inactive)
REMARK    1  A    between atoms: C11_13  and  N2_14 
ROOT
HETATM    1  N2  LIG X 999      47.534 129.515  14.363  1.00  0.00    -0.053 NA
HETATM    2  N3  LIG X 999      47.771 130.224  13.384  1.00  0.00    -0.160 NA
HETATM    3  N4  LIG X 999      48.008 130.931  12.406  1.00  0.00     0.068 N 
ENDROOT
BRANCH   1   4
HETATM    4  C11 LIG X 999      46.702 129.979  15.427  1.00  0.00     0.175 A 
HETATM    5  C10 LIG X 999      45.485 130.626  15.262  1.00  0.00     0.026 A 
HETATM    6  C5  LIG X 999      45.050 130.881  16.518  1.00  0.00     0.017 A 
HETATM    7  C9  LIG X 999      44.724 131.012  14.157  1.00  0.00     0.016 A 
HETATM    8  C4  LIG X 999      45.955 130.415  17.411  1.00  0.00     0.046 A 
HETATM    9  C6  LIG X 999      43.869 131.517  16.826  1.00  0.00     0.005 A 
HETATM   10  C3  LIG X 999      45.726 130.565  18.858  1.00  0.00     0.033 A 
HETATM   11  N5  LIG X 999      46.993 129.849  16.755  1.00  0.00    -0.337 N 
HETATM   12  C2  LIG X 999      44.591 131.177  19.269  1.00  0.00     0.034 A 
HETATM   13  C1  LIG X 999      43.587 131.696  18.274  1.00  0.00     0.059 A 
HETATM   14  N1  LIG X 999      42.501 132.283  18.667  1.00  0.00    -0.300 NA
HETATM   15  H1  LIG X 999      42.284 132.417  19.680  1.00  0.00     0.187 HD
HETATM   16  H7  LIG X 999      47.838 129.406  17.180  1.00  0.00     0.167 HD
HETATM   17  C7  LIG X 999      43.064 131.928  15.742  1.00  0.00     0.015 A 
HETATM   18  C8  LIG X 999      43.494 131.672  14.409  1.00  0.00     0.002 A 
ENDBRANCH   1   4
TORSDOF 1
ENDMDL
MODEL 2
REMARK VINA RESULT:      -7.5      1.908      3.786
REMARK  1 active torsions:
REMARK  status: ('A' for Active; 'I' for Inactive)
REMARK    1  A    between atoms: C11_13  and  N2_14 
ROOT
HETATM    1  N2  LIG X 999      46.303 130.385  16.334  1.00  0.00    -0.053 NA
HETATM    2  N3  LIG X 999      46.524 130.896  15.235  1.00  0.00    -0.160 NA
HETATM    3  N4  LIG X 999      46.746 131.405  14.138  1.00  0.00     0.068 N 
ENDROOT
BRANCH   1   4
HETATM    4  C11 LIG X 999      45.266 130.880  17.183  1.00  0.00     0.175 A 
HETATM    5  C10 LIG X 999      45.315 130.902  18.570  1.00  0.00     0.026 A 
HETATM    6  C5  LIG X 999      44.137 131.447  18.954  1.00  0.00     0.017 A 
HETATM    7  C9  LIG X 999      46.257 130.507  19.522  1.00  0.00     0.016 A 
HETATM    8  C4  LIG X 999      43.401 131.743  17.857  1.00  0.00     0.046 A 
HETATM    9  C6  LIG X 999      43.760 131.659  20.260  1.00  0.00     0.005 A 
HETATM   10  C3  LIG X 999      42.065 132.350  17.994  1.00  0.00     0.033 A 
HETATM   11  N5  LIG X 999      44.083 131.400  16.742  1.00  0.00    -0.337 N 
HETATM   12  C2  LIG X 999      41.598 132.602  19.239  1.00  0.00     0.034 A 
HETATM   13  C1  LIG X 999      42.419 132.269  20.457  1.00  0.00     0.059 A 
HETATM   14  N1  LIG X 999      41.972 132.509  21.649  1.00  0.00    -0.300 NA
HETATM   15  H1  LIG X 999      41.033 132.939  21.807  1.00  0.00     0.187 HD
HETATM   16  H7  LIG X 999      43.766 131.511  15.753  1.00  0.00     0.167 HD
HETATM   17  C7  LIG X 999      44.678 131.275  21.261  1.00  0.00     0.015 A 
HETATM   18  C8  LIG X 999      45.926 130.701  20.888  1.00  0.00     0.002 A 
ENDBRANCH   1   4
TORSDOF 1
ENDMDL
MODEL 3
REMARK VINA RESULT:      -7.2      1.691      6.216
REMARK  1 active torsions:
REMARK  status: ('A' for Active; 'I' for Inactive)
REMARK    1  A    between atoms: C11_13  and  N2_14 
ROOT
HETATM    1  N2  LIG X 999      41.900 132.844  20.485  1.00  0.00    -0.053 NA
HETATM    2  N3  LIG X 999      42.040 132.498  21.659  1.00  0.00    -0.160 NA
HETATM    3  N4  LIG X 999      42.179 132.152  22.831  1.00  0.00     0.068 N 
ENDROOT
BRANCH   1   4
HETATM    4  C11 LIG X 999      42.729 132.308  19.453  1.00  0.00     0.175 A 
HETATM    5  C10 LIG X 999      43.951 131.683  19.656  1.00  0.00     0.026 A 
HETATM    6  C5  LIG X 999      44.379 131.338  18.420  1.00  0.00     0.017 A 
HETATM    7  C9  LIG X 999      44.721 131.384  20.782  1.00  0.00     0.016 A 
HETATM    8  C4  LIG X 999      43.466 131.733  17.502  1.00  0.00     0.046 A 
HETATM    9  C6  LIG X 999      45.562 130.688  18.152  1.00  0.00     0.005 A 
HETATM   10  C3  LIG X 999      43.688 131.479  16.067  1.00  0.00     0.033 A 
HETATM   11  N5  LIG X 999      42.428 132.339  18.121  1.00  0.00    -0.337 N 
HETATM   12  C2  LIG X 999      44.823 130.844  15.695  1.00  0.00     0.034 A 
HETATM   13  C1  LIG X 999      45.838 130.407  16.719  1.00  0.00     0.059 A 
HETATM   14  N1  LIG X 999      46.925 129.799  16.363  1.00  0.00    -0.300 NA
HETATM   15  H1  LIG X 999      47.136 129.592  15.361  1.00  0.00     0.187 HD
HETATM   16  H7  LIG X 999      41.578 132.745  17.670  1.00  0.00     0.167 HD
HETATM   17  C7  LIG X 999      46.377 130.364  19.257  1.00  0.00     0.015 A 
HETATM   18  C8  LIG X 999      45.953 130.713  20.571  1.00  0.00     0.002 A 
ENDBRANCH   1   4
TORSDOF 1
ENDMDL
MODEL 4
REMARK VINA RESULT:      -7.1      2.512      3.431
REMARK  1 active torsions:
REMARK  status: ('A' for Active; 'I' for Inactive)
REMARK    1  A    between atoms: C11_13  and  N2_14 
ROOT
HETATM    1  N2  LIG X 999      46.098 130.689  16.736  1.00  0.00    -0.053 NA
HETATM    2  N3  LIG X 999      45.714 129.791  15.985  1.00  0.00    -0.160 NA
HETATM    3  N4  LIG X 999      45.331 128.895  15.235  1.00  0.00     0.068 N 
ENDROOT
BRANCH   1   4
HETATM    4  C11 LIG X 999      45.506 130.879  18.022  1.00  0.00     0.175 A 
HETATM    5  C10 LIG X 999      44.243 131.406  18.247  1.00  0.00     0.026 A 
HETATM    6  C5  LIG X 999      44.096 131.404  19.593  1.00  0.00     0.017 A 
HETATM    7  C9  LIG X 999      43.219 131.880  17.424  1.00  0.00     0.016 A 
HETATM    8  C4  LIG X 999      45.215 130.902  20.166  1.00  0.00     0.046 A 
HETATM    9  C6  LIG X 999      42.978 131.848  20.261  1.00  0.00     0.005 A 
HETATM   10  C3  LIG X 999      45.320 130.789  21.632  1.00  0.00     0.033 A 
HETATM   11  N5  LIG X 999      46.108 130.568  19.208  1.00  0.00    -0.337 N 
HETATM   12  C2  LIG X 999      44.273 131.199  22.384  1.00  0.00     0.034 A 
HETATM   13  C1  LIG X 999      43.029 131.757  21.743  1.00  0.00     0.059 A 
HETATM   14  N1  LIG X 999      42.027 132.150  22.464  1.00  0.00    -0.300 NA
HETATM   15  H1  LIG X 999      42.044 132.093  23.507  1.00  0.00     0.187 HD
HETATM   16  H7  LIG X 999      47.058 130.158  19.351  1.00  0.00     0.167 HD
HETATM   17  C7  LIG X 999      41.915 132.338  19.473  1.00  0.00     0.015 A 
HETATM   18  C8  LIG X 999      42.039 132.351  18.054  1.00  0.00     0.002 A 
ENDBRANCH   1   4
TORSDOF 1
ENDMDL
MODEL 5
REMARK VINA RESULT:      -7.1      2.653      5.488
REMARK  1 active torsions:
REMARK  status: ('A' for Active; 'I' for Inactive)
REMARK    1  A    between atoms: C11_13  and  N2_14 
ROOT
HETATM    1  N2  LIG X 999      44.988 131.068  22.001  1.00  0.00    -0.053 NA
HETATM    2  N3  LIG X 999      44.225 130.358  22.658  1.00  0.00    -0.160 NA
HETATM    3  N4  LIG X 999      43.463 129.651  23.315  1.00  0.00     0.068 N 
ENDROOT
BRANCH   1   4
HETATM    4  C11 LIG X 999      44.963 131.053  20.572  1.00  0.00     0.175 A 
HETATM    5  C10 LIG X 999      43.919 131.522  19.788  1.00  0.00     0.026 A 
HETATM    6  C5  LIG X 999      44.318 131.315  18.512  1.00  0.00     0.017 A 
HETATM    7  C9  LIG X 999      42.678 132.103  20.057  1.00  0.00     0.016 A 
HETATM    8  C4  LIG X 999      45.546 130.745  18.512  1.00  0.00     0.046 A 
HETATM    9  C6  LIG X 999      43.579 131.638  17.397  1.00  0.00     0.005 A 
HETATM   10  C3  LIG X 999      46.216 130.411  17.243  1.00  0.00     0.033 A 
HETATM   11  N5  LIG X 999      45.969 130.573  19.784  1.00  0.00    -0.337 N 
HETATM   12  C2  LIG X 999      45.574 130.688  16.084  1.00  0.00     0.034 A 
HETATM   13  C1  LIG X 999      44.207 131.321  16.088  1.00  0.00     0.059 A 
HETATM   14  N1  LIG X 999      43.592 131.586  14.979  1.00  0.00    -0.300 NA
HETATM   15  H1  LIG X 999      44.018 131.372  14.050  1.00  0.00     0.187 HD
HETATM   16  H7  LIG X 999      46.877 130.157  20.093  1.00  0.00     0.167 HD
HETATM   17  C7  LIG X 999      42.315 132.226  17.616  1.00  0.00     0.015 A 
HETATM   18  C8  LIG X 999      41.869 132.459  18.948  1.00  0.00     0.002 A 
ENDBRANCH   1   4
TORSDOF 1
ENDMDL
MODEL 6
REMARK VINA RESULT:      -6.8      3.242      6.242
REMARK  1 active torsions:
REMARK  status: ('A' for Active; 'I' for Inactive)
REMARK    1  A    between atoms: C11_13  and  N2_14 
ROOT
HETATM    1  N2  LIG X 999      44.253 131.184  23.257  1.00  0.00    -0.053 NA
HETATM    2  N3  LIG X 999      44.273 130.133  23.899  1.00  0.00    -0.160 NA
HETATM    3  N4  LIG X 999      44.292 129.084  24.541  1.00  0.00     0.068 N 
ENDROOT
BRANCH   1   4
HETATM    4  C11 LIG X 999      44.392 131.183  21.835  1.00  0.00     0.175 A 
HETATM    5  C10 LIG X 999      43.470 131.716  20.945  1.00  0.00     0.026 A 
HETATM    6  C5  LIG X 999      44.001 131.499  19.718  1.00  0.00     0.017 A 
HETATM    7  C9  LIG X 999      42.239 132.360  21.079  1.00  0.00     0.016 A 
HETATM    8  C4  LIG X 999      45.189 130.863  19.850  1.00  0.00     0.046 A 
HETATM    9  C6  LIG X 999      43.412 131.870  18.532  1.00  0.00     0.005 A 
HETATM   10  C3  LIG X 999      45.982 130.504  18.660  1.00  0.00     0.033 A 
HETATM   11  N5  LIG X 999      45.454 130.656  21.159  1.00  0.00    -0.337 N 
HETATM   12  C2  LIG X 999      45.492 130.826  17.440  1.00  0.00     0.034 A 
HETATM   13  C1  LIG X 999      44.169 131.532  17.298  1.00  0.00     0.059 A 
HETATM   14  N1  LIG X 999      43.699 131.840  16.130  1.00  0.00    -0.300 NA
HETATM   15  H1  LIG X 999      44.217 131.611  15.253  1.00  0.00     0.187 HD
HETATM   16  H7  LIG X 999      46.297 130.189  21.562  1.00  0.00     0.167 HD
HETATM   17  C7  LIG X 999      42.165 132.525  18.615  1.00  0.00     0.015 A 
HETATM   18  C8  LIG X 999      41.582 132.769  19.891  1.00  0.00     0.002 A 
ENDBRANCH   1   4
TORSDOF 1
ENDMDL
MODEL 7
REMARK VINA RESULT:      -6.4      3.028      6.914
REMARK  1 active torsions:
REMARK  status: ('A' for Active; 'I' for Inactive)
REMARK    1  A    between atoms: C11_13  and  N2_14 
ROOT
HETATM    1  N2  LIG X 999      43.112 131.748  23.402  1.00  0.00    -0.053 NA
HETATM    2  N3  LIG X 999      42.758 130.739  24.013  1.00  0.00    -0.160 NA
HETATM    3  N4  LIG X 999      42.404 129.732  24.625  1.00  0.00     0.068 N 
ENDROOT
BRANCH   1   4
HETATM    4  C11 LIG X 999      43.080 131.796  21.975  1.00  0.00     0.175 A 
HETATM    5  C10 LIG X 999      44.108 131.379  21.141  1.00  0.00     0.026 A 
HETATM    6  C5  LIG X 999      43.655 131.602  19.885  1.00  0.00     0.017 A 
HETATM    7  C9  LIG X 999      45.377 130.834  21.349  1.00  0.00     0.016 A 
HETATM    8  C4  LIG X 999      42.410 132.131  19.945  1.00  0.00     0.046 A 
HETATM    9  C6  LIG X 999      44.360 131.329  18.736  1.00  0.00     0.005 A 
HETATM   10  C3  LIG X 999      41.680 132.471  18.711  1.00  0.00     0.033 A 
HETATM   11  N5  LIG X 999      42.030 132.261  21.236  1.00  0.00    -0.337 N 
HETATM   12  C2  LIG X 999      42.286 132.242  17.523  1.00  0.00     0.034 A 
HETATM   13  C1  LIG X 999      43.671 131.654  17.460  1.00  0.00     0.059 A 
HETATM   14  N1  LIG X 999      44.252 131.435  16.322  1.00  0.00    -0.300 NA
HETATM   15  H1  LIG X 999      43.783 131.655  15.415  1.00  0.00     0.187 HD
HETATM   16  H7  LIG X 999      41.123 132.639  21.589  1.00  0.00     0.167 HD
HETATM   17  C7  LIG X 999      45.649 130.778  18.894  1.00  0.00     0.015 A 
HETATM   18  C8  LIG X 999      46.154 130.530  20.202  1.00  0.00     0.002 A 
ENDBRANCH   1   4
TORSDOF 1
ENDMDL
