REMARK VINA RESULT:      -5.4      4.007      7.486
REMARK  3 active torsions:
REMARK  status: ('A' for Active; 'I' for Inactive)
REMARK    1  A    between atoms: C1_2  and  C2_4 
REMARK       I    between atoms: N1_6  and  C4_7 
REMARK    2  A    between atoms: C4_7  and  C5_9 
REMARK    3  A    between atoms: C6_10  and  C7_11 
ROOT
HETATM    1  C5  LIG X 999      44.568 127.184  23.252  1.00  0.00     0.000 C 
HETATM    2  C6  LIG X 999      45.347 126.339  22.893  1.00  0.00    -0.057 C 
ENDROOT
BRANCH   1   3
HETATM    3  C4  LIG X 999      43.644 128.198  23.687  1.00  0.00     0.300 C 
HETATM    4  N1  LIG X 999      43.645 129.500  23.085  1.00  0.00    -0.317 N 
HETATM    5  C3  LIG X 999      44.527 129.925  22.036  1.00  0.00     0.172 C 
HETATM    6  C17 LIG X 999      42.741 130.569  23.444  1.00  0.00     0.298 C 
HETATM    7  C2  LIG X 999      44.168 131.395  21.866  1.00  0.00     0.242 C 
HETATM    8  O4  LIG X 999      42.975 131.660  22.579  1.00  0.00    -0.354 OA
HETATM    9  O3  LIG X 999      42.827 127.928  24.607  1.00  0.00    -0.258 OA
BRANCH   7  10
HETATM   10  C1  LIG X 999      43.988 131.754  20.422  1.00  0.00     0.204 C 
HETATM   11  O1  LIG X 999      42.834 131.808  19.923  1.00  0.00    -0.646 OA
HETATM   12  O2  LIG X 999      45.091 132.078  19.641  1.00  0.00    -0.646 OA
ENDBRANCH   7  10
ENDBRANCH   1   3
BRANCH   2  13
HETATM   13  C7  LIG X 999      46.283 125.330  22.468  1.00  0.00     0.019 A 
HETATM   14  C8  LIG X 999      45.822 124.063  22.091  1.00  0.00     0.021 A 
HETATM   15  C9  LIG X 999      46.724 123.080  21.677  1.00  0.00     0.013 A 
HETATM   16  C10 LIG X 999      48.100 123.355  21.639  1.00  0.00    -0.026 A 
HETATM   17  C11 LIG X 999      49.015 122.375  21.225  1.00  0.00     0.012 A 
HETATM   18  C15 LIG X 999      48.569 124.636  22.021  1.00  0.00    -0.025 A 
HETATM   19  C12 LIG X 999      50.383 122.664  21.190  1.00  0.00     0.001 A 
HETATM   20  C13 LIG X 999      50.846 123.926  21.568  1.00  0.00     0.001 A 
HETATM   21  C14 LIG X 999      49.945 124.912  21.982  1.00  0.00     0.012 A 
HETATM   22  C16 LIG X 999      47.654 125.618  22.435  1.00  0.00     0.032 A 
ENDBRANCH   2  13
TORSDOF 3
