REMARK VINA RESULT:      -5.1      5.071      8.078
REMARK  5 active torsions:
REMARK  status: ('A' for Active; 'I' for Inactive)
REMARK    1  A    between atoms: C3_3  and  C4_4 
REMARK    2  A    between atoms: C4_4  and  S1_5 
REMARK    3  A    between atoms: S1_5  and  C5_6 
REMARK    4  A    between atoms: C6_7  and  N1_8 
REMARK    5  A    between atoms: C10_12  and  N2_13 
ROOT
HETATM    1  C1  LIG X 999      46.069 131.004  20.310  1.00  0.00     0.112 C 
HETATM    2  C2  LIG X 999      44.999 130.702  21.260  1.00  0.00    -0.110 C 
HETATM    3  C3  LIG X 999      44.112 130.452  22.036  1.00  0.00    -0.097 C 
ENDROOT
BRANCH   3   4
HETATM    4  C4  LIG X 999      43.028 130.144  22.973  1.00  0.00     0.173 C 
BRANCH   4   5
HETATM    5  S1  LIG X 999      43.656 129.152  24.370  1.00  0.00    -0.115 SA
BRANCH   5   6
HETATM    6  C5  LIG X 999      42.802 127.628  23.883  1.00  0.00     0.038 A 
HETATM    7  C6  LIG X 999      41.390 127.581  23.915  1.00  0.00     0.043 A 
HETATM    8  C7  LIG X 999      40.727 126.418  23.521  1.00  0.00     0.031 A 
HETATM    9  C8  LIG X 999      41.433 125.296  23.097  1.00  0.00     0.017 A 
HETATM   10  C9  LIG X 999      42.839 125.302  23.051  1.00  0.00     0.002 A 
HETATM   11  C10 LIG X 999      43.578 124.160  22.620  1.00  0.00     0.045 A 
HETATM   12  C14 LIG X 999      43.534 126.481  23.476  1.00  0.00    -0.004 A 
HETATM   13  C11 LIG X 999      44.978 124.225  22.659  1.00  0.00     0.003 A 
HETATM   14  C12 LIG X 999      45.630 125.340  23.077  1.00  0.00    -0.021 A 
HETATM   15  C18 LIG X 999      45.959 123.176  22.281  1.00  0.00     0.278 C 
HETATM   16  C13 LIG X 999      44.948 126.478  23.486  1.00  0.00     0.023 A 
HETATM   17  C15 LIG X 999      47.096 125.144  23.035  1.00  0.00     0.276 C 
HETATM   18  N3  LIG X 999      47.306 123.822  22.370  1.00  0.00    -0.067 N 
HETATM   19  C16 LIG X 999      47.866 124.020  21.011  1.00  0.00     0.272 C 
HETATM   20  C17 LIG X 999      48.239 122.982  23.157  1.00  0.00     0.272 C 
BRANCH   7  21
HETATM   21  N1  LIG X 999      40.607 128.698  24.363  1.00  0.00    -0.398 N 
HETATM   22  H6  LIG X 999      39.621 128.560  24.680  1.00  0.00     0.156 HD
HETATM   23  H7  LIG X 999      40.985 129.669  24.404  1.00  0.00     0.156 HD
ENDBRANCH   7  21
BRANCH  11  24
HETATM   24  N2  LIG X 999      42.944 122.964  22.137  1.00  0.00    -0.398 N 
HETATM   25  H10 LIG X 999      42.338 122.365  22.735  1.00  0.00     0.156 HD
HETATM   26  H11 LIG X 999      42.979 122.713  21.124  1.00  0.00     0.156 HD
ENDBRANCH  11  24
ENDBRANCH   5   6
ENDBRANCH   4   5
ENDBRANCH   3   4
TORSDOF 5
