REMARK VINA RESULT:      -6.1      1.589      2.360
REMARK  4 active torsions:
REMARK  status: ('A' for Active; 'I' for Inactive)
REMARK    1  A    between atoms: O1_2  and  C1_3 
REMARK    2  A    between atoms: C1_3  and  O4_18 
REMARK       I    between atoms: N1_4  and  C2_5 
REMARK    3  A    between atoms: C2_5  and  C3_7 
REMARK    4  A    between atoms: O4_18  and  C13_19 
ROOT
HETATM    1  C3  LIG X 999      44.951 131.561  19.585  1.00  0.00     0.071 A 
HETATM    2  C4  LIG X 999      43.766 132.117  19.062  1.00  0.00     0.123 A 
HETATM    3  O3  LIG X 999      42.889 132.822  19.879  1.00  0.00    -0.191 OA
HETATM    4  C5  LIG X 999      43.445 131.947  17.711  1.00  0.00     0.053 A 
HETATM    5  C6  LIG X 999      44.287 131.209  16.869  1.00  0.00    -0.023 A 
HETATM    6  C7  LIG X 999      43.969 131.033  15.513  1.00  0.00     0.012 A 
HETATM    7  C8  LIG X 999      44.814 130.289  14.684  1.00  0.00     0.001 A 
HETATM    8  C9  LIG X 999      45.979 129.715  15.201  1.00  0.00     0.001 A 
HETATM    9  C10 LIG X 999      46.306 129.882  16.550  1.00  0.00     0.012 A 
HETATM   10  C11 LIG X 999      45.465 130.627  17.393  1.00  0.00    -0.025 A 
HETATM   11  C12 LIG X 999      45.785 130.803  18.748  1.00  0.00     0.032 A 
ENDROOT
BRANCH   1  12
HETATM   12  C2  LIG X 999      45.315 131.731  21.011  1.00  0.00     0.283 C 
HETATM   13  N1  LIG X 999      44.847 130.840  22.035  1.00  0.00    -0.162 NA
HETATM   14  C1  LIG X 999      43.678 130.269  22.070  1.00  0.00     0.289 C 
HETATM   15  O2  LIG X 999      46.091 132.668  21.337  1.00  0.00    -0.265 OA
BRANCH  14  16
HETATM   16  O1  LIG X 999      42.719 130.555  21.102  1.00  0.00    -0.325 OA
HETATM   17  H1  LIG X 999      42.986 130.963  20.215  1.00  0.00     0.221 HD
ENDBRANCH  14  16
BRANCH  14  18
HETATM   18  O4  LIG X 999      43.347 129.374  23.099  1.00  0.00    -0.294 OA
BRANCH  18  19
HETATM   19  C13 LIG X 999      44.231 128.407  23.676  1.00  0.00     0.224 C 
HETATM   20 CL1  LIG X 999      45.104 127.489  22.415  1.00  0.00    -0.095 Cl
HETATM   21  C14 LIG X 999      43.489 127.468  24.625  1.00  0.00     0.057 C 
ENDBRANCH  18  19
ENDBRANCH  14  18
ENDBRANCH   1  12
TORSDOF 4
