MODEL 1
REMARK VINA RESULT:      -7.0      0.000      0.000
REMARK  7 active torsions:
REMARK  status: ('A' for Active; 'I' for Inactive)
REMARK    1  A    between atoms: S1_2  and  C1_3 
REMARK    2  A    between atoms: C1_3  and  N2_11 
REMARK    3  A    between atoms: N1_4  and  C2_6 
REMARK    4  A    between atoms: C2_6  and  C3_7 
REMARK    5  A    between atoms: C3_7  and  C4_8 
REMARK    6  A    between atoms: C4_8  and  S2_9 
REMARK    7  A    between atoms: N2_11  and  C5_14 
ROOT
HETATM    1  N2  LIG X 999      44.630 132.591  18.581  1.00  0.00     0.006 N 
HETATM    2  H10 LIG X 999      44.349 133.509  18.166  1.00  0.00     0.293 HD
HETATM    3  H11 LIG X 999      45.337 132.810  19.321  1.00  0.00     0.293 HD
ENDROOT
BRANCH   1   4
HETATM    4  C1  LIG X 999      43.479 131.960  19.198  1.00  0.00     0.240 C 
HETATM    5  N1  LIG X 999      43.520 131.390  20.367  1.00  0.00    -0.365 N 
HETATM    6  H2  LIG X 999      42.656 130.959  20.728  1.00  0.00     0.161 HD
BRANCH   4   7
HETATM    7  S1  LIG X 999      41.940 131.877  18.264  1.00  0.00    -0.100 SA
HETATM    8  H1  LIG X 999      41.379 132.960  18.965  1.00  0.00     0.110 HD
ENDBRANCH   4   7
BRANCH   5   9
HETATM    9  C2  LIG X 999      44.672 131.361  21.251  1.00  0.00     0.122 C 
BRANCH   9  10
HETATM   10  C3  LIG X 999      44.512 130.242  22.290  1.00  0.00     0.029 C 
BRANCH  10  11
HETATM   11  C4  LIG X 999      43.112 130.212  22.911  1.00  0.00     0.072 C 
BRANCH  11  12
HETATM   12  S2  LIG X 999      42.827 131.647  23.997  1.00  0.00    -0.182 SA
HETATM   13  H9  LIG X 999      43.538 132.527  23.162  1.00  0.00     0.101 HD
ENDBRANCH  11  12
ENDBRANCH  10  11
ENDBRANCH   9  10
ENDBRANCH   5   9
ENDBRANCH   1   4
BRANCH   1  14
HETATM   14  C5  LIG X 999      45.269 131.727  17.616  1.00  0.00     0.141 A 
HETATM   15  C6  LIG X 999      45.464 130.364  17.902  1.00  0.00     0.038 A 
HETATM   16  C7  LIG X 999      46.086 129.521  16.977  1.00  0.00     0.014 A 
HETATM   17  C8  LIG X 999      46.504 130.023  15.737  1.00  0.00    -0.026 A 
HETATM   18  C9  LIG X 999      47.135 129.187  14.804  1.00  0.00     0.012 A 
HETATM   19  C13 LIG X 999      46.279 131.384  15.421  1.00  0.00    -0.024 A 
HETATM   20  C10 LIG X 999      47.540 129.696  13.567  1.00  0.00     0.001 A 
HETATM   21  C11 LIG X 999      47.316 131.040  13.252  1.00  0.00     0.001 A 
HETATM   22  C12 LIG X 999      46.688 131.882  14.174  1.00  0.00     0.012 A 
HETATM   23  C14 LIG X 999      45.653 132.221  16.355  1.00  0.00     0.049 A 
ENDBRANCH   1  14
TORSDOF 7
ENDMDL
MODEL 2
REMARK VINA RESULT:      -6.9      0.814      1.750
REMARK  7 active torsions:
REMARK  status: ('A' for Active; 'I' for Inactive)
REMARK    1  A    between atoms: S1_2  and  C1_3 
REMARK    2  A    between atoms: C1_3  and  N2_11 
REMARK    3  A    between atoms: N1_4  and  C2_6 
REMARK    4  A    between atoms: C2_6  and  C3_7 
REMARK    5  A    between atoms: C3_7  and  C4_8 
REMARK    6  A    between atoms: C4_8  and  S2_9 
REMARK    7  A    between atoms: N2_11  and  C5_14 
ROOT
HETATM    1  N2  LIG X 999      45.115 130.459  18.664  1.00  0.00     0.006 N 
HETATM    2  H10 LIG X 999      45.871 130.422  19.386  1.00  0.00     0.293 HD
HETATM    3  H11 LIG X 999      44.698 129.500  18.628  1.00  0.00     0.293 HD
ENDROOT
BRANCH   1   4
HETATM    4  C1  LIG X 999      44.093 131.404  19.075  1.00  0.00     0.240 C 
HETATM    5  N1  LIG X 999      44.029 131.910  20.271  1.00  0.00    -0.365 N 
HETATM    6  H2  LIG X 999      43.264 132.570  20.479  1.00  0.00     0.161 HD
BRANCH   4   7
HETATM    7  S1  LIG X 999      42.794 131.829  17.900  1.00  0.00    -0.100 SA
HETATM    8  H1  LIG X 999      41.796 131.802  18.891  1.00  0.00     0.110 HD
ENDBRANCH   4   7
BRANCH   5   9
HETATM    9  C2  LIG X 999      44.986 131.676  21.338  1.00  0.00     0.122 C 
BRANCH   9  10
HETATM   10  C3  LIG X 999      44.567 130.452  22.165  1.00  0.00     0.029 C 
BRANCH  10  11
HETATM   11  C4  LIG X 999      43.077 130.465  22.521  1.00  0.00     0.072 C 
BRANCH  11  12
HETATM   12  S2  LIG X 999      42.725 131.609  23.895  1.00  0.00    -0.182 SA
HETATM   13  H9  LIG X 999      44.084 131.771  24.221  1.00  0.00     0.101 HD
ENDBRANCH  11  12
ENDBRANCH  10  11
ENDBRANCH   9  10
ENDBRANCH   5   9
ENDBRANCH   1   4
BRANCH   1  14
HETATM   14  C5  LIG X 999      45.629 130.756  17.348  1.00  0.00     0.141 A 
HETATM   15  C6  LIG X 999      45.407 132.017  16.766  1.00  0.00     0.038 A 
HETATM   16  C7  LIG X 999      45.896 132.312  15.490  1.00  0.00     0.014 A 
HETATM   17  C8  LIG X 999      46.637 131.355  14.782  1.00  0.00    -0.026 A 
HETATM   18  C9  LIG X 999      47.126 131.638  13.498  1.00  0.00     0.012 A 
HETATM   19  C13 LIG X 999      46.900 130.097  15.371  1.00  0.00    -0.024 A 
HETATM   20  C10 LIG X 999      47.872 130.681  12.804  1.00  0.00     0.001 A 
HETATM   21  C11 LIG X 999      48.134 129.437  13.387  1.00  0.00     0.001 A 
HETATM   22  C12 LIG X 999      47.652 129.144  14.666  1.00  0.00     0.012 A 
HETATM   23  C14 LIG X 999      46.406 129.811  16.652  1.00  0.00     0.049 A 
ENDBRANCH   1  14
TORSDOF 7
ENDMDL
MODEL 3
REMARK VINA RESULT:      -6.7      1.402      1.531
REMARK  7 active torsions:
REMARK  status: ('A' for Active; 'I' for Inactive)
REMARK    1  A    between atoms: S1_2  and  C1_3 
REMARK    2  A    between atoms: C1_3  and  N2_11 
REMARK    3  A    between atoms: N1_4  and  C2_6 
REMARK    4  A    between atoms: C2_6  and  C3_7 
REMARK    5  A    between atoms: C3_7  and  C4_8 
REMARK    6  A    between atoms: C4_8  and  S2_9 
REMARK    7  A    between atoms: N2_11  and  C5_14 
ROOT
HETATM    1  N2  LIG X 999      44.462 132.407  19.677  1.00  0.00     0.006 N 
HETATM    2  H10 LIG X 999      44.436 133.433  19.475  1.00  0.00     0.293 HD
HETATM    3  H11 LIG X 999      45.082 132.290  20.512  1.00  0.00     0.293 HD
ENDROOT
BRANCH   1   4
HETATM    4  C1  LIG X 999      43.130 131.939  20.009  1.00  0.00     0.240 C 
HETATM    5  N1  LIG X 999      42.840 131.351  21.132  1.00  0.00    -0.365 N 
HETATM    6  H2  LIG X 999      41.867 131.044  21.283  1.00  0.00     0.161 HD
BRANCH   4   7
HETATM    7  S1  LIG X 999      41.830 132.096  18.770  1.00  0.00    -0.100 SA
HETATM    8  H1  LIG X 999      42.699 132.694  17.838  1.00  0.00     0.110 HD
ENDBRANCH   4   7
BRANCH   5   9
HETATM    9  C2  LIG X 999      43.760 131.140  22.236  1.00  0.00     0.122 C 
BRANCH   9  10
HETATM   10  C3  LIG X 999      43.490 129.780  22.895  1.00  0.00     0.029 C 
BRANCH  10  11
HETATM   11  C4  LIG X 999      44.670 128.813  22.753  1.00  0.00     0.072 C 
BRANCH  11  12
HETATM   12  S2  LIG X 999      44.650 127.532  24.049  1.00  0.00    -0.182 SA
HETATM   13  H9  LIG X 999      44.499 128.468  25.089  1.00  0.00     0.101 HD
ENDBRANCH  11  12
ENDBRANCH  10  11
ENDBRANCH   9  10
ENDBRANCH   5   9
ENDBRANCH   1   4
BRANCH   1  14
HETATM   14  C5  LIG X 999      45.047 131.651  18.595  1.00  0.00     0.141 A 
HETATM   15  C6  LIG X 999      45.596 130.378  18.833  1.00  0.00     0.038 A 
HETATM   16  C7  LIG X 999      46.170 129.641  17.793  1.00  0.00     0.014 A 
HETATM   17  C8  LIG X 999      46.184 130.156  16.489  1.00  0.00    -0.026 A 
HETATM   18  C9  LIG X 999      46.763 129.427  15.439  1.00  0.00     0.012 A 
HETATM   19  C13 LIG X 999      45.601 131.418  16.229  1.00  0.00    -0.024 A 
HETATM   20  C10 LIG X 999      46.763 129.946  14.141  1.00  0.00     0.001 A 
HETATM   21  C11 LIG X 999      46.185 131.193  13.883  1.00  0.00     0.001 A 
HETATM   22  C12 LIG X 999      45.605 131.928  14.921  1.00  0.00     0.012 A 
HETATM   23  C14 LIG X 999      45.027 132.150  17.279  1.00  0.00     0.049 A 
ENDBRANCH   1  14
TORSDOF 7
ENDMDL
MODEL 4
REMARK VINA RESULT:      -6.3      2.487      3.823
REMARK  7 active torsions:
REMARK  status: ('A' for Active; 'I' for Inactive)
REMARK    1  A    between atoms: S1_2  and  C1_3 
REMARK    2  A    between atoms: C1_3  and  N2_11 
REMARK    3  A    between atoms: N1_4  and  C2_6 
REMARK    4  A    between atoms: C2_6  and  C3_7 
REMARK    5  A    between atoms: C3_7  and  C4_8 
REMARK    6  A    between atoms: C4_8  and  S2_9 
REMARK    7  A    between atoms: N2_11  and  C5_14 
ROOT
HETATM    1  N2  LIG X 999      45.269 131.109  21.707  1.00  0.00     0.006 N 
HETATM    2  H10 LIG X 999      45.551 132.034  22.104  1.00  0.00     0.293 HD
HETATM    3  H11 LIG X 999      46.117 130.497  21.762  1.00  0.00     0.293 HD
ENDROOT
BRANCH   1   4
HETATM    4  C1  LIG X 999      44.215 130.529  22.516  1.00  0.00     0.240 C 
HETATM    5  N1  LIG X 999      44.113 129.253  22.746  1.00  0.00    -0.365 N 
HETATM    6  H2  LIG X 999      43.326 128.925  23.328  1.00  0.00     0.161 HD
BRANCH   4   7
HETATM    7  S1  LIG X 999      42.928 131.615  23.159  1.00  0.00    -0.100 SA
HETATM    8  H1  LIG X 999      42.565 132.056  21.873  1.00  0.00     0.110 HD
ENDBRANCH   4   7
BRANCH   5   9
HETATM    9  C2  LIG X 999      45.054 128.238  22.306  1.00  0.00     0.122 C 
BRANCH   9  10
HETATM   10  C3  LIG X 999      45.043 127.050  23.278  1.00  0.00     0.029 C 
BRANCH  10  11
HETATM   11  C4  LIG X 999      43.672 126.369  23.359  1.00  0.00     0.072 C 
BRANCH  11  12
HETATM   12  S2  LIG X 999      43.651 124.788  22.453  1.00  0.00    -0.182 SA
HETATM   13  H9  LIG X 999      44.828 125.084  21.741  1.00  0.00     0.101 HD
ENDBRANCH  11  12
ENDBRANCH  10  11
ENDBRANCH   9  10
ENDBRANCH   5   9
ENDBRANCH   1   4
BRANCH   1  14
HETATM   14  C5  LIG X 999      44.894 131.202  20.315  1.00  0.00     0.141 A 
HETATM   15  C6  LIG X 999      43.712 131.865  19.941  1.00  0.00     0.038 A 
HETATM   16  C7  LIG X 999      43.338 131.955  18.597  1.00  0.00     0.014 A 
HETATM   17  C8  LIG X 999      44.155 131.403  17.600  1.00  0.00    -0.026 A 
HETATM   18  C9  LIG X 999      43.785 131.483  16.249  1.00  0.00     0.012 A 
HETATM   19  C13 LIG X 999      45.366 130.768  17.960  1.00  0.00    -0.024 A 
HETATM   20  C10 LIG X 999      44.612 130.937  15.263  1.00  0.00     0.001 A 
HETATM   21  C11 LIG X 999      45.810 130.310  15.617  1.00  0.00     0.001 A 
HETATM   22  C12 LIG X 999      46.188 130.226  16.960  1.00  0.00     0.012 A 
HETATM   23  C14 LIG X 999      45.733 130.683  19.311  1.00  0.00     0.049 A 
ENDBRANCH   1  14
TORSDOF 7
ENDMDL
MODEL 5
REMARK VINA RESULT:      -6.0      2.790      4.451
REMARK  7 active torsions:
REMARK  status: ('A' for Active; 'I' for Inactive)
REMARK    1  A    between atoms: S1_2  and  C1_3 
REMARK    2  A    between atoms: C1_3  and  N2_11 
REMARK    3  A    between atoms: N1_4  and  C2_6 
REMARK    4  A    between atoms: C2_6  and  C3_7 
REMARK    5  A    between atoms: C3_7  and  C4_8 
REMARK    6  A    between atoms: C4_8  and  S2_9 
REMARK    7  A    between atoms: N2_11  and  C5_14 
ROOT
HETATM    1  N2  LIG X 999      42.581 131.829  22.436  1.00  0.00     0.006 N 
HETATM    2  H10 LIG X 999      41.630 131.404  22.341  1.00  0.00     0.293 HD
HETATM    3  H11 LIG X 999      42.432 132.861  22.530  1.00  0.00     0.293 HD
ENDROOT
BRANCH   1   4
HETATM    4  C1  LIG X 999      43.222 131.333  23.639  1.00  0.00     0.240 C 
HETATM    5  N1  LIG X 999      43.070 130.118  24.078  1.00  0.00    -0.365 N 
HETATM    6  H2  LIG X 999      43.558 129.851  24.947  1.00  0.00     0.161 HD
BRANCH   4   7
HETATM    7  S1  LIG X 999      44.204 132.478  24.625  1.00  0.00    -0.100 SA
HETATM    8  H1  LIG X 999      43.972 133.546  23.738  1.00  0.00     0.110 HD
ENDBRANCH   4   7
BRANCH   5   9
HETATM    9  C2  LIG X 999      42.315 129.069  23.415  1.00  0.00     0.122 C 
BRANCH   9  10
HETATM   10  C3  LIG X 999      41.801 128.056  24.447  1.00  0.00     0.029 C 
BRANCH  10  11
HETATM   11  C4  LIG X 999      40.874 127.004  23.827  1.00  0.00     0.072 C 
BRANCH  11  12
HETATM   12  S2  LIG X 999      39.135 127.279  24.298  1.00  0.00    -0.182 SA
HETATM   13  H9  LIG X 999      39.050 128.496  23.597  1.00  0.00     0.101 HD
ENDBRANCH  11  12
ENDBRANCH  10  11
ENDBRANCH   9  10
ENDBRANCH   5   9
ENDBRANCH   1   4
BRANCH   1  14
HETATM   14  C5  LIG X 999      43.395 131.616  21.262  1.00  0.00     0.141 A 
HETATM   15  C6  LIG X 999      44.724 131.174  21.389  1.00  0.00     0.038 A 
HETATM   16  C7  LIG X 999      45.521 130.970  20.259  1.00  0.00     0.014 A 
HETATM   17  C8  LIG X 999      44.993 131.183  18.978  1.00  0.00    -0.026 A 
HETATM   18  C9  LIG X 999      45.786 130.988  17.837  1.00  0.00     0.012 A 
HETATM   19  C13 LIG X 999      43.646 131.591  18.834  1.00  0.00    -0.024 A 
HETATM   20  C10 LIG X 999      45.247 131.195  16.564  1.00  0.00     0.001 A 
HETATM   21  C11 LIG X 999      43.916 131.596  16.421  1.00  0.00     0.001 A 
HETATM   22  C12 LIG X 999      43.116 131.793  17.550  1.00  0.00     0.012 A 
HETATM   23  C14 LIG X 999      42.855 131.792  19.974  1.00  0.00     0.049 A 
ENDBRANCH   1  14
TORSDOF 7
ENDMDL
MODEL 6
REMARK VINA RESULT:      -5.9      2.414      7.200
REMARK  7 active torsions:
REMARK  status: ('A' for Active; 'I' for Inactive)
REMARK    1  A    between atoms: S1_2  and  C1_3 
REMARK    2  A    between atoms: C1_3  and  N2_11 
REMARK    3  A    between atoms: N1_4  and  C2_6 
REMARK    4  A    between atoms: C2_6  and  C3_7 
REMARK    5  A    between atoms: C3_7  and  C4_8 
REMARK    6  A    between atoms: C4_8  and  S2_9 
REMARK    7  A    between atoms: N2_11  and  C5_14 
ROOT
HETATM    1  N2  LIG X 999      44.932 132.020  19.668  1.00  0.00     0.006 N 
HETATM    2  H10 LIG X 999      45.891 131.893  19.272  1.00  0.00     0.293 HD
HETATM    3  H11 LIG X 999      44.872 133.019  19.974  1.00  0.00     0.293 HD
ENDROOT
BRANCH   1   4
HETATM    4  C1  LIG X 999      43.941 131.783  18.636  1.00  0.00     0.240 C 
HETATM    5  N1  LIG X 999      44.244 131.398  17.431  1.00  0.00    -0.365 N 
HETATM    6  H2  LIG X 999      43.476 131.260  16.758  1.00  0.00     0.161 HD
BRANCH   4   7
HETATM    7  S1  LIG X 999      42.211 132.125  19.011  1.00  0.00    -0.100 SA
HETATM    8  H1  LIG X 999      42.282 131.471  20.254  1.00  0.00     0.110 HD
ENDBRANCH   4   7
BRANCH   5   9
HETATM    9  C2  LIG X 999      45.580 131.081  16.958  1.00  0.00     0.122 C 
BRANCH   9  10
HETATM   10  C3  LIG X 999      45.833 131.750  15.600  1.00  0.00     0.029 C 
BRANCH  10  11
HETATM   11  C4  LIG X 999      45.869 130.743  14.446  1.00  0.00     0.072 C 
BRANCH  11  12
HETATM   12  S2  LIG X 999      47.321 131.000  13.375  1.00  0.00    -0.182 SA
HETATM   13  H9  LIG X 999      46.576 131.659  12.380  1.00  0.00     0.101 HD
ENDBRANCH  11  12
ENDBRANCH  10  11
ENDBRANCH   9  10
ENDBRANCH   5   9
ENDBRANCH   1   4
BRANCH   1  14
HETATM   14  C5  LIG X 999      44.708 131.197  20.833  1.00  0.00     0.141 A 
HETATM   15  C6  LIG X 999      43.967 131.692  21.922  1.00  0.00     0.038 A 
HETATM   16  C7  LIG X 999      43.750 130.905  23.056  1.00  0.00     0.014 A 
HETATM   17  C8  LIG X 999      44.251 129.597  23.112  1.00  0.00    -0.026 A 
HETATM   18  C9  LIG X 999      44.044 128.801  24.248  1.00  0.00     0.012 A 
HETATM   19  C13 LIG X 999      44.965 129.073  22.009  1.00  0.00    -0.024 A 
HETATM   20  C10 LIG X 999      44.541 127.495  24.290  1.00  0.00     0.001 A 
HETATM   21  C11 LIG X 999      45.245 126.976  23.199  1.00  0.00     0.001 A 
HETATM   22  C12 LIG X 999      45.457 127.760  22.062  1.00  0.00     0.012 A 
HETATM   23  C14 LIG X 999      45.177 129.871  20.875  1.00  0.00     0.049 A 
ENDBRANCH   1  14
TORSDOF 7
ENDMDL
MODEL 7
REMARK VINA RESULT:      -5.9      2.159      7.192
REMARK  7 active torsions:
REMARK  status: ('A' for Active; 'I' for Inactive)
REMARK    1  A    between atoms: S1_2  and  C1_3 
REMARK    2  A    between atoms: C1_3  and  N2_11 
REMARK    3  A    between atoms: N1_4  and  C2_6 
REMARK    4  A    between atoms: C2_6  and  C3_7 
REMARK    5  A    between atoms: C3_7  and  C4_8 
REMARK    6  A    between atoms: C4_8  and  S2_9 
REMARK    7  A    between atoms: N2_11  and  C5_14 
ROOT
HETATM    1  N2  LIG X 999      44.990 132.035  18.672  1.00  0.00     0.006 N 
HETATM    2  H10 LIG X 999      45.926 131.853  18.242  1.00  0.00     0.293 HD
HETATM    3  H11 LIG X 999      44.961 133.060  18.884  1.00  0.00     0.293 HD
ENDROOT
BRANCH   1   4
HETATM    4  C1  LIG X 999      43.944 131.720  17.719  1.00  0.00     0.240 C 
HETATM    5  N1  LIG X 999      44.182 131.369  16.489  1.00  0.00    -0.365 N 
HETATM    6  H2  LIG X 999      43.377 131.169  15.876  1.00  0.00     0.161 HD
BRANCH   4   7
HETATM    7  S1  LIG X 999      42.227 131.911  18.232  1.00  0.00    -0.100 SA
HETATM    8  H1  LIG X 999      42.574 132.010  19.592  1.00  0.00     0.110 HD
ENDBRANCH   4   7
BRANCH   5   9
HETATM    9  C2  LIG X 999      45.498 131.169  15.908  1.00  0.00     0.122 C 
BRANCH   9  10
HETATM   10  C3  LIG X 999      45.568 129.799  15.218  1.00  0.00     0.029 C 
BRANCH  10  11
HETATM   11  C4  LIG X 999      46.892 129.581  14.477  1.00  0.00     0.072 C 
BRANCH  11  12
HETATM   12  S2  LIG X 999      47.280 130.975  13.370  1.00  0.00    -0.182 SA
HETATM   13  H9  LIG X 999      48.653 130.947  13.679  1.00  0.00     0.101 HD
ENDBRANCH  11  12
ENDBRANCH  10  11
ENDBRANCH   9  10
ENDBRANCH   5   9
ENDBRANCH   1   4
BRANCH   1  14
HETATM   14  C5  LIG X 999      44.815 131.330  19.920  1.00  0.00     0.141 A 
HETATM   15  C6  LIG X 999      45.557 130.166  20.190  1.00  0.00     0.038 A 
HETATM   16  C7  LIG X 999      45.391 129.475  21.392  1.00  0.00     0.014 A 
HETATM   17  C8  LIG X 999      44.493 129.949  22.359  1.00  0.00    -0.026 A 
HETATM   18  C9  LIG X 999      44.314 129.259  23.567  1.00  0.00     0.012 A 
HETATM   19  C13 LIG X 999      43.769 131.140  22.118  1.00  0.00    -0.024 A 
HETATM   20  C10 LIG X 999      43.423 129.746  24.528  1.00  0.00     0.001 A 
HETATM   21  C11 LIG X 999      42.708 130.924  24.291  1.00  0.00     0.001 A 
HETATM   22  C12 LIG X 999      42.879 131.620  23.091  1.00  0.00     0.012 A 
HETATM   23  C14 LIG X 999      43.944 131.828  20.908  1.00  0.00     0.049 A 
ENDBRANCH   1  14
TORSDOF 7
ENDMDL
MODEL 8
REMARK VINA RESULT:      -5.7      2.033      2.681
REMARK  7 active torsions:
REMARK  status: ('A' for Active; 'I' for Inactive)
REMARK    1  A    between atoms: S1_2  and  C1_3 
REMARK    2  A    between atoms: C1_3  and  N2_11 
REMARK    3  A    between atoms: N1_4  and  C2_6 
REMARK    4  A    between atoms: C2_6  and  C3_7 
REMARK    5  A    between atoms: C3_7  and  C4_8 
REMARK    6  A    between atoms: C4_8  and  S2_9 
REMARK    7  A    between atoms: N2_11  and  C5_14 
ROOT
HETATM    1  N2  LIG X 999      45.577 130.290  20.284  1.00  0.00     0.006 N 
HETATM    2  H10 LIG X 999      46.544 129.925  20.444  1.00  0.00     0.293 HD
HETATM    3  H11 LIG X 999      44.925 129.512  20.538  1.00  0.00     0.293 HD
ENDROOT
BRANCH   1   4
HETATM    4  C1  LIG X 999      45.329 131.420  21.159  1.00  0.00     0.240 C 
HETATM    5  N1  LIG X 999      44.294 131.500  21.944  1.00  0.00    -0.365 N 
HETATM    6  H2  LIG X 999      44.192 132.343  22.529  1.00  0.00     0.161 HD
BRANCH   4   7
HETATM    7  S1  LIG X 999      46.457 132.823  21.093  1.00  0.00    -0.100 SA
HETATM    8  H1  LIG X 999      45.605 133.631  21.867  1.00  0.00     0.110 HD
ENDBRANCH   4   7
BRANCH   5   9
HETATM    9  C2  LIG X 999      43.287 130.468  22.120  1.00  0.00     0.122 C 
BRANCH   9  10
HETATM   10  C3  LIG X 999      42.769 130.478  23.565  1.00  0.00     0.029 C 
BRANCH  10  11
HETATM   11  C4  LIG X 999      43.371 129.354  24.414  1.00  0.00     0.072 C 
BRANCH  11  12
HETATM   12  S2  LIG X 999      44.360 128.204  23.404  1.00  0.00    -0.182 SA
HETATM   13  H9  LIG X 999      43.819 128.671  22.192  1.00  0.00     0.101 HD
ENDBRANCH  11  12
ENDBRANCH  10  11
ENDBRANCH   9  10
ENDBRANCH   5   9
ENDBRANCH   1   4
BRANCH   1  14
HETATM   14  C5  LIG X 999      45.338 130.617  18.898  1.00  0.00     0.141 A 
HETATM   15  C6  LIG X 999      44.260 131.446  18.538  1.00  0.00     0.038 A 
HETATM   16  C7  LIG X 999      44.018 131.763  17.199  1.00  0.00     0.014 A 
HETATM   17  C8  LIG X 999      44.867 131.275  16.195  1.00  0.00    -0.026 A 
HETATM   18  C9  LIG X 999      44.629 131.583  14.847  1.00  0.00     0.012 A 
HETATM   19  C13 LIG X 999      45.977 130.472  16.546  1.00  0.00    -0.024 A 
HETATM   20  C10 LIG X 999      45.486 131.098  13.855  1.00  0.00     0.001 A 
HETATM   21  C11 LIG X 999      46.585 130.306  14.201  1.00  0.00     0.001 A 
HETATM   22  C12 LIG X 999      46.832 129.994  15.541  1.00  0.00     0.012 A 
HETATM   23  C14 LIG X 999      46.212 130.160  17.893  1.00  0.00     0.049 A 
ENDBRANCH   1  14
TORSDOF 7
ENDMDL
MODEL 9
REMARK VINA RESULT:      -5.6      2.805      3.540
REMARK  7 active torsions:
REMARK  status: ('A' for Active; 'I' for Inactive)
REMARK    1  A    between atoms: S1_2  and  C1_3 
REMARK    2  A    between atoms: C1_3  and  N2_11 
REMARK    3  A    between atoms: N1_4  and  C2_6 
REMARK    4  A    between atoms: C2_6  and  C3_7 
REMARK    5  A    between atoms: C3_7  and  C4_8 
REMARK    6  A    between atoms: C4_8  and  S2_9 
REMARK    7  A    between atoms: N2_11  and  C5_14 
ROOT
HETATM    1  N2  LIG X 999      45.711 130.429  20.321  1.00  0.00     0.006 N 
HETATM    2  H10 LIG X 999      46.735 130.315  20.495  1.00  0.00     0.293 HD
HETATM    3  H11 LIG X 999      45.270 129.510  20.555  1.00  0.00     0.293 HD
ENDROOT
BRANCH   1   4
HETATM    4  C1  LIG X 999      45.174 131.448  21.203  1.00  0.00     0.240 C 
HETATM    5  N1  LIG X 999      45.888 132.426  21.680  1.00  0.00    -0.365 N 
HETATM    6  H2  LIG X 999      45.427 133.103  22.306  1.00  0.00     0.161 HD
BRANCH   4   7
HETATM    7  S1  LIG X 999      43.460 131.305  21.740  1.00  0.00    -0.100 SA
HETATM    8  H1  LIG X 999      43.009 132.216  20.767  1.00  0.00     0.110 HD
ENDBRANCH   4   7
BRANCH   5   9
HETATM    9  C2  LIG X 999      47.279 132.691  21.357  1.00  0.00     0.122 C 
BRANCH   9  10
HETATM   10  C3  LIG X 999      47.674 134.094  21.837  1.00  0.00     0.029 C 
BRANCH  10  11
HETATM   11  C4  LIG X 999      48.071 134.120  23.316  1.00  0.00     0.072 C 
BRANCH  11  12
HETATM   12  S2  LIG X 999      49.841 134.497  23.531  1.00  0.00    -0.182 SA
HETATM   13  H9  LIG X 999      50.257 133.310  22.900  1.00  0.00     0.101 HD
ENDBRANCH  11  12
ENDBRANCH  10  11
ENDBRANCH   9  10
ENDBRANCH   5   9
ENDBRANCH   1   4
BRANCH   1  14
HETATM   14  C5  LIG X 999      45.420 130.707  18.934  1.00  0.00     0.141 A 
HETATM   15  C6  LIG X 999      44.324 131.517  18.585  1.00  0.00     0.038 A 
HETATM   16  C7  LIG X 999      44.031 131.786  17.245  1.00  0.00     0.014 A 
HETATM   17  C8  LIG X 999      44.845 131.267  16.229  1.00  0.00    -0.026 A 
HETATM   18  C9  LIG X 999      44.556 131.526  14.880  1.00  0.00     0.012 A 
HETATM   19  C13 LIG X 999      45.973 130.483  16.566  1.00  0.00    -0.024 A 
HETATM   20  C10 LIG X 999      45.380 131.011  13.875  1.00  0.00     0.001 A 
HETATM   21  C11 LIG X 999      46.496 130.237  14.208  1.00  0.00     0.001 A 
HETATM   22  C12 LIG X 999      46.793 129.974  15.548  1.00  0.00     0.012 A 
HETATM   23  C14 LIG X 999      46.259 130.219  17.914  1.00  0.00     0.049 A 
ENDBRANCH   1  14
TORSDOF 7
ENDMDL
