MODEL 1
REMARK VINA RESULT:      -8.4      0.000      0.000
REMARK  2 active torsions:
REMARK  status: ('A' for Active; 'I' for Inactive)
REMARK    1  A    between atoms: N1_1  and  C1_2 
REMARK    2  A    between atoms: C7_8  and  N2_9 
ROOT
HETATM    1  C1  LIG X 999      45.499 130.737  15.376  1.00  0.00     0.103 A 
HETATM    2  C2  LIG X 999      46.120 130.414  16.585  1.00  0.00     0.049 A 
HETATM    3  C3  LIG X 999      45.497 130.739  17.793  1.00  0.00     0.001 A 
HETATM    4  C4  LIG X 999      46.094 130.435  19.018  1.00  0.00     0.015 A 
HETATM    5  C5  LIG X 999      45.458 130.765  20.216  1.00  0.00     0.015 A 
HETATM    6  C6  LIG X 999      44.198 131.402  20.216  1.00  0.00     0.003 A 
HETATM    7  C7  LIG X 999      43.521 131.744  21.420  1.00  0.00     0.037 A 
HETATM    8  C8  LIG X 999      42.296 132.423  21.353  1.00  0.00     0.030 A 
HETATM    9  C9  LIG X 999      41.722 132.745  20.127  1.00  0.00     0.003 A 
HETATM   10  C10 LIG X 999      42.361 132.397  18.941  1.00  0.00     0.015 A 
HETATM   11  C11 LIG X 999      43.598 131.729  18.965  1.00  0.00     0.011 A 
HETATM   12  C12 LIG X 999      44.248 131.391  17.759  1.00  0.00     0.101 A 
HETATM   13  O1  LIG X 999      43.689 131.683  16.584  1.00  0.00    -0.272 OA
HETATM   14  C13 LIG X 999      44.254 131.388  15.417  1.00  0.00     0.314 A 
HETATM   15  O2  LIG X 999      43.660 131.697  14.351  1.00  0.00    -0.257 OA
ENDROOT
BRANCH   1  16
HETATM   16  N1  LIG X 999      46.128 130.409  14.132  1.00  0.00    -0.394 N 
HETATM   17  H1  LIG X 999      45.579 130.352  13.245  1.00  0.00     0.156 HD
HETATM   18  H2  LIG X 999      47.154 130.221  14.088  1.00  0.00     0.156 HD
ENDBRANCH   1  16
BRANCH   7  19
HETATM   19  N2  LIG X 999      44.035 131.407  22.720  1.00  0.00    -0.398 N 
HETATM   20  H6  LIG X 999      45.050 131.405  22.951  1.00  0.00     0.156 HD
HETATM   21  H7  LIG X 999      43.392 131.044  23.459  1.00  0.00     0.156 HD
ENDBRANCH   7  19
TORSDOF 2
ENDMDL
MODEL 2
REMARK VINA RESULT:      -8.2      1.486      5.204
REMARK  2 active torsions:
REMARK  status: ('A' for Active; 'I' for Inactive)
REMARK    1  A    between atoms: N1_1  and  C1_2 
REMARK    2  A    between atoms: C7_8  and  N2_9 
ROOT
HETATM    1  C1  LIG X 999      42.972 131.971  20.845  1.00  0.00     0.103 A 
HETATM    2  C2  LIG X 999      44.175 131.277  20.692  1.00  0.00     0.049 A 
HETATM    3  C3  LIG X 999      44.680 131.040  19.411  1.00  0.00     0.001 A 
HETATM    4  C4  LIG X 999      45.877 130.344  19.224  1.00  0.00     0.015 A 
HETATM    5  C5  LIG X 999      46.369 130.118  17.938  1.00  0.00     0.015 A 
HETATM    6  C6  LIG X 999      45.677 130.593  16.803  1.00  0.00     0.003 A 
HETATM    7  C7  LIG X 999      46.158 130.385  15.479  1.00  0.00     0.037 A 
HETATM    8  C8  LIG X 999      45.397 130.836  14.391  1.00  0.00     0.030 A 
HETATM    9  C9  LIG X 999      44.193 131.505  14.588  1.00  0.00     0.003 A 
HETATM   10  C10 LIG X 999      43.721 131.736  15.876  1.00  0.00     0.015 A 
HETATM   11  C11 LIG X 999      44.446 131.286  16.994  1.00  0.00     0.011 A 
HETATM   12  C12 LIG X 999      43.957 131.512  18.297  1.00  0.00     0.101 A 
HETATM   13  O1  LIG X 999      42.812 132.169  18.486  1.00  0.00    -0.272 OA
HETATM   14  C13 LIG X 999      42.302 132.411  19.691  1.00  0.00     0.314 A 
HETATM   15  O2  LIG X 999      41.216 133.040  19.784  1.00  0.00    -0.257 OA
ENDROOT
BRANCH   1  16
HETATM   16  N1  LIG X 999      42.444 132.219  22.153  1.00  0.00    -0.394 N 
HETATM   17  H1  LIG X 999      41.856 133.059  22.350  1.00  0.00     0.156 HD
HETATM   18  H2  LIG X 999      42.637 131.559  22.938  1.00  0.00     0.156 HD
ENDBRANCH   1  16
BRANCH   7  19
HETATM   19  N2  LIG X 999      47.411 129.738  15.203  1.00  0.00    -0.398 N 
HETATM   20  H6  LIG X 999      47.831 129.686  14.252  1.00  0.00     0.156 HD
HETATM   21  H7  LIG X 999      47.897 129.195  15.953  1.00  0.00     0.156 HD
ENDBRANCH   7  19
TORSDOF 2
ENDMDL
MODEL 3
REMARK VINA RESULT:      -7.8      1.491      2.647
REMARK  2 active torsions:
REMARK  status: ('A' for Active; 'I' for Inactive)
REMARK    1  A    between atoms: N1_1  and  C1_2 
REMARK    2  A    between atoms: C7_8  and  N2_9 
ROOT
HETATM    1  C1  LIG X 999      45.153 131.002  15.171  1.00  0.00     0.103 A 
HETATM    2  C2  LIG X 999      43.948 131.507  15.665  1.00  0.00     0.049 A 
HETATM    3  C3  LIG X 999      43.736 131.568  17.045  1.00  0.00     0.001 A 
HETATM    4  C4  LIG X 999      42.539 132.062  17.571  1.00  0.00     0.015 A 
HETATM    5  C5  LIG X 999      42.345 132.117  18.952  1.00  0.00     0.015 A 
HETATM    6  C6  LIG X 999      43.350 131.686  19.844  1.00  0.00     0.003 A 
HETATM    7  C7  LIG X 999      43.183 131.739  21.257  1.00  0.00     0.037 A 
HETATM    8  C8  LIG X 999      44.198 131.247  22.089  1.00  0.00     0.030 A 
HETATM    9  C9  LIG X 999      45.376 130.732  21.554  1.00  0.00     0.003 A 
HETATM   10  C10 LIG X 999      45.563 130.695  20.176  1.00  0.00     0.015 A 
HETATM   11  C11 LIG X 999      44.563 131.165  19.306  1.00  0.00     0.011 A 
HETATM   12  C12 LIG X 999      44.752 131.113  17.910  1.00  0.00     0.101 A 
HETATM   13  O1  LIG X 999      45.887 130.637  17.398  1.00  0.00    -0.272 OA
HETATM   14  C13 LIG X 999      46.122 130.565  16.090  1.00  0.00     0.314 A 
HETATM   15  O2  LIG X 999      47.222 130.103  15.687  1.00  0.00    -0.257 OA
ENDROOT
BRANCH   1  16
HETATM   16  N1  LIG X 999      45.382 130.934  13.759  1.00  0.00    -0.394 N 
HETATM   17  H1  LIG X 999      45.969 131.646  13.270  1.00  0.00     0.156 HD
HETATM   18  H2  LIG X 999      44.964 130.166  13.189  1.00  0.00     0.156 HD
ENDBRANCH   1  16
BRANCH   7  19
HETATM   19  N2  LIG X 999      42.011 132.293  21.879  1.00  0.00    -0.398 N 
HETATM   20  H6  LIG X 999      41.502 131.827  22.658  1.00  0.00     0.156 HD
HETATM   21  H7  LIG X 999      41.566 133.151  21.484  1.00  0.00     0.156 HD
ENDBRANCH   7  19
TORSDOF 2
ENDMDL
MODEL 4
REMARK VINA RESULT:      -6.6      2.170      5.905
REMARK  2 active torsions:
REMARK  status: ('A' for Active; 'I' for Inactive)
REMARK    1  A    between atoms: N1_1  and  C1_2 
REMARK    2  A    between atoms: C7_8  and  N2_9 
ROOT
HETATM    1  C1  LIG X 999      42.913 131.710  22.133  1.00  0.00     0.103 A 
HETATM    2  C2  LIG X 999      42.179 132.145  21.027  1.00  0.00     0.049 A 
HETATM    3  C3  LIG X 999      42.690 131.958  19.739  1.00  0.00     0.001 A 
HETATM    4  C4  LIG X 999      41.984 132.387  18.613  1.00  0.00     0.015 A 
HETATM    5  C5  LIG X 999      42.508 132.191  17.334  1.00  0.00     0.015 A 
HETATM    6  C6  LIG X 999      43.752 131.550  17.150  1.00  0.00     0.003 A 
HETATM    7  C7  LIG X 999      44.307 131.328  15.859  1.00  0.00     0.037 A 
HETATM    8  C8  LIG X 999      45.572 130.733  15.745  1.00  0.00     0.030 A 
HETATM    9  C9  LIG X 999      46.279 130.333  16.876  1.00  0.00     0.003 A 
HETATM   10  C10 LIG X 999      45.739 130.522  18.144  1.00  0.00     0.015 A 
HETATM   11  C11 LIG X 999      44.481 131.129  18.301  1.00  0.00     0.011 A 
HETATM   12  C12 LIG X 999      43.943 131.330  19.590  1.00  0.00     0.101 A 
HETATM   13  O1  LIG X 999      44.613 130.931  20.672  1.00  0.00    -0.272 OA
HETATM   14  C13 LIG X 999      44.156 131.093  21.911  1.00  0.00     0.314 A 
HETATM   15  O2  LIG X 999      44.849 130.686  22.880  1.00  0.00    -0.257 OA
ENDROOT
BRANCH   1  16
HETATM   16  N1  LIG X 999      42.400 131.896  23.457  1.00  0.00    -0.394 N 
HETATM   17  H1  LIG X 999      42.575 132.779  23.987  1.00  0.00     0.156 HD
HETATM   18  H2  LIG X 999      41.838 131.148  23.919  1.00  0.00     0.156 HD
ENDBRANCH   1  16
BRANCH   7  19
HETATM   19  N2  LIG X 999      43.617 131.679  14.648  1.00  0.00    -0.398 N 
HETATM   20  H6  LIG X 999      43.982 132.370  13.960  1.00  0.00     0.156 HD
HETATM   21  H7  LIG X 999      42.653 131.317  14.472  1.00  0.00     0.156 HD
ENDBRANCH   7  19
TORSDOF 2
ENDMDL
