REMARK VINA RESULT:      -6.2      2.041      3.307
REMARK  3 active torsions:
REMARK  status: ('A' for Active; 'I' for Inactive)
REMARK    1  A    between atoms: C3_3  and  O1_4 
REMARK    2  A    between atoms: O1_4  and  C4_5 
REMARK    3  A    between atoms: C13_14  and  C14_15 
ROOT
HETATM    1  C1  LIG X 999      46.649 130.479  13.786  1.00  0.00     0.014 C 
HETATM    2  C2  LIG X 999      46.417 130.005  14.869  1.00  0.00    -0.091 C 
HETATM    3  C3  LIG X 999      46.134 129.430  16.185  1.00  0.00     0.268 C 
ENDROOT
BRANCH   3   4
HETATM    4  O1  LIG X 999      46.154 130.467  17.161  1.00  0.00    -0.339 OA
BRANCH   4   5
HETATM    5  C4  LIG X 999      45.015 131.012  17.781  1.00  0.00     0.084 A 
HETATM    6  C5  LIG X 999      43.933 131.485  17.018  1.00  0.00     0.039 A 
HETATM    7  C6  LIG X 999      42.823 132.053  17.633  1.00  0.00     0.015 A 
HETATM    8  C7  LIG X 999      42.757 132.151  19.025  1.00  0.00    -0.025 A 
HETATM    9  C8  LIG X 999      41.622 132.718  19.629  1.00  0.00     0.012 A 
HETATM   10  C12 LIG X 999      43.827 131.668  19.826  1.00  0.00    -0.010 A 
HETATM   11  C9  LIG X 999      41.529 132.801  21.017  1.00  0.00     0.001 A 
HETATM   12  C10 LIG X 999      42.560 132.310  21.815  1.00  0.00     0.001 A 
HETATM   13  C11 LIG X 999      43.696 131.744  21.232  1.00  0.00     0.013 A 
HETATM   14  C13 LIG X 999      44.972 131.103  19.194  1.00  0.00     0.046 A 
BRANCH  14  15
HETATM   15  C14 LIG X 999      46.139 130.638  19.989  1.00  0.00     0.273 C 
HETATM   16  O2  LIG X 999      46.187 129.467  20.453  1.00  0.00    -0.301 OA
ENDBRANCH  14  15
ENDBRANCH   4   5
ENDBRANCH   3   4
TORSDOF 3
