REMARK VINA RESULT:      -7.2      2.308      3.248
REMARK  1 active torsions:
REMARK  status: ('A' for Active; 'I' for Inactive)
REMARK    1  A    between atoms: C11_13  and  N2_14 
ROOT
HETATM    1  N2  LIG X 999      46.183 130.415  16.819  1.00  0.00    -0.053 NA
HETATM    2  N3  LIG X 999      46.252 131.226  15.895  1.00  0.00    -0.160 NA
HETATM    3  N4  LIG X 999      46.328 132.028  14.966  1.00  0.00     0.068 N 
ENDROOT
BRANCH   1   4
HETATM    4  C11 LIG X 999      45.518 130.705  18.055  1.00  0.00     0.175 A 
HETATM    5  C10 LIG X 999      44.259 131.290  18.230  1.00  0.00     0.026 A 
HETATM    6  C5  LIG X 999      44.090 131.346  19.576  1.00  0.00     0.017 A 
HETATM    7  C9  LIG X 999      43.256 131.773  17.381  1.00  0.00     0.016 A 
HETATM    8  C4  LIG X 999      45.178 130.827  20.190  1.00  0.00     0.046 A 
HETATM    9  C6  LIG X 999      42.979 131.854  20.210  1.00  0.00     0.005 A 
HETATM   10  C3  LIG X 999      45.256 130.767  21.661  1.00  0.00     0.033 A 
HETATM   11  N5  LIG X 999      46.075 130.424  19.266  1.00  0.00    -0.337 N 
HETATM   12  C2  LIG X 999      44.212 131.242  22.379  1.00  0.00     0.034 A 
HETATM   13  C1  LIG X 999      43.001 131.819  21.696  1.00  0.00     0.059 A 
HETATM   14  N1  LIG X 999      42.001 132.273  22.383  1.00  0.00    -0.300 NA
HETATM   15  H1  LIG X 999      41.999 132.257  23.428  1.00  0.00     0.187 HD
HETATM   16  H7  LIG X 999      47.006 129.987  19.444  1.00  0.00     0.167 HD
HETATM   17  C7  LIG X 999      41.944 132.351  19.391  1.00  0.00     0.015 A 
HETATM   18  C8  LIG X 999      42.088 132.307  17.978  1.00  0.00     0.002 A 
ENDBRANCH   1   4
TORSDOF 1
