REMARK VINA RESULT:      -5.5      0.000      0.000
REMARK  4 active torsions:
REMARK  status: ('A' for Active; 'I' for Inactive)
REMARK    1  A    between atoms: C3_3  and  O1_4 
REMARK    2  A    between atoms: O1_4  and  C4_5 
REMARK    3  A    between atoms: C9_12  and  N2_13 
REMARK    4  A    between atoms: C11_17  and  C12_18 
ROOT
HETATM    1  C1  LIG X 999      45.449 130.885  20.837  1.00  0.00     0.014 C 
HETATM    2  C2  LIG X 999      44.600 130.603  21.645  1.00  0.00    -0.091 C 
HETATM    3  C3  LIG X 999      43.568 130.257  22.629  1.00  0.00     0.268 C 
ENDROOT
BRANCH   3   4
HETATM    4  O1  LIG X 999      44.063 129.287  23.550  1.00  0.00    -0.339 OA
BRANCH   4   5
HETATM    5  C4  LIG X 999      44.149 127.901  23.320  1.00  0.00     0.085 A 
HETATM    6  C5  LIG X 999      45.375 127.302  22.890  1.00  0.00     0.052 A 
HETATM    7  C6  LIG X 999      45.445 125.917  22.663  1.00  0.00     0.008 A 
HETATM    8  C7  LIG X 999      44.300 125.189  22.870  1.00  0.00     0.018 A 
HETATM    9  C15 LIG X 999      46.642 125.151  22.220  1.00  0.00     0.059 A 
HETATM   10  C8  LIG X 999      44.186 123.849  22.704  1.00  0.00     0.046 A 
HETATM   11  C10 LIG X 999      43.111 125.706  23.276  1.00  0.00     0.042 A 
HETATM   12  N1  LIG X 999      42.929 123.458  22.997  1.00  0.00    -0.337 N 
HETATM   13  C13 LIG X 999      45.336 123.038  22.269  1.00  0.00     0.033 A 
HETATM   14  H5  LIG X 999      42.553 122.485  22.961  1.00  0.00     0.167 HD
HETATM   15  C9  LIG X 999      42.264 124.594  23.350  1.00  0.00     0.176 A 
HETATM   16  C14 LIG X 999      46.512 123.665  22.038  1.00  0.00     0.034 A 
HETATM   17  C11 LIG X 999      42.983 127.089  23.520  1.00  0.00     0.050 A 
HETATM   18  N5  LIG X 999      47.767 125.752  22.000  1.00  0.00    -0.300 NA
HETATM   19  H9  LIG X 999      48.618 125.231  21.691  1.00  0.00     0.187 HD
BRANCH  15  20
HETATM   20  N2  LIG X 999      40.891 124.618  23.743  1.00  0.00    -0.053 NA
HETATM   21  N3  LIG X 999      40.117 123.714  23.421  1.00  0.00    -0.160 NA
HETATM   22  N4  LIG X 999      39.345 122.813  23.102  1.00  0.00     0.068 N 
ENDBRANCH  15  20
BRANCH  17  23
HETATM   23  C12 LIG X 999      41.692 127.670  23.963  1.00  0.00     0.273 C 
HETATM   24  O2  LIG X 999      40.789 127.972  23.141  1.00  0.00    -0.301 OA
ENDBRANCH  17  23
ENDBRANCH   4   5
ENDBRANCH   3   4
TORSDOF 4
