REMARK VINA RESULT:      -5.3      2.408      7.118
REMARK  4 active torsions:
REMARK  status: ('A' for Active; 'I' for Inactive)
REMARK    1  A    between atoms: C1_1  and  C2_6 
REMARK    2  A    between atoms: N1_2  and  N2_3 
REMARK    3  A    between atoms: C2_6  and  C3_8 
REMARK    4  A    between atoms: C11_16  and  N4_17 
ROOT
HETATM    1  N4  LIG X 999      45.197 128.935  21.415  1.00  0.00    -0.105 NA
HETATM    2  N5  LIG X 999      45.092 128.386  22.514  1.00  0.00    -0.167 NA
HETATM    3  N6  LIG X 999      44.986 127.838  23.610  1.00  0.00     0.068 N 
ENDROOT
BRANCH   1   4
HETATM    4  C11 LIG X 999      45.502 130.359  21.299  1.00  0.00     0.179 C 
HETATM    5  C10 LIG X 999      44.243 131.182  21.509  1.00  0.00    -0.024 A 
HETATM    6  C5  LIG X 999      43.499 131.695  20.416  1.00  0.00    -0.049 A 
HETATM    7  C9  LIG X 999      43.761 131.370  22.816  1.00  0.00     0.010 A 
HETATM    8  C4  LIG X 999      44.026 131.636  19.002  1.00  0.00     0.051 C 
HETATM    9  C6  LIG X 999      42.307 132.395  20.661  1.00  0.00     0.007 A 
HETATM   10  C3  LIG X 999      45.087 130.538  18.812  1.00  0.00     0.068 C 
HETATM   11  C12 LIG X 999      46.139 130.627  19.928  1.00  0.00     0.048 C 
HETATM   12  C7  LIG X 999      41.839 132.565  21.965  1.00  0.00     0.001 A 
HETATM   13  C8  LIG X 999      42.565 132.056  23.041  1.00  0.00     0.001 A 
BRANCH  10  14
HETATM   14  C2  LIG X 999      45.753 130.637  17.456  1.00  0.00     0.172 C 
HETATM   15  O1  LIG X 999      46.718 129.876  17.173  1.00  0.00    -0.291 OA
BRANCH  14  16
HETATM   16  C1  LIG X 999      45.261 131.557  16.416  1.00  0.00     0.190 C 
HETATM   17  N1  LIG X 999      44.553 131.123  15.421  1.00  0.00    -0.165 NA
BRANCH  17  18
HETATM   18  N2  LIG X 999      44.086 131.984  14.417  1.00  0.00    -0.177 N 
HETATM   19  H2  LIG X 999      44.591 132.871  14.190  1.00  0.00     0.214 HD
HETATM   20  N3  LIG X 999      43.044 131.678  13.762  1.00  0.00    -0.031 N 
ENDBRANCH  17  18
ENDBRANCH  14  16
ENDBRANCH  10  14
ENDBRANCH   1   4
TORSDOF 4
