REMARK VINA RESULT:      -7.8      0.000      0.000
REMARK  1 active torsions:
REMARK  status: ('A' for Active; 'I' for Inactive)
REMARK    1  A    between atoms: N1_1  and  C1_2 
ROOT
HETATM    1  C1  LIG X 999      44.508 131.289  16.298  1.00  0.00     0.026 A 
HETATM    2  C2  LIG X 999      45.166 130.300  17.040  1.00  0.00     0.030 A 
HETATM    3  C3  LIG X 999      46.287 129.651  16.518  1.00  0.00     0.014 A 
HETATM    4  C4  LIG X 999      46.768 129.986  15.244  1.00  0.00    -0.026 A 
HETATM    5  C5  LIG X 999      47.894 129.342  14.710  1.00  0.00     0.012 A 
HETATM    6  C6  LIG X 999      48.361 129.687  13.438  1.00  0.00     0.001 A 
HETATM    7  C7  LIG X 999      47.711 130.673  12.692  1.00  0.00     0.001 A 
HETATM    8  C8  LIG X 999      46.587 131.323  13.213  1.00  0.00     0.012 A 
HETATM    9  C9  LIG X 999      46.108 130.987  14.489  1.00  0.00    -0.024 A 
HETATM   10  C10 LIG X 999      44.981 131.632  15.022  1.00  0.00     0.041 A 
ENDROOT
BRANCH   1  11
HETATM   11  N1  LIG X 999      43.360 131.948  16.838  1.00  0.00    -0.399 N 
HETATM   12  H1  LIG X 999      43.464 132.716  17.538  1.00  0.00     0.156 HD
HETATM   13  H2  LIG X 999      42.397 131.675  16.541  1.00  0.00     0.156 HD
ENDBRANCH   1  11
TORSDOF 1
