REMARK VINA RESULT:      -7.1      2.653      5.488
REMARK  1 active torsions:
REMARK  status: ('A' for Active; 'I' for Inactive)
REMARK    1  A    between atoms: C11_13  and  N2_14 
ROOT
HETATM    1  N2  LIG X 999      44.988 131.068  22.001  1.00  0.00    -0.053 NA
HETATM    2  N3  LIG X 999      44.225 130.358  22.658  1.00  0.00    -0.160 NA
HETATM    3  N4  LIG X 999      43.463 129.651  23.315  1.00  0.00     0.068 N 
ENDROOT
BRANCH   1   4
HETATM    4  C11 LIG X 999      44.963 131.053  20.572  1.00  0.00     0.175 A 
HETATM    5  C10 LIG X 999      43.919 131.522  19.788  1.00  0.00     0.026 A 
HETATM    6  C5  LIG X 999      44.318 131.315  18.512  1.00  0.00     0.017 A 
HETATM    7  C9  LIG X 999      42.678 132.103  20.057  1.00  0.00     0.016 A 
HETATM    8  C4  LIG X 999      45.546 130.745  18.512  1.00  0.00     0.046 A 
HETATM    9  C6  LIG X 999      43.579 131.638  17.397  1.00  0.00     0.005 A 
HETATM   10  C3  LIG X 999      46.216 130.411  17.243  1.00  0.00     0.033 A 
HETATM   11  N5  LIG X 999      45.969 130.573  19.784  1.00  0.00    -0.337 N 
HETATM   12  C2  LIG X 999      45.574 130.688  16.084  1.00  0.00     0.034 A 
HETATM   13  C1  LIG X 999      44.207 131.321  16.088  1.00  0.00     0.059 A 
HETATM   14  N1  LIG X 999      43.592 131.586  14.979  1.00  0.00    -0.300 NA
HETATM   15  H1  LIG X 999      44.018 131.372  14.050  1.00  0.00     0.187 HD
HETATM   16  H7  LIG X 999      46.877 130.157  20.093  1.00  0.00     0.167 HD
HETATM   17  C7  LIG X 999      42.315 132.226  17.616  1.00  0.00     0.015 A 
HETATM   18  C8  LIG X 999      41.869 132.459  18.948  1.00  0.00     0.002 A 
ENDBRANCH   1   4
TORSDOF 1
