REMARK VINA RESULT:      -7.3      0.000      0.000
REMARK  4 active torsions:
REMARK  status: ('A' for Active; 'I' for Inactive)
REMARK    1  A    between atoms: C1_2  and  C2_4 
REMARK    2  A    between atoms: C8_10  and  C9_11 
REMARK       I    between atoms: C9_11  and  N1_13 
REMARK    3  A    between atoms: N1_13  and  S1_14 
REMARK    4  A    between atoms: S1_14  and  C10_17 
ROOT
HETATM    1  C9  LIG X 999      44.246 129.281  23.724  1.00  0.00     0.259 C 
HETATM    2  O3  LIG X 999      43.951 130.112  24.625  1.00  0.00    -0.270 OA
HETATM    3  N1  LIG X 999      44.210 129.672  22.351  1.00  0.00    -0.122 NA
ENDROOT
BRANCH   3   4
HETATM    4  S1  LIG X 999      44.030 131.324  21.869  1.00  0.00     0.286 S 
HETATM    5  O4  LIG X 999      42.731 131.859  22.404  1.00  0.00    -0.198 OA
HETATM    6  O5  LIG X 999      45.154 132.146  22.434  1.00  0.00    -0.198 OA
BRANCH   4   7
HETATM    7  C10 LIG X 999      44.020 131.406  20.110  1.00  0.00     0.082 A 
HETATM    8  C11 LIG X 999      42.879 131.867  19.441  1.00  0.00     0.026 A 
HETATM    9  C12 LIG X 999      42.837 131.883  18.045  1.00  0.00     0.014 A 
HETATM   10  C13 LIG X 999      43.937 131.430  17.301  1.00  0.00    -0.026 A 
HETATM   11  C14 LIG X 999      43.903 131.435  15.898  1.00  0.00     0.012 A 
HETATM   12  C18 LIG X 999      45.090 130.959  17.973  1.00  0.00    -0.025 A 
HETATM   13  C15 LIG X 999      45.003 130.975  15.168  1.00  0.00     0.001 A 
HETATM   14  C16 LIG X 999      46.141 130.508  15.832  1.00  0.00     0.001 A 
HETATM   15  C17 LIG X 999      46.188 130.498  17.229  1.00  0.00     0.012 A 
HETATM   16  C19 LIG X 999      45.123 130.950  19.376  1.00  0.00     0.037 A 
ENDBRANCH   4   7
ENDBRANCH   3   4
BRANCH   1  17
HETATM   17  C8  LIG X 999      44.707 127.885  24.078  1.00  0.00     0.099 C 
HETATM   18  C2  LIG X 999      43.562 126.835  24.215  1.00  0.00     0.104 C 
HETATM   19  C3  LIG X 999      43.971 125.757  23.178  1.00  0.00     0.001 C 
HETATM   20  C4  LIG X 999      45.191 124.992  23.727  1.00  0.00     0.006 C 
HETATM   21  C7  LIG X 999      44.611 126.576  22.079  1.00  0.00     0.011 C 
HETATM   22  C5  LIG X 999      46.326 126.025  23.603  1.00  0.00     0.006 C 
HETATM   23  C6  LIG X 999      45.613 127.248  22.992  1.00  0.00    -0.000 C 
BRANCH  18  24
HETATM   24  C1  LIG X 999      42.161 127.364  23.990  1.00  0.00     0.178 C 
HETATM   25  O1  LIG X 999      41.734 128.371  24.616  1.00  0.00    -0.648 OA
HETATM   26  O2  LIG X 999      41.314 126.700  23.112  1.00  0.00    -0.648 OA
ENDBRANCH  18  24
ENDBRANCH   1  17
TORSDOF 4
