REMARK VINA RESULT:      -7.5      2.377      4.441
REMARK  6 active torsions:
REMARK  status: ('A' for Active; 'I' for Inactive)
REMARK    1  A    between atoms: C4_5  and  C5_6 
REMARK       I    between atoms: C5_6  and  N2_8 
REMARK    2  A    between atoms: N2_8  and  C6_9 
REMARK    3  A    between atoms: C6_9  and  O2_10 
REMARK    4  A    between atoms: O2_10  and  C7_11 
REMARK    5  A    between atoms: C7_11  and  O4_13 
REMARK    6  A    between atoms: O4_13  and  C8_14 
ROOT
HETATM    1  C7  LIG X 999      42.920 131.367  22.812  1.00  0.00     0.413 C 
HETATM    2  O3  LIG X 999      43.093 131.986  23.897  1.00  0.00    -0.229 OA
ENDROOT
BRANCH   1   3
HETATM    3  O2  LIG X 999      42.641 129.998  22.813  1.00  0.00    -0.276 OA
BRANCH   3   4
HETATM    4  C6  LIG X 999      42.538 129.210  23.998  1.00  0.00     0.334 C 
BRANCH   4   5
HETATM    5  N2  LIG X 999      42.234 127.825  23.654  1.00  0.00    -0.224 NA
HETATM    6  C5  LIG X 999      40.950 127.215  23.822  1.00  0.00     0.292 C 
HETATM    7  O1  LIG X 999      39.957 127.903  24.180  1.00  0.00    -0.264 OA
BRANCH   6   8
HETATM    8  C4  LIG X 999      40.786 125.779  23.556  1.00  0.00     0.119 A 
HETATM    9  C3  LIG X 999      41.614 124.992  22.772  1.00  0.00     0.055 A 
HETATM   10  C2  LIG X 999      41.042 123.734  22.814  1.00  0.00     0.112 A 
HETATM   11  N1  LIG X 999      39.946 123.787  23.595  1.00  0.00    -0.307 N 
HETATM   12  C1  LIG X 999      39.013 122.694  23.836  1.00  0.00     0.177 C 
HETATM   13  N3  LIG X 999      39.780 125.023  24.034  1.00  0.00    -0.294 N 
HETATM   14  H15 LIG X 999      38.989 125.342  24.637  1.00  0.00     0.187 HD
ENDBRANCH   6   8
ENDBRANCH   4   5
ENDBRANCH   3   4
ENDBRANCH   1   3
BRANCH   1  15
HETATM   15  O4  LIG X 999      43.047 132.025  21.584  1.00  0.00    -0.256 OA
BRANCH  15  16
HETATM   16  C8  LIG X 999      43.844 131.597  20.511  1.00  0.00     0.082 A 
HETATM   17  C9  LIG X 999      45.091 130.976  20.704  1.00  0.00     0.038 A 
HETATM   18  C10 LIG X 999      45.860 130.572  19.608  1.00  0.00     0.015 A 
HETATM   19  C11 LIG X 999      45.396 130.792  18.302  1.00  0.00    -0.026 A 
HETATM   20  C12 LIG X 999      46.158 130.388  17.194  1.00  0.00     0.012 A 
HETATM   21  C16 LIG X 999      44.151 131.432  18.101  1.00  0.00    -0.023 A 
HETATM   22  C13 LIG X 999      45.687 130.619  15.899  1.00  0.00     0.001 A 
HETATM   23  C14 LIG X 999      44.458 131.251  15.699  1.00  0.00     0.001 A 
HETATM   24  C15 LIG X 999      43.690 131.659  16.794  1.00  0.00     0.012 A 
HETATM   25  C17 LIG X 999      43.388 131.835  19.208  1.00  0.00     0.049 A 
ENDBRANCH  15  16
ENDBRANCH   1  15
TORSDOF 6
