REMARK VINA RESULT:      -5.3      1.757      2.901
REMARK  5 active torsions:
REMARK  status: ('A' for Active; 'I' for Inactive)
REMARK    1  A    between atoms: O1_2  and  C1_3 
REMARK    2  A    between atoms: C1_3  and  O4_19 
REMARK       I    between atoms: N1_4  and  C2_5 
REMARK    3  A    between atoms: C2_5  and  C3_7 
REMARK    4  A    between atoms: C4_8  and  O3_9 
REMARK    5  A    between atoms: O4_19  and  C13_20 
ROOT
HETATM    1  C3  LIG X 999      43.541 131.915  19.803  1.00  0.00     0.068 A 
HETATM    2  C4  LIG X 999      44.855 131.546  20.155  1.00  0.00     0.082 A 
HETATM    3  C5  LIG X 999      45.744 131.089  19.170  1.00  0.00     0.049 A 
HETATM    4  C6  LIG X 999      45.341 131.017  17.830  1.00  0.00    -0.023 A 
HETATM    5  C7  LIG X 999      46.229 130.562  16.840  1.00  0.00     0.012 A 
HETATM    6  C8  LIG X 999      45.818 130.499  15.507  1.00  0.00     0.001 A 
HETATM    7  C9  LIG X 999      44.524 130.887  15.149  1.00  0.00     0.001 A 
HETATM    8  C10 LIG X 999      43.632 131.342  16.125  1.00  0.00     0.012 A 
HETATM    9  C11 LIG X 999      44.032 131.410  17.469  1.00  0.00    -0.025 A 
HETATM   10  C12 LIG X 999      43.144 131.861  18.456  1.00  0.00     0.032 A 
ENDROOT
BRANCH   1  11
HETATM   11  C2  LIG X 999      42.578 132.394  20.823  1.00  0.00     0.283 C 
HETATM   12  N1  LIG X 999      42.652 131.989  22.198  1.00  0.00    -0.162 NA
HETATM   13  C1  LIG X 999      43.009 130.814  22.626  1.00  0.00     0.289 C 
HETATM   14  O2  LIG X 999      41.684 133.213  20.483  1.00  0.00    -0.265 OA
BRANCH  13  15
HETATM   15  O1  LIG X 999      43.284 129.785  21.727  1.00  0.00    -0.325 OA
HETATM   16  H1  LIG X 999      43.950 129.060  21.963  1.00  0.00     0.221 HD
ENDBRANCH  13  15
BRANCH  13  17
HETATM   17  O4  LIG X 999      43.097 130.547  24.000  1.00  0.00    -0.294 OA
BRANCH  17  18
HETATM   18  C13 LIG X 999      42.792 129.295  24.625  1.00  0.00     0.224 C 
HETATM   19 CL1  LIG X 999      44.073 128.086  24.318  1.00  0.00    -0.095 Cl
HETATM   20  C14 LIG X 999      41.426 128.771  24.186  1.00  0.00     0.057 C 
ENDBRANCH  17  18
ENDBRANCH  13  17
ENDBRANCH   1  11
BRANCH   2  21
HETATM   21  O3  LIG X 999      45.286 131.650  21.479  1.00  0.00    -0.360 OA
HETATM   22  H2  LIG X 999      45.889 130.953  21.899  1.00  0.00     0.217 HD
ENDBRANCH   2  21
TORSDOF 5
