REMARK VINA RESULT:      -6.1      2.331      7.065
REMARK  6 active torsions:
REMARK  status: ('A' for Active; 'I' for Inactive)
REMARK    1  A    between atoms: O1_2  and  C2_3 
REMARK    2  A    between atoms: C2_3  and  C3_5 
REMARK    3  A    between atoms: C6_9  and  N1_10 
REMARK    4  A    between atoms: N1_10  and  C7_11 
REMARK    5  A    between atoms: C7_11  and  N2_13 
REMARK    6  A    between atoms: N2_13  and  C8_14 
ROOT
HETATM    1  C7  LIG X 999      43.675 131.337  23.088  1.00  0.00     0.278 C 
HETATM    2  S2  LIG X 999      44.058 131.997  24.543  1.00  0.00    -0.033 SA
ENDROOT
BRANCH   1   3
HETATM    3  N1  LIG X 999      44.528 131.599  21.958  1.00  0.00     0.012 N 
HETATM    4  H6  LIG X 999      45.173 130.783  21.839  1.00  0.00     0.293 HD
HETATM    5  H7  LIG X 999      45.116 132.447  22.122  1.00  0.00     0.293 HD
BRANCH   3   6
HETATM    6  C6  LIG X 999      43.742 131.793  20.765  1.00  0.00     0.164 A 
HETATM    7  C3  LIG X 999      44.153 131.438  19.470  1.00  0.00     0.114 A 
HETATM    8  S1  LIG X 999      42.942 131.911  18.400  1.00  0.00    -0.094 SA
HETATM    9  C4  LIG X 999      41.897 132.558  19.544  1.00  0.00     0.053 A 
HETATM   10  C5  LIG X 999      42.483 132.420  20.793  1.00  0.00     0.046 A 
BRANCH   7  11
HETATM   11  C2  LIG X 999      45.411 130.794  19.050  1.00  0.00     0.302 C 
HETATM   12  O2  LIG X 999      46.067 130.115  19.886  1.00  0.00    -0.259 OA
BRANCH  11  13
HETATM   13  O1  LIG X 999      45.879 130.930  17.741  1.00  0.00    -0.322 OA
HETATM   14  C1  LIG X 999      45.888 129.854  16.811  1.00  0.00     0.213 C 
ENDBRANCH  11  13
ENDBRANCH   7  11
ENDBRANCH   3   6
ENDBRANCH   1   3
BRANCH   1  15
HETATM   15  N2  LIG X 999      42.745 130.242  23.041  1.00  0.00    -0.327 N 
HETATM   16  H8  LIG X 999      41.738 130.464  22.879  1.00  0.00     0.168 HD
BRANCH  15  17
HETATM   17  C8  LIG X 999      43.117 128.870  23.258  1.00  0.00     0.035 A 
HETATM   18  C9  LIG X 999      42.259 127.977  23.925  1.00  0.00     0.030 A 
HETATM   19  C10 LIG X 999      42.624 126.640  24.104  1.00  0.00     0.014 A 
HETATM   20  C11 LIG X 999      43.848 126.171  23.607  1.00  0.00    -0.026 A 
HETATM   21  C12 LIG X 999      44.224 124.830  23.779  1.00  0.00     0.012 A 
HETATM   22  C16 LIG X 999      44.710 127.057  22.916  1.00  0.00    -0.024 A 
HETATM   23  C13 LIG X 999      45.445 124.373  23.273  1.00  0.00     0.001 A 
HETATM   24  C14 LIG X 999      46.294 125.248  22.592  1.00  0.00     0.001 A 
HETATM   25  C15 LIG X 999      45.931 126.585  22.412  1.00  0.00     0.012 A 
HETATM   26  C17 LIG X 999      44.333 128.397  22.742  1.00  0.00     0.041 A 
ENDBRANCH  15  17
ENDBRANCH   1  15
TORSDOF 6
