REMARK VINA RESULT:      -5.1      8.673     10.254
REMARK  1 active torsions:
REMARK  status: ('A' for Active; 'I' for Inactive)
REMARK    1  A    between atoms: C11_13  and  N2_14 
ROOT
HETATM    1  N2  LIG X 999      50.278 132.839  24.566  1.00  0.00    -0.053 NA
HETATM    2  N3  LIG X 999      51.035 131.875  24.462  1.00  0.00    -0.160 NA
HETATM    3  N4  LIG X 999      51.785 130.905  24.366  1.00  0.00     0.068 N 
ENDROOT
BRANCH   1   4
HETATM    4  C11 LIG X 999      50.530 134.095  23.924  1.00  0.00     0.175 A 
HETATM    5  C10 LIG X 999      49.757 134.721  22.940  1.00  0.00     0.026 A 
HETATM    6  C5  LIG X 999      50.418 135.875  22.667  1.00  0.00     0.017 A 
HETATM    7  C9  LIG X 999      48.571 134.420  22.260  1.00  0.00     0.016 A 
HETATM    8  C4  LIG X 999      51.528 135.955  23.437  1.00  0.00     0.046 A 
HETATM    9  C6  LIG X 999      50.013 136.816  21.747  1.00  0.00     0.005 A 
HETATM   10  C3  LIG X 999      52.431 137.115  23.339  1.00  0.00     0.033 A 
HETATM   11  N5  LIG X 999      51.616 134.861  24.223  1.00  0.00    -0.337 N 
HETATM   12  C2  LIG X 999      52.122 138.098  22.462  1.00  0.00     0.034 A 
HETATM   13  C1  LIG X 999      50.887 138.011  21.606  1.00  0.00     0.059 A 
HETATM   14  N1  LIG X 999      50.590 138.951  20.767  1.00  0.00    -0.300 NA
HETATM   15  H1  LIG X 999      51.192 139.798  20.653  1.00  0.00     0.187 HD
HETATM   16  H7  LIG X 999      52.365 134.647  24.918  1.00  0.00     0.167 HD
HETATM   17  C7  LIG X 999      48.822 136.551  21.040  1.00  0.00     0.015 A 
HETATM   18  C8  LIG X 999      48.105 135.352  21.301  1.00  0.00     0.002 A 
ENDBRANCH   1   4
TORSDOF 1
