REMARK VINA RESULT:      -6.1      3.239      5.095
REMARK  1 active torsions:
REMARK  status: ('A' for Active; 'I' for Inactive)
REMARK    1  A    between atoms: C2_5  and  C3_6 
ROOT
HETATM    1  C3  LIG X 999      44.383 131.305  18.004  1.00  0.00     0.028 A 
HETATM    2  C4  LIG X 999      45.323 130.758  18.892  1.00  0.00     0.017 A 
HETATM    3  C5  LIG X 999      46.418 130.036  18.419  1.00  0.00     0.002 A 
HETATM    4  C6  LIG X 999      46.600 129.854  17.049  1.00  0.00     0.012 A 
HETATM    5  C7  LIG X 999      45.699 130.418  16.135  1.00  0.00    -0.025 A 
HETATM    6  C8  LIG X 999      45.909 130.256  14.756  1.00  0.00     0.012 A 
HETATM    7  C9  LIG X 999      45.042 130.850  13.839  1.00  0.00     0.001 A 
HETATM    8  C10 LIG X 999      43.969 131.620  14.287  1.00  0.00     0.001 A 
HETATM    9  C11 LIG X 999      43.743 131.787  15.655  1.00  0.00     0.013 A 
HETATM   10  C12 LIG X 999      44.585 131.168  16.604  1.00  0.00    -0.011 A 
ENDROOT
BRANCH   1  11
HETATM   11  C2  LIG X 999      43.208 131.985  18.589  1.00  0.00     0.177 A 
HETATM   12  O1  LIG X 999      43.050 132.210  19.877  1.00  0.00    -0.258 OA
HETATM   13  C1  LIG X 999      41.871 132.783  19.974  1.00  0.00     0.260 A 
HETATM   14  N1  LIG X 999      41.338 133.171  21.086  1.00  0.00    -0.261 NA
HETATM   15  N3  LIG X 999      41.284 132.914  18.774  1.00  0.00    -0.262 N 
HETATM   16  H1  LIG X 999      41.839 133.042  21.993  1.00  0.00     0.190 HD
HETATM   17  N2  LIG X 999      42.128 132.403  17.896  1.00  0.00    -0.276 N 
HETATM   18  H10 LIG X 999      40.346 133.317  18.554  1.00  0.00     0.190 HD
HETATM   19  H9  LIG X 999      41.947 132.316  16.871  1.00  0.00     0.189 HD
ENDBRANCH   1  11
TORSDOF 1
