REMARK VINA RESULT:      -6.3      7.624      8.874
REMARK  1 active torsions:
REMARK  status: ('A' for Active; 'I' for Inactive)
REMARK    1  A    between atoms: C2_5  and  C3_6 
ROOT
HETATM    1  C3  LIG X 999      49.414 136.272  21.365  1.00  0.00     0.030 A 
HETATM    2  C4  LIG X 999      48.504 135.232  21.643  1.00  0.00     0.017 A 
HETATM    3  C5  LIG X 999      48.722 134.331  22.679  1.00  0.00     0.002 A 
HETATM    4  C6  LIG X 999      49.856 134.437  23.473  1.00  0.00     0.012 A 
HETATM    5  C7  LIG X 999      50.789 135.452  23.238  1.00  0.00    -0.025 A 
HETATM    6  C8  LIG X 999      51.927 135.534  24.057  1.00  0.00     0.012 A 
HETATM    7  C9  LIG X 999      52.874 136.533  23.849  1.00  0.00     0.001 A 
HETATM    8  C10 LIG X 999      52.698 137.457  22.823  1.00  0.00     0.001 A 
HETATM    9  C11 LIG X 999      51.572 137.392  21.997  1.00  0.00     0.013 A 
HETATM   10  C12 LIG X 999      50.589 136.389  22.180  1.00  0.00    -0.011 A 
ENDROOT
BRANCH   1  11
HETATM   11  C2  LIG X 999      49.068 137.177  20.224  1.00  0.00     0.203 A 
HETATM   12  O1  LIG X 999      49.697 137.244  19.069  1.00  0.00    -0.255 OA
HETATM   13  C1  LIG X 999      49.059 138.159  18.385  1.00  0.00     0.262 A 
HETATM   14  N1  LIG X 999      49.370 138.526  17.185  1.00  0.00    -0.260 NA
HETATM   15  N3  LIG X 999      48.040 138.672  19.086  1.00  0.00    -0.238 N 
HETATM   16  H1  LIG X 999      50.178 138.091  16.686  1.00  0.00     0.190 HD
HETATM   17  N2  LIG X 999      48.036 138.056  20.255  1.00  0.00    -0.145 NA
HETATM   18  H9  LIG X 999      47.366 139.413  18.791  1.00  0.00     0.193 HD
ENDBRANCH   1  11
TORSDOF 1
