MODEL 1
REMARK VINA RESULT:      -6.7      0.000      0.000
REMARK  4 active torsions:
REMARK  status: ('A' for Active; 'I' for Inactive)
REMARK    1  A    between atoms: C1_1  and  C2_6 
REMARK    2  A    between atoms: N1_2  and  N2_3 
REMARK    3  A    between atoms: C2_6  and  C3_8 
REMARK    4  A    between atoms: C11_16  and  N4_17 
ROOT
HETATM    1  N4  LIG X 999      45.452 129.047  20.938  1.00  0.00    -0.105 NA
HETATM    2  N5  LIG X 999      45.233 128.465  22.001  1.00  0.00    -0.167 NA
HETATM    3  N6  LIG X 999      45.017 127.884  23.063  1.00  0.00     0.068 N 
ENDROOT
BRANCH   1   4
HETATM    4  C11 LIG X 999      45.673 130.490  20.890  1.00  0.00     0.179 C 
HETATM    5  C10 LIG X 999      44.382 131.228  21.195  1.00  0.00    -0.024 A 
HETATM    6  C5  LIG X 999      43.562 131.749  20.163  1.00  0.00    -0.049 A 
HETATM    7  C9  LIG X 999      43.956 131.333  22.530  1.00  0.00     0.010 A 
HETATM    8  C4  LIG X 999      44.015 131.774  18.721  1.00  0.00     0.051 C 
HETATM    9  C6  LIG X 999      42.349 132.375  20.495  1.00  0.00     0.007 A 
HETATM   10  C3  LIG X 999      45.139 130.767  18.430  1.00  0.00     0.068 C 
HETATM   11  C12 LIG X 999      46.232 130.871  19.510  1.00  0.00     0.048 C 
HETATM   12  C7  LIG X 999      41.938 132.465  21.826  1.00  0.00     0.001 A 
HETATM   13  C8  LIG X 999      42.741 131.948  22.842  1.00  0.00     0.001 A 
BRANCH  10  14
HETATM   14  C2  LIG X 999      45.704 131.006  17.047  1.00  0.00     0.172 C 
HETATM   15  O1  LIG X 999      45.527 132.120  16.481  1.00  0.00    -0.291 OA
BRANCH  14  16
HETATM   16  C1  LIG X 999      46.403 129.944  16.303  1.00  0.00     0.190 C 
HETATM   17  N1  LIG X 999      46.876 130.160  15.116  1.00  0.00    -0.165 NA
BRANCH  17  18
HETATM   18  N2  LIG X 999      47.549 129.162  14.397  1.00  0.00    -0.177 N 
HETATM   19  H2  LIG X 999      47.398 128.150  14.610  1.00  0.00     0.214 HD
HETATM   20  N3  LIG X 999      48.357 129.489  13.474  1.00  0.00    -0.031 N 
ENDBRANCH  17  18
ENDBRANCH  14  16
ENDBRANCH  10  14
ENDBRANCH   1   4
TORSDOF 4
ENDMDL
MODEL 2
REMARK VINA RESULT:      -6.5      3.142      6.691
REMARK  4 active torsions:
REMARK  status: ('A' for Active; 'I' for Inactive)
REMARK    1  A    between atoms: C1_1  and  C2_6 
REMARK    2  A    between atoms: N1_2  and  N2_3 
REMARK    3  A    between atoms: C2_6  and  C3_8 
REMARK    4  A    between atoms: C11_16  and  N4_17 
ROOT
HETATM    1  N4  LIG X 999      43.174 131.853  16.919  1.00  0.00    -0.105 NA
HETATM    2  N5  LIG X 999      42.371 131.991  17.843  1.00  0.00    -0.167 NA
HETATM    3  N6  LIG X 999      41.569 132.126  18.766  1.00  0.00     0.068 N 
ENDROOT
BRANCH   1   4
HETATM    4  C11 LIG X 999      44.579 132.223  17.070  1.00  0.00     0.179 C 
HETATM    5  C10 LIG X 999      45.445 131.374  16.157  1.00  0.00    -0.024 A 
HETATM    6  C5  LIG X 999      46.135 130.232  16.637  1.00  0.00    -0.049 A 
HETATM    7  C9  LIG X 999      45.505 131.687  14.788  1.00  0.00     0.010 A 
HETATM    8  C4  LIG X 999      46.208 129.908  18.112  1.00  0.00     0.051 C 
HETATM    9  C6  LIG X 999      46.878 129.446  15.741  1.00  0.00     0.007 A 
HETATM   10  C3  LIG X 999      45.095 130.584  18.929  1.00  0.00     0.068 C 
HETATM   11  C12 LIG X 999      44.988 132.070  18.543  1.00  0.00     0.048 C 
HETATM   12  C7  LIG X 999      46.921 129.769  14.383  1.00  0.00     0.001 A 
HETATM   13  C8  LIG X 999      46.238 130.888  13.908  1.00  0.00     0.001 A 
BRANCH  10  14
HETATM   14  C2  LIG X 999      45.363 130.414  20.409  1.00  0.00     0.172 C 
HETATM   15  O1  LIG X 999      46.185 129.542  20.801  1.00  0.00    -0.291 OA
BRANCH  14  16
HETATM   16  C1  LIG X 999      44.634 131.197  21.421  1.00  0.00     0.190 C 
HETATM   17  N1  LIG X 999      43.376 130.988  21.649  1.00  0.00    -0.165 NA
BRANCH  17  18
HETATM   18  N2  LIG X 999      42.669 131.720  22.614  1.00  0.00    -0.177 N 
HETATM   19  H2  LIG X 999      41.749 132.160  22.387  1.00  0.00     0.214 HD
HETATM   20  N3  LIG X 999      43.151 131.853  23.780  1.00  0.00    -0.031 N 
ENDBRANCH  17  18
ENDBRANCH  14  16
ENDBRANCH  10  14
ENDBRANCH   1   4
TORSDOF 4
ENDMDL
MODEL 3
REMARK VINA RESULT:      -6.5      1.495      2.073
REMARK  4 active torsions:
REMARK  status: ('A' for Active; 'I' for Inactive)
REMARK    1  A    between atoms: C1_1  and  C2_6 
REMARK    2  A    between atoms: N1_2  and  N2_3 
REMARK    3  A    between atoms: C2_6  and  C3_8 
REMARK    4  A    between atoms: C11_16  and  N4_17 
ROOT
HETATM    1  N4  LIG X 999      45.697 130.049  19.097  1.00  0.00    -0.105 NA
HETATM    2  N5  LIG X 999      45.614 129.696  20.274  1.00  0.00    -0.167 NA
HETATM    3  N6  LIG X 999      45.533 129.343  21.449  1.00  0.00     0.068 N 
ENDROOT
BRANCH   1   4
HETATM    4  C11 LIG X 999      45.480 131.439  18.701  1.00  0.00     0.179 C 
HETATM    5  C10 LIG X 999      44.083 131.883  19.093  1.00  0.00    -0.024 A 
HETATM    6  C5  LIG X 999      43.018 131.897  18.157  1.00  0.00    -0.049 A 
HETATM    7  C9  LIG X 999      43.824 132.219  20.433  1.00  0.00     0.010 A 
HETATM    8  C4  LIG X 999      43.250 131.662  16.682  1.00  0.00     0.051 C 
HETATM    9  C6  LIG X 999      41.730 132.263  18.582  1.00  0.00     0.007 A 
HETATM   10  C3  LIG X 999      44.570 130.928  16.395  1.00  0.00     0.068 C 
HETATM   11  C12 LIG X 999      45.718 131.578  17.190  1.00  0.00     0.048 C 
HETATM   12  C7  LIG X 999      41.490 132.588  19.918  1.00  0.00     0.001 A 
HETATM   13  C8  LIG X 999      42.535 132.569  20.841  1.00  0.00     0.001 A 
BRANCH  10  14
HETATM   14  C2  LIG X 999      44.854 130.935  14.908  1.00  0.00     0.172 C 
HETATM   15  O1  LIG X 999      43.938 131.242  14.097  1.00  0.00    -0.291 OA
BRANCH  14  16
HETATM   16  C1  LIG X 999      46.161 130.525  14.368  1.00  0.00     0.190 C 
HETATM   17  N1  LIG X 999      46.670 129.369  14.658  1.00  0.00    -0.165 NA
BRANCH  17  18
HETATM   18  N2  LIG X 999      47.911 128.960  14.147  1.00  0.00    -0.177 N 
HETATM   19  H2  LIG X 999      48.376 128.092  14.496  1.00  0.00     0.214 HD
HETATM   20  N3  LIG X 999      48.480 129.653  13.249  1.00  0.00    -0.031 N 
ENDBRANCH  17  18
ENDBRANCH  14  16
ENDBRANCH  10  14
ENDBRANCH   1   4
TORSDOF 4
ENDMDL
MODEL 4
REMARK VINA RESULT:      -5.9      3.573      6.379
REMARK  4 active torsions:
REMARK  status: ('A' for Active; 'I' for Inactive)
REMARK    1  A    between atoms: C1_1  and  C2_6 
REMARK    2  A    between atoms: N1_2  and  N2_3 
REMARK    3  A    between atoms: C2_6  and  C3_8 
REMARK    4  A    between atoms: C11_16  and  N4_17 
ROOT
HETATM    1  N4  LIG X 999      43.139 131.692  17.003  1.00  0.00    -0.105 NA
HETATM    2  N5  LIG X 999      42.357 131.955  17.918  1.00  0.00    -0.167 NA
HETATM    3  N6  LIG X 999      41.577 132.215  18.832  1.00  0.00     0.068 N 
ENDROOT
BRANCH   1   4
HETATM    4  C11 LIG X 999      44.519 132.171  17.020  1.00  0.00     0.179 C 
HETATM    5  C10 LIG X 999      45.367 131.358  16.057  1.00  0.00    -0.024 A 
HETATM    6  C5  LIG X 999      46.182 130.289  16.506  1.00  0.00    -0.049 A 
HETATM    7  C9  LIG X 999      45.284 131.629  14.680  1.00  0.00     0.010 A 
HETATM    8  C4  LIG X 999      46.407 130.021  17.977  1.00  0.00     0.051 C 
HETATM    9  C6  LIG X 999      46.905 129.531  15.569  1.00  0.00     0.007 A 
HETATM   10  C3  LIG X 999      45.318 130.638  18.869  1.00  0.00     0.068 C 
HETATM   11  C12 LIG X 999      45.063 132.099  18.455  1.00  0.00     0.048 C 
HETATM   12  C7  LIG X 999      46.806 129.810  14.205  1.00  0.00     0.001 A 
HETATM   13  C8  LIG X 999      46.000 130.859  13.761  1.00  0.00     0.001 A 
BRANCH  10  14
HETATM   14  C2  LIG X 999      45.724 130.539  20.324  1.00  0.00     0.172 C 
HETATM   15  O1  LIG X 999      45.869 129.406  20.859  1.00  0.00    -0.291 OA
BRANCH  14  16
HETATM   16  C1  LIG X 999      45.892 131.737  21.163  1.00  0.00     0.190 C 
HETATM   17  N1  LIG X 999      47.023 132.367  21.211  1.00  0.00    -0.165 NA
BRANCH  17  18
HETATM   18  N2  LIG X 999      47.197 133.514  21.999  1.00  0.00    -0.177 N 
HETATM   19  H2  LIG X 999      46.417 133.885  22.589  1.00  0.00     0.214 HD
HETATM   20  N3  LIG X 999      48.315 134.113  21.999  1.00  0.00    -0.031 N 
ENDBRANCH  17  18
ENDBRANCH  14  16
ENDBRANCH  10  14
ENDBRANCH   1   4
TORSDOF 4
ENDMDL
MODEL 5
REMARK VINA RESULT:      -5.4      3.546      4.812
REMARK  4 active torsions:
REMARK  status: ('A' for Active; 'I' for Inactive)
REMARK    1  A    between atoms: C1_1  and  C2_6 
REMARK    2  A    between atoms: N1_2  and  N2_3 
REMARK    3  A    between atoms: C2_6  and  C3_8 
REMARK    4  A    between atoms: C11_16  and  N4_17 
ROOT
HETATM    1  N4  LIG X 999      43.572 130.401  24.596  1.00  0.00    -0.105 NA
HETATM    2  N5  LIG X 999      43.670 131.628  24.608  1.00  0.00    -0.167 NA
HETATM    3  N6  LIG X 999      43.771 132.854  24.621  1.00  0.00     0.068 N 
ENDROOT
BRANCH   1   4
HETATM    4  C11 LIG X 999      43.058 129.689  23.428  1.00  0.00     0.179 C 
HETATM    5  C10 LIG X 999      43.737 128.337  23.297  1.00  0.00    -0.024 A 
HETATM    6  C5  LIG X 999      44.825 128.134  22.412  1.00  0.00    -0.049 A 
HETATM    7  C9  LIG X 999      43.321 127.283  24.128  1.00  0.00     0.010 A 
HETATM    8  C4  LIG X 999      45.245 129.187  21.411  1.00  0.00     0.051 C 
HETATM    9  C6  LIG X 999      45.456 126.880  22.369  1.00  0.00     0.007 A 
HETATM   10  C3  LIG X 999      44.759 130.596  21.787  1.00  0.00     0.068 C 
HETATM   11  C12 LIG X 999      43.270 130.553  22.175  1.00  0.00     0.048 C 
HETATM   12  C7  LIG X 999      45.033 125.845  23.206  1.00  0.00     0.001 A 
HETATM   13  C8  LIG X 999      43.966 126.045  24.082  1.00  0.00     0.001 A 
BRANCH  10  14
HETATM   14  C2  LIG X 999      45.004 131.551  20.638  1.00  0.00     0.172 C 
HETATM   15  O1  LIG X 999      45.999 132.326  20.669  1.00  0.00    -0.291 OA
BRANCH  14  16
HETATM   16  C1  LIG X 999      44.070 131.653  19.505  1.00  0.00     0.190 C 
HETATM   17  N1  LIG X 999      44.503 131.709  18.285  1.00  0.00    -0.165 NA
BRANCH  17  18
HETATM   18  N2  LIG X 999      43.626 131.799  17.194  1.00  0.00    -0.177 N 
HETATM   19  H2  LIG X 999      42.668 132.202  17.305  1.00  0.00     0.214 HD
HETATM   20  N3  LIG X 999      43.998 131.386  16.053  1.00  0.00    -0.031 N 
ENDBRANCH  17  18
ENDBRANCH  14  16
ENDBRANCH  10  14
ENDBRANCH   1   4
TORSDOF 4
ENDMDL
MODEL 6
REMARK VINA RESULT:      -5.3      2.776      3.346
REMARK  4 active torsions:
REMARK  status: ('A' for Active; 'I' for Inactive)
REMARK    1  A    between atoms: C1_1  and  C2_6 
REMARK    2  A    between atoms: N1_2  and  N2_3 
REMARK    3  A    between atoms: C2_6  and  C3_8 
REMARK    4  A    between atoms: C11_16  and  N4_17 
ROOT
HETATM    1  N4  LIG X 999      41.914 132.741  18.883  1.00  0.00    -0.105 NA
HETATM    2  N5  LIG X 999      41.425 133.232  19.902  1.00  0.00    -0.167 NA
HETATM    3  N6  LIG X 999      40.935 133.721  20.918  1.00  0.00     0.068 N 
ENDROOT
BRANCH   1   4
HETATM    4  C11 LIG X 999      42.472 131.391  18.880  1.00  0.00     0.179 C 
HETATM    5  C10 LIG X 999      43.562 131.273  19.930  1.00  0.00    -0.024 A 
HETATM    6  C5  LIG X 999      44.935 131.382  19.593  1.00  0.00    -0.049 A 
HETATM    7  C9  LIG X 999      43.196 131.123  21.279  1.00  0.00     0.010 A 
HETATM    8  C4  LIG X 999      45.401 131.426  18.155  1.00  0.00     0.051 C 
HETATM    9  C6  LIG X 999      45.902 131.322  20.610  1.00  0.00     0.007 A 
HETATM   10  C3  LIG X 999      44.291 131.852  17.181  1.00  0.00     0.068 C 
HETATM   11  C12 LIG X 999      43.001 131.066  17.475  1.00  0.00     0.048 C 
HETATM   12  C7  LIG X 999      45.520 131.179  21.944  1.00  0.00     0.001 A 
HETATM   13  C8  LIG X 999      44.170 131.077  22.279  1.00  0.00     0.001 A 
BRANCH  10  14
HETATM   14  C2  LIG X 999      44.750 131.648  15.753  1.00  0.00     0.172 C 
HETATM   15  O1  LIG X 999      43.934 131.804  14.804  1.00  0.00    -0.291 OA
BRANCH  14  16
HETATM   16  C1  LIG X 999      46.118 131.202  15.437  1.00  0.00     0.190 C 
HETATM   17  N1  LIG X 999      46.375 129.955  15.197  1.00  0.00    -0.165 NA
BRANCH  17  18
HETATM   18  N2  LIG X 999      47.670 129.514  14.888  1.00  0.00    -0.177 N 
HETATM   19  H2  LIG X 999      48.311 129.163  15.635  1.00  0.00     0.214 HD
HETATM   20  N3  LIG X 999      48.073 129.540  13.685  1.00  0.00    -0.031 N 
ENDBRANCH  17  18
ENDBRANCH  14  16
ENDBRANCH  10  14
ENDBRANCH   1   4
TORSDOF 4
ENDMDL
MODEL 7
REMARK VINA RESULT:      -5.0      6.025      7.205
REMARK  4 active torsions:
REMARK  status: ('A' for Active; 'I' for Inactive)
REMARK    1  A    between atoms: C1_1  and  C2_6 
REMARK    2  A    between atoms: N1_2  and  N2_3 
REMARK    3  A    between atoms: C2_6  and  C3_8 
REMARK    4  A    between atoms: C11_16  and  N4_17 
ROOT
HETATM    1  N4  LIG X 999      41.784 124.971  22.577  1.00  0.00    -0.105 NA
HETATM    2  N5  LIG X 999      40.784 124.266  22.711  1.00  0.00    -0.167 NA
HETATM    3  N6  LIG X 999      39.786 123.560  22.843  1.00  0.00     0.068 N 
ENDROOT
BRANCH   1   4
HETATM    4  C11 LIG X 999      42.598 125.365  23.725  1.00  0.00     0.179 C 
HETATM    5  C10 LIG X 999      43.081 126.795  23.559  1.00  0.00    -0.024 A 
HETATM    6  C5  LIG X 999      44.381 127.089  23.077  1.00  0.00    -0.049 A 
HETATM    7  C9  LIG X 999      42.190 127.850  23.822  1.00  0.00     0.010 A 
HETATM    8  C4  LIG X 999      45.423 126.010  22.888  1.00  0.00     0.051 C 
HETATM    9  C6  LIG X 999      44.761 128.428  22.888  1.00  0.00     0.007 A 
HETATM   10  C3  LIG X 999      44.813 124.605  22.765  1.00  0.00     0.068 C 
HETATM   11  C12 LIG X 999      43.770 124.384  23.876  1.00  0.00     0.048 C 
HETATM   12  C7  LIG X 999      43.862 129.463  23.148  1.00  0.00     0.001 A 
HETATM   13  C8  LIG X 999      42.580 129.176  23.617  1.00  0.00     0.001 A 
BRANCH  10  14
HETATM   14  C2  LIG X 999      45.906 123.559  22.816  1.00  0.00     0.172 C 
HETATM   15  O1  LIG X 999      46.328 123.148  23.932  1.00  0.00    -0.291 OA
BRANCH  14  16
HETATM   16  C1  LIG X 999      46.548 123.051  21.593  1.00  0.00     0.190 C 
HETATM   17  N1  LIG X 999      47.601 123.625  21.102  1.00  0.00    -0.165 NA
BRANCH  17  18
HETATM   18  N2  LIG X 999      48.228 123.149  19.941  1.00  0.00    -0.177 N 
HETATM   19  H2  LIG X 999      47.704 122.574  19.244  1.00  0.00     0.214 HD
HETATM   20  N3  LIG X 999      49.450 123.419  19.732  1.00  0.00    -0.031 N 
ENDBRANCH  17  18
ENDBRANCH  14  16
ENDBRANCH  10  14
ENDBRANCH   1   4
TORSDOF 4
ENDMDL
MODEL 8
REMARK VINA RESULT:      -4.9      5.271      6.252
REMARK  4 active torsions:
REMARK  status: ('A' for Active; 'I' for Inactive)
REMARK    1  A    between atoms: C1_1  and  C2_6 
REMARK    2  A    between atoms: N1_2  and  N2_3 
REMARK    3  A    between atoms: C2_6  and  C3_8 
REMARK    4  A    between atoms: C11_16  and  N4_17 
ROOT
HETATM    1  N4  LIG X 999      41.412 127.185  23.532  1.00  0.00    -0.105 NA
HETATM    2  N5  LIG X 999      40.859 126.114  23.789  1.00  0.00    -0.167 NA
HETATM    3  N6  LIG X 999      40.309 125.044  24.044  1.00  0.00     0.068 N 
ENDROOT
BRANCH   1   4
HETATM    4  C11 LIG X 999      42.566 127.649  24.298  1.00  0.00     0.179 C 
HETATM    5  C10 LIG X 999      43.036 128.994  23.774  1.00  0.00    -0.024 A 
HETATM    6  C5  LIG X 999      44.126 129.102  22.874  1.00  0.00    -0.049 A 
HETATM    7  C9  LIG X 999      42.325 130.153  24.133  1.00  0.00     0.010 A 
HETATM    8  C4  LIG X 999      45.003 127.916  22.540  1.00  0.00     0.051 C 
HETATM    9  C6  LIG X 999      44.487 130.364  22.374  1.00  0.00     0.007 A 
HETATM   10  C3  LIG X 999      44.321 126.569  22.828  1.00  0.00     0.068 C 
HETATM   11  C12 LIG X 999      43.679 126.592  24.227  1.00  0.00     0.048 C 
HETATM   12  C7  LIG X 999      43.766 131.502  22.737  1.00  0.00     0.001 A 
HETATM   13  C8  LIG X 999      42.689 131.398  23.618  1.00  0.00     0.001 A 
BRANCH  10  14
HETATM   14  C2  LIG X 999      45.325 125.443  22.699  1.00  0.00     0.172 C 
HETATM   15  O1  LIG X 999      44.936 124.245  22.771  1.00  0.00    -0.291 OA
BRANCH  14  16
HETATM   16  C1  LIG X 999      46.767 125.705  22.559  1.00  0.00     0.190 C 
HETATM   17  N1  LIG X 999      47.527 124.911  21.874  1.00  0.00    -0.165 NA
BRANCH  17  18
HETATM   18  N2  LIG X 999      48.901 125.150  21.724  1.00  0.00    -0.177 N 
HETATM   19  H2  LIG X 999      49.302 126.101  21.888  1.00  0.00     0.214 HD
HETATM   20  N3  LIG X 999      49.671 124.200  21.385  1.00  0.00    -0.031 N 
ENDBRANCH  17  18
ENDBRANCH  14  16
ENDBRANCH  10  14
ENDBRANCH   1   4
TORSDOF 4
ENDMDL
MODEL 9
REMARK VINA RESULT:      -4.8      3.914      6.244
REMARK  4 active torsions:
REMARK  status: ('A' for Active; 'I' for Inactive)
REMARK    1  A    between atoms: C1_1  and  C2_6 
REMARK    2  A    between atoms: N1_2  and  N2_3 
REMARK    3  A    between atoms: C2_6  and  C3_8 
REMARK    4  A    between atoms: C11_16  and  N4_17 
ROOT
HETATM    1  N4  LIG X 999      46.120 132.960  20.952  1.00  0.00    -0.105 NA
HETATM    2  N5  LIG X 999      47.187 133.166  21.533  1.00  0.00    -0.167 NA
HETATM    3  N6  LIG X 999      48.251 133.372  22.114  1.00  0.00     0.068 N 
ENDROOT
BRANCH   1   4
HETATM    4  C11 LIG X 999      45.657 131.603  20.668  1.00  0.00     0.179 C 
HETATM    5  C10 LIG X 999      44.792 131.595  19.421  1.00  0.00    -0.024 A 
HETATM    6  C5  LIG X 999      43.377 131.605  19.497  1.00  0.00    -0.049 A 
HETATM    7  C9  LIG X 999      45.413 131.652  18.161  1.00  0.00     0.010 A 
HETATM    8  C4  LIG X 999      42.649 131.428  20.810  1.00  0.00     0.051 C 
HETATM    9  C6  LIG X 999      42.622 131.655  18.314  1.00  0.00     0.007 A 
HETATM   10  C3  LIG X 999      43.527 131.752  22.029  1.00  0.00     0.068 C 
HETATM   11  C12 LIG X 999      44.897 131.062  21.889  1.00  0.00     0.048 C 
HETATM   12  C7  LIG X 999      43.255 131.717  17.071  1.00  0.00     0.001 A 
HETATM   13  C8  LIG X 999      44.647 131.713  16.994  1.00  0.00     0.001 A 
BRANCH  10  14
HETATM   14  C2  LIG X 999      42.824 131.330  23.301  1.00  0.00     0.172 C 
HETATM   15  O1  LIG X 999      42.034 132.129  23.875  1.00  0.00    -0.291 OA
BRANCH  14  16
HETATM   16  C1  LIG X 999      43.086 130.027  23.934  1.00  0.00     0.190 C 
HETATM   17  N1  LIG X 999      42.422 128.970  23.588  1.00  0.00    -0.165 NA
BRANCH  17  18
HETATM   18  N2  LIG X 999      42.664 127.720  24.176  1.00  0.00    -0.177 N 
HETATM   19  H2  LIG X 999      42.387 127.528  25.166  1.00  0.00     0.214 HD
HETATM   20  N3  LIG X 999      43.229 126.806  23.501  1.00  0.00    -0.031 N 
ENDBRANCH  17  18
ENDBRANCH  14  16
ENDBRANCH  10  14
ENDBRANCH   1   4
TORSDOF 4
ENDMDL
