REMARK VINA RESULT:      -3.3      3.104      6.518
REMARK  5 active torsions:
REMARK  status: ('A' for Active; 'I' for Inactive)
REMARK    1  A    between atoms: C3_3  and  N1_4 
REMARK    2  A    between atoms: N1_4  and  C6_7 
REMARK    3  A    between atoms: C6_7  and  C7_8 
REMARK    4  A    between atoms: C9_10  and  C10_11 
REMARK    5  A    between atoms: C11_15  and  N4_16 
ROOT
HETATM    1  C1  LIG X 999      42.678 124.036  22.298  1.00  0.00     0.013 C 
HETATM    2  C2  LIG X 999      42.894 125.130  22.753  1.00  0.00    -0.089 C 
HETATM    3  C3  LIG X 999      43.157 126.471  23.312  1.00  0.00     0.329 C 
ENDROOT
BRANCH   3   4
HETATM    4  N1  LIG X 999      44.609 126.750  23.536  1.00  0.00    -0.061 N 
HETATM    5  C4  LIG X 999      45.324 126.550  22.250  1.00  0.00     0.273 C 
HETATM    6  C5  LIG X 999      45.159 125.772  24.509  1.00  0.00     0.273 C 
BRANCH   4   7
HETATM    7  C6  LIG X 999      44.859 128.132  24.062  1.00  0.00     0.275 C 
BRANCH   7   8
HETATM    8  C7  LIG X 999      44.436 129.248  23.126  1.00  0.00    -0.035 C 
HETATM    9  C8  LIG X 999      45.091 129.461  21.965  1.00  0.00     0.001 C 
HETATM   10  C9  LIG X 999      44.795 130.694  21.138  1.00  0.00     0.054 C 
HETATM   11  C12 LIG X 999      45.215 130.489  19.661  1.00  0.00     0.023 C 
HETATM   12  C16 LIG X 999      43.256 130.935  21.171  1.00  0.00     0.028 C 
HETATM   13  C13 LIG X 999      44.816 131.699  18.792  1.00  0.00     0.002 C 
HETATM   14  C14 LIG X 999      43.312 132.006  18.892  1.00  0.00     0.001 C 
HETATM   15  C15 LIG X 999      42.854 132.172  20.351  1.00  0.00     0.010 C 
HETATM   16  C17 LIG X 999      42.750 130.960  22.591  1.00  0.00    -0.020 C 
HETATM   17  C18 LIG X 999      43.277 130.113  23.486  1.00  0.00     0.005 C 
BRANCH  10  18
HETATM   18  C10 LIG X 999      45.588 131.835  21.758  1.00  0.00     0.182 A 
HETATM   19  N2  LIG X 999      45.273 132.424  22.934  1.00  0.00    -0.149 NA
HETATM   20  N3  LIG X 999      46.152 133.399  23.092  1.00  0.00    -0.236 N 
HETATM   21  H13 LIG X 999      46.187 134.052  23.905  1.00  0.00     0.193 HD
HETATM   22  C11 LIG X 999      46.957 133.381  22.021  1.00  0.00     0.301 A 
HETATM   23  O1  LIG X 999      46.618 132.426  21.189  1.00  0.00    -0.257 OA
BRANCH  22  24
HETATM   24  N4  LIG X 999      48.034 134.292  21.816  1.00  0.00    -0.025 NA
HETATM   25  N5  LIG X 999      48.921 134.416  22.661  1.00  0.00    -0.158 NA
HETATM   26  N6  LIG X 999      49.807 134.540  23.506  1.00  0.00     0.068 N 
ENDBRANCH  22  24
ENDBRANCH  10  18
ENDBRANCH   7   8
ENDBRANCH   4   7
ENDBRANCH   3   4
TORSDOF 5
