REMARK VINA RESULT:      -6.6      2.954      5.101
REMARK  1 active torsions:
REMARK  status: ('A' for Active; 'I' for Inactive)
REMARK    1  A    between atoms: C8_8  and  N1_9 
ROOT
HETATM    1  N1  LIG X 999      44.247 131.435  22.623  1.00  0.00    -0.072 NA
HETATM    2  N2  LIG X 999      43.733 130.536  23.290  1.00  0.00    -0.162 NA
HETATM    3  N3  LIG X 999      43.219 129.639  23.957  1.00  0.00     0.068 N 
ENDROOT
BRANCH   1   4
HETATM    4  C8  LIG X 999      44.588 131.264  21.238  1.00  0.00     0.104 A 
HETATM    5  C7  LIG X 999      45.830 130.678  20.843  1.00  0.00     0.038 A 
HETATM    6  C6  LIG X 999      46.159 130.512  19.478  1.00  0.00     0.033 A 
HETATM    7  C5  LIG X 999      45.234 130.937  18.527  1.00  0.00     0.047 A 
HETATM    8  C4  LIG X 999      44.052 131.493  18.919  1.00  0.00     0.019 A 
HETATM    9  N4  LIG X 999      45.319 130.884  17.101  1.00  0.00    -0.322 N 
HETATM   10  C3  LIG X 999      43.286 131.842  17.849  1.00  0.00     0.045 A 
HETATM   11  C9  LIG X 999      43.677 131.681  20.239  1.00  0.00     0.009 A 
HETATM   12  C2  LIG X 999      42.035 132.429  18.033  1.00  0.00     0.018 A 
HETATM   13  C11 LIG X 999      44.075 131.462  16.678  1.00  0.00     0.257 A 
HETATM   14  C1  LIG X 999      41.600 132.645  19.362  1.00  0.00     0.002 A 
HETATM   15  C10 LIG X 999      42.415 132.273  20.464  1.00  0.00     0.015 A 
HETATM   16  O1  LIG X 999      43.735 131.611  15.476  1.00  0.00    -0.267 OA
HETATM   17  H6  LIG X 999      46.095 130.515  16.511  1.00  0.00     0.169 HD
ENDBRANCH   1   4
TORSDOF 1
