REMARK VINA RESULT:      -6.9      1.858      7.298
REMARK  4 active torsions:
REMARK  status: ('A' for Active; 'I' for Inactive)
REMARK    1  A    between atoms: C3_3  and  O1_4 
REMARK    2  A    between atoms: O1_4  and  C4_5 
REMARK    3  A    between atoms: C4_5  and  O2_6 
REMARK    4  A    between atoms: C5_8  and  C6_9 
ROOT
HETATM    1  C1  LIG X 999      46.541 131.019  13.395  1.00  0.00     0.014 C 
HETATM    2  C2  LIG X 999      45.638 130.885  14.182  1.00  0.00    -0.091 C 
HETATM    3  C3  LIG X 999      44.544 130.725  15.140  1.00  0.00     0.270 C 
ENDROOT
BRANCH   3   4
HETATM    4  O1  LIG X 999      45.038 130.955  16.453  1.00  0.00    -0.319 OA
BRANCH   4   5
HETATM    5  C4  LIG X 999      46.139 130.281  17.001  1.00  0.00     0.179 C 
HETATM    6  C5  LIG X 999      46.257 130.145  18.327  1.00  0.00     0.075 C 
BRANCH   5   7
HETATM    7  O2  LIG X 999      47.148 129.763  16.188  1.00  0.00    -0.341 OA
HETATM    8  H4  LIG X 999      47.914 129.215  16.554  1.00  0.00     0.220 HD
ENDBRANCH   5   7
BRANCH   6   9
HETATM    9  C6  LIG X 999      45.263 130.640  19.307  1.00  0.00    -0.031 A 
HETATM   10  C7  LIG X 999      44.305 131.574  18.885  1.00  0.00     0.012 A 
HETATM   11  C8  LIG X 999      43.359 132.079  19.781  1.00  0.00     0.013 A 
HETATM   12  C9  LIG X 999      43.368 131.671  21.122  1.00  0.00    -0.026 A 
HETATM   13  C10 LIG X 999      42.423 132.172  22.030  1.00  0.00     0.012 A 
HETATM   14  C14 LIG X 999      44.348 130.751  21.566  1.00  0.00    -0.025 A 
HETATM   15  C11 LIG X 999      42.449 131.764  23.367  1.00  0.00     0.001 A 
HETATM   16  C12 LIG X 999      43.418 130.858  23.807  1.00  0.00     0.001 A 
HETATM   17  C13 LIG X 999      44.365 130.352  22.912  1.00  0.00     0.012 A 
HETATM   18  C15 LIG X 999      45.294 130.249  20.659  1.00  0.00     0.024 A 
ENDBRANCH   6   9
ENDBRANCH   4   5
ENDBRANCH   3   4
TORSDOF 4
