REMARK VINA RESULT:      -4.7      1.981      3.135
REMARK  5 active torsions:
REMARK  status: ('A' for Active; 'I' for Inactive)
REMARK    1  A    between atoms: C3_3  and  O1_4 
REMARK    2  A    between atoms: O1_4  and  C4_5 
REMARK    3  A    between atoms: C5_6  and  C6_7 
REMARK    4  A    between atoms: C6_7  and  O2_8 
REMARK    5  A    between atoms: C17_20  and  N1_21 
ROOT
HETATM    1  C1  LIG X 999      44.807 131.466  20.689  1.00  0.00     0.014 C 
HETATM    2  C2  LIG X 999      45.133 130.376  21.084  1.00  0.00    -0.091 C 
HETATM    3  C3  LIG X 999      45.527 129.047  21.564  1.00  0.00     0.268 C 
ENDROOT
BRANCH   3   4
HETATM    4  O1  LIG X 999      44.937 128.779  22.835  1.00  0.00    -0.336 OA
BRANCH   4   5
HETATM    5  C4  LIG X 999      44.012 127.744  23.023  1.00  0.00     0.108 C 
HETATM    6  C5  LIG X 999      42.669 128.028  23.338  1.00  0.00     0.012 C 
HETATM    7  C7  LIG X 999      41.793 126.955  23.657  1.00  0.00    -0.014 C 
HETATM    8  C8  LIG X 999      40.468 127.190  24.098  1.00  0.00     0.013 C 
HETATM    9  C12 LIG X 999      42.263 125.606  23.585  1.00  0.00    -0.012 C 
HETATM   10  C9  LIG X 999      39.669 126.148  24.557  1.00  0.00     0.001 C 
HETATM   11  C10 LIG X 999      40.178 124.860  24.624  1.00  0.00     0.001 C 
HETATM   12  C11 LIG X 999      41.466 124.593  24.167  1.00  0.00     0.013 C 
HETATM   13  C13 LIG X 999      43.549 125.336  23.023  1.00  0.00     0.013 C 
HETATM   14  C14 LIG X 999      44.004 124.050  22.582  1.00  0.00    -0.045 C 
HETATM   15  C18 LIG X 999      44.440 126.424  22.852  1.00  0.00     0.105 C 
HETATM   16  C15 LIG X 999      43.092 122.886  22.273  1.00  0.00     0.049 C 
HETATM   17  C16 LIG X 999      45.359 123.872  22.265  1.00  0.00     0.063 C 
HETATM   18  C17 LIG X 999      46.225 124.969  22.242  1.00  0.00     0.186 C 
HETATM   19  N4  LIG X 999      45.733 126.203  22.492  1.00  0.00    -0.223 NA
BRANCH   6  20
HETATM   20  C6  LIG X 999      42.189 129.471  23.297  1.00  0.00     0.206 C 
BRANCH  20  21
HETATM   21  O2  LIG X 999      43.143 130.308  23.893  1.00  0.00    -0.396 OA
HETATM   22  H6  LIG X 999      42.811 131.239  23.808  1.00  0.00     0.209 HD
ENDBRANCH  20  21
ENDBRANCH   6  20
BRANCH  18  23
HETATM   23  N1  LIG X 999      47.611 124.834  21.900  1.00  0.00    -0.052 NA
HETATM   24  N2  LIG X 999      48.003 124.057  21.028  1.00  0.00    -0.160 NA
HETATM   25  N3  LIG X 999      48.396 123.281  20.158  1.00  0.00     0.068 N 
ENDBRANCH  18  23
ENDBRANCH   4   5
ENDBRANCH   3   4
TORSDOF 5
