REMARK VINA RESULT:      -7.3      1.225      2.811
REMARK  5 active torsions:
REMARK  status: ('A' for Active; 'I' for Inactive)
REMARK    1  A    between atoms: C6_6  and  C7_7 
REMARK    2  A    between atoms: C7_7  and  N1_8 
REMARK    3  A    between atoms: N4_11  and  C8_12 
REMARK    4  A    between atoms: C8_12  and  C9_13 
REMARK    5  A    between atoms: C9_13  and  N5_14 
ROOT
HETATM    1  N1  LIG X 999      42.386 132.042  18.386  1.00  0.00    -0.052 NA
HETATM    2  N2  LIG X 999      41.914 132.620  19.365  1.00  0.00    -0.160 NA
HETATM    3  N3  LIG X 999      41.443 133.198  20.344  1.00  0.00     0.068 N 
ENDROOT
BRANCH   1   4
HETATM    4  C7  LIG X 999      43.723 131.532  18.387  1.00  0.00     0.191 C 
HETATM    5  N4  LIG X 999      44.309 131.261  19.521  1.00  0.00    -0.267 NA
BRANCH   4   6
HETATM    6  C6  LIG X 999      44.401 131.369  17.086  1.00  0.00     0.015 A 
HETATM    7  C5  LIG X 999      45.587 130.625  16.985  1.00  0.00     0.027 A 
HETATM    8  C4  LIG X 999      46.217 130.462  15.743  1.00  0.00    -0.025 A 
HETATM    9  C3  LIG X 999      47.411 129.731  15.635  1.00  0.00     0.012 A 
HETATM   10  C12 LIG X 999      45.641 131.037  14.584  1.00  0.00    -0.026 A 
HETATM   11  C2  LIG X 999      48.030 129.577  14.391  1.00  0.00     0.001 A 
HETATM   12  C1  LIG X 999      47.463 130.148  13.248  1.00  0.00     0.001 A 
HETATM   13  C13 LIG X 999      46.274 130.875  13.340  1.00  0.00     0.012 A 
HETATM   14  C11 LIG X 999      44.443 131.759  14.688  1.00  0.00     0.013 A 
HETATM   15  C10 LIG X 999      43.824 131.915  15.931  1.00  0.00     0.016 A 
ENDBRANCH   4   6
BRANCH   5  16
HETATM   16  C8  LIG X 999      45.690 130.812  19.719  1.00  0.00     0.178 C 
BRANCH  16  17
HETATM   17  C9  LIG X 999      45.799 129.793  20.863  1.00  0.00     0.251 C 
BRANCH  17  18
HETATM   18  N5  LIG X 999      44.968 130.174  22.006  1.00  0.00    -0.078 N 
HETATM   19  H9  LIG X 999      43.993 129.832  21.847  1.00  0.00     0.274 HD
HETATM   20  H10 LIG X 999      45.336 129.740  22.882  1.00  0.00     0.274 HD
HETATM   21  H11 LIG X 999      44.948 131.214  22.107  1.00  0.00     0.274 HD
ENDBRANCH  17  18
ENDBRANCH  16  17
ENDBRANCH   5  16
ENDBRANCH   1   4
TORSDOF 5
