REMARK VINA RESULT:      -7.3      1.055      2.203
REMARK  4 active torsions:
REMARK  status: ('A' for Active; 'I' for Inactive)
REMARK    1  A    between atoms: O1_2  and  C1_3 
REMARK    2  A    between atoms: C1_3  and  C5_11 
REMARK       I    between atoms: N1_4  and  C2_5 
REMARK    3  A    between atoms: C2_5  and  O3_7 
REMARK    4  A    between atoms: O3_7  and  C3_8 
ROOT
HETATM    1  C5  LIG X 999      44.294 131.403  18.942  1.00  0.00     0.054 A 
HETATM    2  C6  LIG X 999      45.502 130.675  19.038  1.00  0.00     0.122 A 
HETATM    3  O4  LIG X 999      46.060 130.361  20.272  1.00  0.00    -0.191 OA
HETATM    4  C7  LIG X 999      46.174 130.262  17.883  1.00  0.00     0.053 A 
HETATM    5  C8  LIG X 999      45.664 130.566  16.615  1.00  0.00    -0.023 A 
HETATM    6  C9  LIG X 999      46.338 130.153  15.454  1.00  0.00     0.012 A 
HETATM    7  C10 LIG X 999      45.819 130.462  14.194  1.00  0.00     0.001 A 
HETATM    8  C11 LIG X 999      44.628 131.185  14.083  1.00  0.00     0.001 A 
HETATM    9  C12 LIG X 999      43.949 131.602  15.231  1.00  0.00     0.012 A 
HETATM   10  C13 LIG X 999      44.460 131.296  16.503  1.00  0.00    -0.025 A 
HETATM   11  C14 LIG X 999      43.787 131.709  17.662  1.00  0.00     0.031 A 
ENDROOT
BRANCH   1  12
HETATM   12  C1  LIG X 999      43.556 131.847  20.160  1.00  0.00     0.181 C 
HETATM   13  N1  LIG X 999      43.831 131.293  21.309  1.00  0.00    -0.162 NA
HETATM   14  C2  LIG X 999      43.174 131.496  22.566  1.00  0.00     0.390 C 
HETATM   15  O2  LIG X 999      41.964 131.852  22.615  1.00  0.00    -0.236 OA
BRANCH  12  16
HETATM   16  O1  LIG X 999      42.610 132.871  20.048  1.00  0.00    -0.344 OA
HETATM   17  H1  LIG X 999      41.643 132.778  20.326  1.00  0.00     0.219 HD
ENDBRANCH  12  16
BRANCH  14  18
HETATM   18  O3  LIG X 999      43.870 131.206  23.743  1.00  0.00    -0.282 OA
BRANCH  18  19
HETATM   19  C3  LIG X 999      43.954 129.897  24.300  1.00  0.00     0.225 C 
HETATM   20 CL1  LIG X 999      44.733 128.786  23.138  1.00  0.00    -0.095 Cl
HETATM   21  C4  LIG X 999      42.554 129.396  24.623  1.00  0.00     0.057 C 
ENDBRANCH  18  19
ENDBRANCH  14  18
ENDBRANCH   1  12
TORSDOF 4
