REMARK VINA RESULT:      -7.2      2.111      2.774
REMARK  7 active torsions:
REMARK  status: ('A' for Active; 'I' for Inactive)
REMARK    1  A    between atoms: C6_6  and  O1_7 
REMARK    2  A    between atoms: O1_7  and  C7_8 
REMARK    3  A    between atoms: C7_8  and  O3_10 
REMARK    4  A    between atoms: O3_10  and  C8_11 
REMARK    5  A    between atoms: C8_11  and  N1_12 
REMARK       I    between atoms: N1_12  and  C9_14 
REMARK    6  A    between atoms: C9_14  and  C10_16 
REMARK    7  A    between atoms: C10_16  and  N2_17 
ROOT
HETATM    1  N2  LIG X 999      42.122 132.320  23.136  1.00  0.00    -0.261 NA
HETATM    2  C11 LIG X 999      42.201 132.400  21.867  1.00  0.00     0.158 C 
HETATM    3  S1  LIG X 999      42.306 132.500  20.263  1.00  0.00    -0.055 SA
ENDROOT
BRANCH   1   4
HETATM    4  C10 LIG X 999      42.962 131.407  23.907  1.00  0.00     0.197 C 
HETATM    5  C12 LIG X 999      44.156 132.171  24.475  1.00  0.00     0.044 C 
BRANCH   4   6
HETATM    6  C9  LIG X 999      43.433 130.270  23.036  1.00  0.00     0.243 C 
HETATM    7  N1  LIG X 999      44.708 130.342  22.384  1.00  0.00    -0.338 N 
HETATM    8  H7  LIG X 999      45.253 131.232  22.416  1.00  0.00     0.164 HD
HETATM    9  O4  LIG X 999      42.712 129.244  22.906  1.00  0.00    -0.271 OA
BRANCH   7  10
HETATM   10  C8  LIG X 999      45.318 129.175  21.751  1.00  0.00     0.306 C 
BRANCH  10  11
HETATM   11  O3  LIG X 999      45.803 129.517  20.454  1.00  0.00    -0.278 OA
BRANCH  11  12
HETATM   12  C7  LIG X 999      45.560 130.754  19.852  1.00  0.00     0.413 C 
HETATM   13  O2  LIG X 999      46.020 131.813  20.362  1.00  0.00    -0.229 OA
BRANCH  12  14
HETATM   14  O1  LIG X 999      44.860 130.787  18.640  1.00  0.00    -0.256 OA
BRANCH  14  15
HETATM   15  C6  LIG X 999      45.433 130.999  17.378  1.00  0.00     0.082 A 
HETATM   16  C5  LIG X 999      46.150 129.952  16.788  1.00  0.00     0.049 A 
HETATM   17  C4  LIG X 999      46.745 130.115  15.529  1.00  0.00    -0.023 A 
HETATM   18  C3  LIG X 999      47.480 129.070  14.944  1.00  0.00     0.012 A 
HETATM   19  C15 LIG X 999      46.605 131.344  14.841  1.00  0.00    -0.026 A 
HETATM   20  C2  LIG X 999      48.069 129.246  13.688  1.00  0.00     0.001 A 
HETATM   21  C1  LIG X 999      47.931 130.459  13.009  1.00  0.00     0.001 A 
HETATM   22  C16 LIG X 999      47.201 131.506  13.581  1.00  0.00     0.012 A 
HETATM   23  C14 LIG X 999      45.867 132.383  15.423  1.00  0.00     0.015 A 
HETATM   24  C13 LIG X 999      45.281 132.211  16.680  1.00  0.00     0.038 A 
ENDBRANCH  14  15
ENDBRANCH  12  14
ENDBRANCH  11  12
ENDBRANCH  10  11
ENDBRANCH   7  10
ENDBRANCH   4   6
ENDBRANCH   1   4
TORSDOF 7
