REMARK VINA RESULT:      -6.7      0.000      0.000
REMARK  1 active torsions:
REMARK  status: ('A' for Active; 'I' for Inactive)
REMARK    1  A    between atoms: C7_7  and  N1_8 
ROOT
HETATM    1  N1  LIG X 999      45.365 131.358  18.283  1.00  0.00    -0.110 NA
HETATM    2  N2  LIG X 999      44.579 131.698  19.169  1.00  0.00    -0.167 NA
HETATM    3  N3  LIG X 999      43.795 132.037  20.053  1.00  0.00     0.068 N 
ENDROOT
BRANCH   1   4
HETATM    4  C7  LIG X 999      45.107 131.678  16.880  1.00  0.00     0.153 C 
HETATM    5  C6  LIG X 999      43.848 130.922  16.396  1.00  0.00     0.031 C 
HETATM    6  C5  LIG X 999      43.805 130.711  14.869  1.00  0.00     0.003 C 
HETATM    7  C4  LIG X 999      44.576 131.800  14.116  1.00  0.00     0.009 C 
HETATM    8  C3  LIG X 999      46.074 131.849  14.523  1.00  0.00     0.018 C 
HETATM    9  C2  LIG X 999      46.925 131.124  13.506  1.00  0.00    -0.021 C 
HETATM   10  C8  LIG X 999      46.335 131.365  15.989  1.00  0.00     0.043 C 
HETATM   11  C1  LIG X 999      47.426 129.910  13.737  1.00  0.00    -0.004 C 
HETATM   12  C10 LIG X 999      47.252 129.251  15.038  1.00  0.00    -0.004 C 
HETATM   13  C9  LIG X 999      46.711 129.897  16.072  1.00  0.00    -0.019 C 
ENDBRANCH   1   4
TORSDOF 1
