REMARK VINA RESULT:      -5.1      6.567      9.127
REMARK  2 active torsions:
REMARK  status: ('A' for Active; 'I' for Inactive)
REMARK    1  A    between atoms: C9_10  and  N2_11 
REMARK       I    between atoms: N2_11  and  C10_12 
REMARK    2  A    between atoms: C10_12  and  C11_14 
ROOT
HETATM    1  C11 LIG X 999      42.941 131.339  23.781  1.00  0.00     0.282 C 
HETATM    2 CL1  LIG X 999      43.925 132.569  24.613  1.00  0.00    -0.099 Cl
HETATM    3  C12 LIG X 999      42.831 131.681  22.359  1.00  0.00     0.089 C 
HETATM    4  N3  LIG X 999      42.745 131.950  21.237  1.00  0.00    -0.195 NA
ENDROOT
BRANCH   1   5
HETATM    5  C10 LIG X 999      43.564 129.987  23.940  1.00  0.00     0.276 C 
HETATM    6  N2  LIG X 999      42.920 128.844  23.364  1.00  0.00    -0.212 NA
HETATM    7  O1  LIG X 999      44.622 129.859  24.615  1.00  0.00    -0.268 OA
BRANCH   6   8
HETATM    8  C9  LIG X 999      43.490 127.537  23.196  1.00  0.00     0.061 A 
HETATM    9  C8  LIG X 999      42.763 126.366  23.477  1.00  0.00     0.032 A 
HETATM   10  C7  LIG X 999      43.353 125.110  23.321  1.00  0.00     0.014 A 
HETATM   11  C6  LIG X 999      44.684 125.003  22.896  1.00  0.00    -0.025 A 
HETATM   12  C5  LIG X 999      45.287 123.740  22.732  1.00  0.00     0.021 A 
HETATM   13  C14 LIG X 999      45.434 126.184  22.635  1.00  0.00    -0.023 A 
HETATM   14  C4  LIG X 999      46.618 123.684  22.318  1.00  0.00    -0.024 A 
HETATM   15  C3  LIG X 999      47.438 122.480  22.064  1.00  0.00     0.276 C 
HETATM   16  C16 LIG X 999      47.336 124.813  22.070  1.00  0.00    -0.024 A 
HETATM   17  N1  LIG X 999      48.818 122.986  21.770  1.00  0.00    -0.067 N 
HETATM   18  C1  LIG X 999      49.728 122.656  22.892  1.00  0.00     0.272 C 
HETATM   19  C2  LIG X 999      49.344 122.375  20.528  1.00  0.00     0.272 C 
HETATM   20  C17 LIG X 999      48.703 124.471  21.620  1.00  0.00     0.276 C 
HETATM   21  C15 LIG X 999      46.775 126.083  22.214  1.00  0.00     0.021 A 
HETATM   22  C13 LIG X 999      44.829 127.438  22.796  1.00  0.00     0.044 A 
ENDBRANCH   6   8
ENDBRANCH   1   5
TORSDOF 2
