MODEL 1
REMARK VINA RESULT:      -9.3      0.000      0.000
REMARK  6 active torsions:
REMARK  status: ('A' for Active; 'I' for Inactive)
REMARK    1  A    between atoms: O1_2  and  C1_3 
REMARK    2  A    between atoms: C1_3  and  C4_6 
REMARK    3  A    between atoms: C4_6  and  O2_7 
REMARK    4  A    between atoms: C4_6  and  O3_9 
REMARK    5  A    between atoms: O3_9  and  C5_10 
REMARK    6  A    between atoms: C10_15  and  N1_16 
ROOT
HETATM    1  N1  LIG X 999      42.816 131.755  23.337  1.00  0.00    -0.073 NA
HETATM    2  N2  LIG X 999      42.399 130.791  23.980  1.00  0.00    -0.162 NA
HETATM    3  N3  LIG X 999      41.983 129.829  24.624  1.00  0.00     0.068 N 
ENDROOT
BRANCH   1   4
HETATM    4  C10 LIG X 999      43.449 131.609  22.058  1.00  0.00     0.094 A 
HETATM    5  C9  LIG X 999      42.749 131.826  20.856  1.00  0.00     0.046 A 
HETATM    6  C8  LIG X 999      43.398 131.674  19.621  1.00  0.00    -0.024 A 
HETATM    7  C7  LIG X 999      42.709 131.889  18.420  1.00  0.00     0.015 A 
HETATM    8  C13 LIG X 999      44.763 131.301  19.585  1.00  0.00    -0.023 A 
HETATM    9  C6  LIG X 999      43.365 131.734  17.196  1.00  0.00     0.038 A 
HETATM   10  C5  LIG X 999      44.712 131.362  17.147  1.00  0.00     0.073 A 
HETATM   11  C14 LIG X 999      45.412 131.150  18.351  1.00  0.00     0.049 A 
HETATM   12  C12 LIG X 999      45.453 131.088  20.788  1.00  0.00     0.014 A 
HETATM   13  C11 LIG X 999      44.798 131.241  22.013  1.00  0.00     0.035 A 
BRANCH  10  14
HETATM   14  O3  LIG X 999      45.312 131.217  15.884  1.00  0.00    -0.314 OA
BRANCH  14  15
HETATM   15  C4  LIG X 999      45.386 130.003  15.133  1.00  0.00     0.321 C 
BRANCH  15  16
HETATM   16  C1  LIG X 999      46.624 129.986  14.274  1.00  0.00     0.094 C 
HETATM   17  C2  LIG X 999      46.854 130.983  13.401  1.00  0.00     0.006 C 
HETATM   18  C3  LIG X 999      48.059 131.033  12.515  1.00  0.00     0.038 C 
BRANCH  16  19
HETATM   19  O1  LIG X 999      47.516 128.921  14.429  1.00  0.00    -0.360 OA
HETATM   20  H1  LIG X 999      48.346 128.801  13.862  1.00  0.00     0.217 HD
ENDBRANCH  16  19
ENDBRANCH  15  16
BRANCH  15  21
HETATM   21  O2  LIG X 999      45.420 128.924  16.029  1.00  0.00    -0.365 OA
HETATM   22  H7  LIG X 999      46.373 128.780  16.268  1.00  0.00     0.213 HD
ENDBRANCH  15  21
ENDBRANCH  14  15
ENDBRANCH  10  14
ENDBRANCH   1   4
TORSDOF 6
ENDMDL
MODEL 2
REMARK VINA RESULT:      -8.9      0.626      1.649
REMARK  6 active torsions:
REMARK  status: ('A' for Active; 'I' for Inactive)
REMARK    1  A    between atoms: O1_2  and  C1_3 
REMARK    2  A    between atoms: C1_3  and  C4_6 
REMARK    3  A    between atoms: C4_6  and  O2_7 
REMARK    4  A    between atoms: C4_6  and  O3_9 
REMARK    5  A    between atoms: O3_9  and  C5_10 
REMARK    6  A    between atoms: C10_15  and  N1_16 
ROOT
HETATM    1  N1  LIG X 999      42.776 132.118  23.078  1.00  0.00    -0.073 NA
HETATM    2  N2  LIG X 999      42.667 131.139  23.816  1.00  0.00    -0.162 NA
HETATM    3  N3  LIG X 999      42.559 130.162  24.556  1.00  0.00     0.068 N 
ENDROOT
BRANCH   1   4
HETATM    4  C10 LIG X 999      43.007 131.993  21.667  1.00  0.00     0.094 A 
HETATM    5  C9  LIG X 999      44.188 131.423  21.157  1.00  0.00     0.046 A 
HETATM    6  C8  LIG X 999      44.382 131.316  19.771  1.00  0.00    -0.024 A 
HETATM    7  C7  LIG X 999      45.555 130.748  19.255  1.00  0.00     0.015 A 
HETATM    8  C13 LIG X 999      43.386 131.785  18.884  1.00  0.00    -0.023 A 
HETATM    9  C6  LIG X 999      45.739 130.649  17.874  1.00  0.00     0.038 A 
HETATM   10  C5  LIG X 999      44.763 131.113  16.986  1.00  0.00     0.073 A 
HETATM   11  C14 LIG X 999      43.580 131.679  17.498  1.00  0.00     0.049 A 
HETATM   12  C12 LIG X 999      42.211 132.352  19.401  1.00  0.00     0.014 A 
HETATM   13  C11 LIG X 999      42.027 132.454  20.782  1.00  0.00     0.035 A 
BRANCH  10  14
HETATM   14  O3  LIG X 999      45.011 130.989  15.608  1.00  0.00    -0.314 OA
BRANCH  14  15
HETATM   15  C4  LIG X 999      45.322 129.771  14.926  1.00  0.00     0.321 C 
BRANCH  15  16
HETATM   16  C1  LIG X 999      46.623 129.902  14.176  1.00  0.00     0.094 C 
HETATM   17  C2  LIG X 999      46.842 130.965  13.382  1.00  0.00     0.006 C 
HETATM   18  C3  LIG X 999      48.106 131.161  12.605  1.00  0.00     0.038 C 
BRANCH  16  19
HETATM   19  O1  LIG X 999      47.583 128.900  14.348  1.00  0.00    -0.360 OA
HETATM   20  H1  LIG X 999      47.573 128.025  13.839  1.00  0.00     0.217 HD
ENDBRANCH  16  19
ENDBRANCH  15  16
BRANCH  15  21
HETATM   21  O2  LIG X 999      45.426 128.741  15.873  1.00  0.00    -0.365 OA
HETATM   22  H7  LIG X 999      46.170 128.155  15.577  1.00  0.00     0.213 HD
ENDBRANCH  15  21
ENDBRANCH  14  15
ENDBRANCH  10  14
ENDBRANCH   1   4
TORSDOF 6
ENDMDL
MODEL 3
REMARK VINA RESULT:      -8.2      5.226      7.586
REMARK  6 active torsions:
REMARK  status: ('A' for Active; 'I' for Inactive)
REMARK    1  A    between atoms: O1_2  and  C1_3 
REMARK    2  A    between atoms: C1_3  and  C4_6 
REMARK    3  A    between atoms: C4_6  and  O2_7 
REMARK    4  A    between atoms: C4_6  and  O3_9 
REMARK    5  A    between atoms: O3_9  and  C5_10 
REMARK    6  A    between atoms: C10_15  and  N1_16 
ROOT
HETATM    1  N1  LIG X 999      45.181 130.974  14.164  1.00  0.00    -0.073 NA
HETATM    2  N2  LIG X 999      46.273 130.975  13.594  1.00  0.00    -0.162 NA
HETATM    3  N3  LIG X 999      47.362 130.975  13.023  1.00  0.00     0.068 N 
ENDROOT
BRANCH   1   4
HETATM    4  C10 LIG X 999      45.062 131.024  15.593  1.00  0.00     0.094 A 
HETATM    5  C9  LIG X 999      43.904 131.519  16.223  1.00  0.00     0.046 A 
HETATM    6  C8  LIG X 999      43.821 131.554  17.624  1.00  0.00    -0.024 A 
HETATM    7  C7  LIG X 999      42.671 132.044  18.259  1.00  0.00     0.015 A 
HETATM    8  C13 LIG X 999      44.905 131.090  18.405  1.00  0.00    -0.023 A 
HETATM    9  C6  LIG X 999      42.599 132.076  19.654  1.00  0.00     0.038 A 
HETATM   10  C5  LIG X 999      43.666 131.624  20.437  1.00  0.00     0.073 A 
HETATM   11  C14 LIG X 999      44.821 131.125  19.805  1.00  0.00     0.049 A 
HETATM   12  C12 LIG X 999      46.055 130.599  17.769  1.00  0.00     0.014 A 
HETATM   13  C11 LIG X 999      46.129 130.568  16.374  1.00  0.00     0.035 A 
BRANCH  10  14
HETATM   14  O3  LIG X 999      43.532 131.688  21.835  1.00  0.00    -0.314 OA
BRANCH  14  15
HETATM   15  C4  LIG X 999      42.896 130.706  22.655  1.00  0.00     0.321 C 
BRANCH  15  16
HETATM   16  C1  LIG X 999      43.921 129.915  23.428  1.00  0.00     0.094 C 
HETATM   17  C2  LIG X 999      44.115 128.613  23.155  1.00  0.00     0.006 C 
HETATM   18  C3  LIG X 999      45.112 127.765  23.881  1.00  0.00     0.038 C 
BRANCH  16  19
HETATM   19  O1  LIG X 999      44.660 130.582  24.409  1.00  0.00    -0.360 OA
HETATM   20  H1  LIG X 999      44.889 131.567  24.362  1.00  0.00     0.217 HD
ENDBRANCH  16  19
ENDBRANCH  15  16
BRANCH  15  21
HETATM   21  O2  LIG X 999      42.034 131.359  23.549  1.00  0.00    -0.365 OA
HETATM   22  H7  LIG X 999      41.614 130.655  24.109  1.00  0.00     0.213 HD
ENDBRANCH  15  21
ENDBRANCH  14  15
ENDBRANCH  10  14
ENDBRANCH   1   4
TORSDOF 6
ENDMDL
MODEL 4
REMARK VINA RESULT:      -8.1      5.187      7.735
REMARK  6 active torsions:
REMARK  status: ('A' for Active; 'I' for Inactive)
REMARK    1  A    between atoms: O1_2  and  C1_3 
REMARK    2  A    between atoms: C1_3  and  C4_6 
REMARK    3  A    between atoms: C4_6  and  O2_7 
REMARK    4  A    between atoms: C4_6  and  O3_9 
REMARK    5  A    between atoms: O3_9  and  C5_10 
REMARK    6  A    between atoms: C10_15  and  N1_16 
ROOT
HETATM    1  N1  LIG X 999      46.030 130.272  14.031  1.00  0.00    -0.073 NA
HETATM    2  N2  LIG X 999      47.186 129.865  13.913  1.00  0.00    -0.162 NA
HETATM    3  N3  LIG X 999      48.340 129.456  13.794  1.00  0.00     0.068 N 
ENDROOT
BRANCH   1   4
HETATM    4  C10 LIG X 999      45.473 130.647  15.298  1.00  0.00     0.094 A 
HETATM    5  C9  LIG X 999      46.113 130.329  16.512  1.00  0.00     0.046 A 
HETATM    6  C8  LIG X 999      45.541 130.711  17.735  1.00  0.00    -0.024 A 
HETATM    7  C7  LIG X 999      46.172 130.400  18.947  1.00  0.00     0.015 A 
HETATM    8  C13 LIG X 999      44.315 131.417  17.748  1.00  0.00    -0.023 A 
HETATM    9  C6  LIG X 999      45.593 130.783  20.160  1.00  0.00     0.038 A 
HETATM   10  C5  LIG X 999      44.379 131.478  20.186  1.00  0.00     0.073 A 
HETATM   11  C14 LIG X 999      43.743 131.799  18.971  1.00  0.00     0.049 A 
HETATM   12  C12 LIG X 999      43.685 131.730  16.534  1.00  0.00     0.014 A 
HETATM   13  C11 LIG X 999      44.262 131.346  15.321  1.00  0.00     0.035 A 
BRANCH  10  14
HETATM   14  O3  LIG X 999      43.847 131.830  21.438  1.00  0.00    -0.314 OA
BRANCH  14  15
HETATM   15  C4  LIG X 999      43.048 130.985  22.269  1.00  0.00     0.321 C 
BRANCH  15  16
HETATM   16  C1  LIG X 999      43.918 130.189  23.208  1.00  0.00     0.094 C 
HETATM   17  C2  LIG X 999      44.017 128.855  23.071  1.00  0.00     0.006 C 
HETATM   18  C3  LIG X 999      44.859 128.000  23.966  1.00  0.00     0.038 C 
BRANCH  16  19
HETATM   19  O1  LIG X 999      44.619 130.883  24.199  1.00  0.00    -0.360 OA
HETATM   20  H1  LIG X 999      45.054 130.432  24.994  1.00  0.00     0.217 HD
ENDBRANCH  16  19
ENDBRANCH  15  16
BRANCH  15  21
HETATM   21  O2  LIG X 999      42.168 131.788  23.010  1.00  0.00    -0.365 OA
HETATM   22  H7  LIG X 999      42.648 132.051  23.838  1.00  0.00     0.213 HD
ENDBRANCH  15  21
ENDBRANCH  14  15
ENDBRANCH  10  14
ENDBRANCH   1   4
TORSDOF 6
ENDMDL
MODEL 5
REMARK VINA RESULT:      -7.1      5.161      7.560
REMARK  6 active torsions:
REMARK  status: ('A' for Active; 'I' for Inactive)
REMARK    1  A    between atoms: O1_2  and  C1_3 
REMARK    2  A    between atoms: C1_3  and  C4_6 
REMARK    3  A    between atoms: C4_6  and  O2_7 
REMARK    4  A    between atoms: C4_6  and  O3_9 
REMARK    5  A    between atoms: O3_9  and  C5_10 
REMARK    6  A    between atoms: C10_15  and  N1_16 
ROOT
HETATM    1  N1  LIG X 999      45.162 131.333  15.509  1.00  0.00    -0.073 NA
HETATM    2  N2  LIG X 999      46.141 130.625  15.271  1.00  0.00    -0.162 NA
HETATM    3  N3  LIG X 999      47.118 129.917  15.031  1.00  0.00     0.068 N 
ENDROOT
BRANCH   1   4
HETATM    4  C10 LIG X 999      44.602 131.452  16.824  1.00  0.00     0.094 A 
HETATM    5  C9  LIG X 999      45.387 131.290  17.981  1.00  0.00     0.046 A 
HETATM    6  C8  LIG X 999      44.807 131.413  19.253  1.00  0.00    -0.024 A 
HETATM    7  C7  LIG X 999      45.582 131.254  20.410  1.00  0.00     0.015 A 
HETATM    8  C13 LIG X 999      43.427 131.700  19.372  1.00  0.00    -0.023 A 
HETATM    9  C6  LIG X 999      44.995 131.377  21.672  1.00  0.00     0.038 A 
HETATM   10  C5  LIG X 999      43.630 131.656  21.803  1.00  0.00     0.073 A 
HETATM   11  C14 LIG X 999      42.847 131.822  20.644  1.00  0.00     0.049 A 
HETATM   12  C12 LIG X 999      42.652 131.860  18.214  1.00  0.00     0.014 A 
HETATM   13  C11 LIG X 999      43.238 131.736  16.951  1.00  0.00     0.035 A 
BRANCH  10  14
HETATM   14  O3  LIG X 999      43.099 131.761  23.100  1.00  0.00    -0.314 OA
BRANCH  14  15
HETATM   15  C4  LIG X 999      43.313 130.831  24.164  1.00  0.00     0.321 C 
BRANCH  15  16
HETATM   16  C1  LIG X 999      43.037 129.423  23.700  1.00  0.00     0.094 C 
HETATM   17  C2  LIG X 999      44.016 128.501  23.722  1.00  0.00     0.006 C 
HETATM   18  C3  LIG X 999      43.817 127.086  23.276  1.00  0.00     0.038 C 
BRANCH  16  19
HETATM   19  O1  LIG X 999      41.744 129.116  23.269  1.00  0.00    -0.360 OA
HETATM   20  H1  LIG X 999      41.476 128.208  22.910  1.00  0.00     0.217 HD
ENDBRANCH  16  19
ENDBRANCH  15  16
BRANCH  15  21
HETATM   21  O2  LIG X 999      44.647 130.934  24.587  1.00  0.00    -0.365 OA
HETATM   22  H7  LIG X 999      44.716 130.433  25.442  1.00  0.00     0.213 HD
ENDBRANCH  15  21
ENDBRANCH  14  15
ENDBRANCH  10  14
ENDBRANCH   1   4
TORSDOF 6
ENDMDL
