MODEL 1
REMARK VINA RESULT:      -8.7      0.000      0.000
REMARK  1 active torsions:
REMARK  status: ('A' for Active; 'I' for Inactive)
REMARK    1  A    between atoms: C12_13  and  N2_14 
ROOT
HETATM    1  C1  LIG X 999      46.106 132.123  15.333  1.00  0.00     0.272 C 
HETATM    2  N1  LIG X 999      45.319 131.004  15.906  1.00  0.00    -0.067 N 
HETATM    3  C2  LIG X 999      45.148 129.958  14.871  1.00  0.00     0.272 C 
HETATM    4  C3  LIG X 999      46.018 130.450  17.107  1.00  0.00     0.276 C 
HETATM    5  C4  LIG X 999      45.202 130.866  18.267  1.00  0.00    -0.021 A 
HETATM    6  C5  LIG X 999      45.505 130.691  19.613  1.00  0.00     0.022 A 
HETATM    7  C6  LIG X 999      44.586 131.137  20.579  1.00  0.00    -0.023 A 
HETATM    8  C7  LIG X 999      44.873 130.964  21.941  1.00  0.00     0.012 A 
HETATM    9  C8  LIG X 999      43.964 131.385  22.910  1.00  0.00     0.001 A 
HETATM   10  C9  LIG X 999      42.759 131.974  22.531  1.00  0.00     0.001 A 
HETATM   11  C10 LIG X 999      42.453 132.156  21.180  1.00  0.00     0.014 A 
HETATM   12  C11 LIG X 999      43.361 131.755  20.176  1.00  0.00     0.001 A 
HETATM   13  C12 LIG X 999      43.091 131.925  18.784  1.00  0.00     0.045 A 
HETATM   14  C13 LIG X 999      44.044 131.457  17.865  1.00  0.00     0.003 A 
HETATM   15  C14 LIG X 999      43.990 131.501  16.381  1.00  0.00     0.278 C 
ENDROOT
BRANCH  13  16
HETATM   16  N2  LIG X 999      41.894 132.557  18.299  1.00  0.00    -0.398 N 
HETATM   17  H14 LIG X 999      41.946 133.419  17.711  1.00  0.00     0.156 HD
HETATM   18  H15 LIG X 999      40.938 132.246  18.568  1.00  0.00     0.156 HD
ENDBRANCH  13  16
TORSDOF 1
ENDMDL
MODEL 2
REMARK VINA RESULT:      -8.1      1.365      5.207
REMARK  1 active torsions:
REMARK  status: ('A' for Active; 'I' for Inactive)
REMARK    1  A    between atoms: C12_13  and  N2_14 
ROOT
HETATM    1  C1  LIG X 999      43.030 129.957  22.752  1.00  0.00     0.272 C 
HETATM    2  N1  LIG X 999      43.708 131.165  22.221  1.00  0.00    -0.067 N 
HETATM    3  C2  LIG X 999      43.955 132.107  23.337  1.00  0.00     0.272 C 
HETATM    4  C3  LIG X 999      44.995 130.779  21.562  1.00  0.00     0.276 C 
HETATM    5  C4  LIG X 999      44.769 130.966  20.112  1.00  0.00    -0.021 A 
HETATM    6  C5  LIG X 999      45.633 130.627  19.077  1.00  0.00     0.022 A 
HETATM    7  C6  LIG X 999      45.248 130.905  17.754  1.00  0.00    -0.023 A 
HETATM    8  C7  LIG X 999      46.110 130.575  16.697  1.00  0.00     0.012 A 
HETATM    9  C8  LIG X 999      45.750 130.861  15.381  1.00  0.00     0.001 A 
HETATM   10  C9  LIG X 999      44.534 131.484  15.107  1.00  0.00     0.001 A 
HETATM   11  C10 LIG X 999      43.660 131.821  16.145  1.00  0.00     0.014 A 
HETATM   12  C11 LIG X 999      43.990 131.530  17.487  1.00  0.00     0.001 A 
HETATM   13  C12 LIG X 999      43.126 131.854  18.576  1.00  0.00     0.045 A 
HETATM   14  C13 LIG X 999      43.565 131.555  19.877  1.00  0.00     0.003 A 
HETATM   15  C14 LIG X 999      42.865 131.805  21.163  1.00  0.00     0.278 C 
ENDROOT
BRANCH  13  16
HETATM   16  N2  LIG X 999      41.836 132.460  18.388  1.00  0.00    -0.398 N 
HETATM   17  H14 LIG X 999      41.102 132.394  19.128  1.00  0.00     0.156 HD
HETATM   18  H15 LIG X 999      41.547 132.914  17.498  1.00  0.00     0.156 HD
ENDBRANCH  13  16
TORSDOF 1
ENDMDL
MODEL 3
REMARK VINA RESULT:      -7.6      1.335      2.514
REMARK  1 active torsions:
REMARK  status: ('A' for Active; 'I' for Inactive)
REMARK    1  A    between atoms: C12_13  and  N2_14 
ROOT
HETATM    1  C1  LIG X 999      45.116 129.360  15.183  1.00  0.00     0.272 C 
HETATM    2  N1  LIG X 999      45.456 130.682  15.761  1.00  0.00    -0.067 N 
HETATM    3  C2  LIG X 999      46.340 131.407  14.819  1.00  0.00     0.272 C 
HETATM    4  C3  LIG X 999      44.206 131.464  16.020  1.00  0.00     0.276 C 
HETATM    5  C4  LIG X 999      44.055 131.495  17.490  1.00  0.00    -0.021 A 
HETATM    6  C5  LIG X 999      42.982 132.004  18.213  1.00  0.00     0.022 A 
HETATM    7  C6  LIG X 999      43.030 131.964  19.618  1.00  0.00    -0.023 A 
HETATM    8  C7  LIG X 999      41.959 132.477  20.364  1.00  0.00     0.012 A 
HETATM    9  C8  LIG X 999      42.001 132.462  21.757  1.00  0.00     0.001 A 
HETATM   10  C9  LIG X 999      43.112 131.941  22.418  1.00  0.00     0.001 A 
HETATM   11  C10 LIG X 999      44.190 131.424  21.695  1.00  0.00     0.014 A 
HETATM   12  C11 LIG X 999      44.170 131.412  20.283  1.00  0.00     0.001 A 
HETATM   13  C12 LIG X 999      45.247 130.891  19.505  1.00  0.00     0.045 A 
HETATM   14  C13 LIG X 999      45.144 130.960  18.106  1.00  0.00     0.003 A 
HETATM   15  C14 LIG X 999      46.126 130.506  17.088  1.00  0.00     0.278 C 
ENDROOT
BRANCH  13  16
HETATM   16  N2  LIG X 999      46.415 130.298  20.098  1.00  0.00    -0.398 N 
HETATM   17  H14 LIG X 999      46.533 129.261  20.124  1.00  0.00     0.156 HD
HETATM   18  H15 LIG X 999      47.145 130.853  20.590  1.00  0.00     0.156 HD
ENDBRANCH  13  16
TORSDOF 1
ENDMDL
MODEL 4
REMARK VINA RESULT:      -6.0      2.120      5.865
REMARK  1 active torsions:
REMARK  status: ('A' for Active; 'I' for Inactive)
REMARK    1  A    between atoms: C12_13  and  N2_14 
ROOT
HETATM    1  C1  LIG X 999      43.765 132.752  24.340  1.00  0.00     0.272 C 
HETATM    2  N1  LIG X 999      43.433 131.490  23.635  1.00  0.00    -0.067 N 
HETATM    3  C2  LIG X 999      42.951 130.498  24.625  1.00  0.00     0.272 C 
HETATM    4  C3  LIG X 999      42.390 131.746  22.594  1.00  0.00     0.276 C 
HETATM    5  C4  LIG X 999      43.087 131.621  21.296  1.00  0.00    -0.021 A 
HETATM    6  C5  LIG X 999      42.566 131.887  20.034  1.00  0.00     0.022 A 
HETATM    7  C6  LIG X 999      43.383 131.686  18.908  1.00  0.00    -0.023 A 
HETATM    8  C7  LIG X 999      42.873 131.944  17.626  1.00  0.00     0.012 A 
HETATM    9  C8  LIG X 999      43.664 131.732  16.499  1.00  0.00     0.001 A 
HETATM   10  C9  LIG X 999      44.967 131.256  16.636  1.00  0.00     0.001 A 
HETATM   11  C10 LIG X 999      45.495 130.993  17.903  1.00  0.00     0.014 A 
HETATM   12  C11 LIG X 999      44.723 131.213  19.065  1.00  0.00     0.001 A 
HETATM   13  C12 LIG X 999      45.224 130.960  20.378  1.00  0.00     0.045 A 
HETATM   14  C13 LIG X 999      44.362 131.176  21.466  1.00  0.00     0.003 A 
HETATM   15  C14 LIG X 999      44.637 130.974  22.911  1.00  0.00     0.278 C 
ENDROOT
BRANCH  13  16
HETATM   16  N2  LIG X 999      46.566 130.506  20.621  1.00  0.00    -0.398 N 
HETATM   17  H14 LIG X 999      47.384 131.027  20.234  1.00  0.00     0.156 HD
HETATM   18  H15 LIG X 999      46.783 129.615  21.113  1.00  0.00     0.156 HD
ENDBRANCH  13  16
TORSDOF 1
ENDMDL
