REMARK VINA RESULT:      -4.6      2.491      4.033
REMARK  6 active torsions:
REMARK  status: ('A' for Active; 'I' for Inactive)
REMARK    1  A    between atoms: C6_6  and  N1_7 
REMARK       I    between atoms: N1_7  and  C7_8 
REMARK    2  A    between atoms: C7_8  and  O2_10 
REMARK    3  A    between atoms: O2_10  and  C8_11 
REMARK    4  A    between atoms: C8_11  and  C10_13 
REMARK    5  A    between atoms: C10_13  and  O3_14 
REMARK    6  A    between atoms: C12_16  and  N2_17 
ROOT
HETATM    1  N2  LIG X 999      44.756 127.650  23.835  1.00  0.00    -0.070 NA
HETATM    2  N3  LIG X 999      45.466 127.021  23.049  1.00  0.00    -0.162 NA
HETATM    3  N4  LIG X 999      46.177 126.394  22.264  1.00  0.00     0.068 N 
ENDROOT
BRANCH   1   4
HETATM    4  C12 LIG X 999      43.328 127.499  23.874  1.00  0.00     0.122 A 
HETATM    5  C6  LIG X 999      42.531 128.628  24.132  1.00  0.00     0.095 A 
HETATM    6  C5  LIG X 999      41.133 128.494  24.205  1.00  0.00     0.046 A 
HETATM    7  C4  LIG X 999      40.525 127.251  23.978  1.00  0.00    -0.024 A 
HETATM    8  C3  LIG X 999      39.128 127.117  24.036  1.00  0.00     0.012 A 
HETATM    9  C14 LIG X 999      41.325 126.121  23.693  1.00  0.00    -0.024 A 
HETATM   10  C2  LIG X 999      38.532 125.874  23.809  1.00  0.00     0.001 A 
HETATM   11  C1  LIG X 999      39.322 124.757  23.525  1.00  0.00     0.001 A 
HETATM   12  C15 LIG X 999      40.714 124.876  23.466  1.00  0.00     0.012 A 
HETATM   13  C13 LIG X 999      42.720 126.250  23.648  1.00  0.00     0.049 A 
BRANCH   5  14
HETATM   14  N1  LIG X 999      43.171 129.892  24.372  1.00  0.00    -0.185 NA
HETATM   15  C7  LIG X 999      43.126 131.030  23.506  1.00  0.00     0.387 C 
HETATM   16  O1  LIG X 999      43.518 132.145  23.942  1.00  0.00    -0.236 OA
BRANCH  15  17
HETATM   17  O2  LIG X 999      42.690 130.897  22.183  1.00  0.00    -0.295 OA
BRANCH  17  18
HETATM   18  C8  LIG X 999      43.478 131.254  21.047  1.00  0.00     0.153 C 
HETATM   19  C9  LIG X 999      42.758 132.333  20.230  1.00  0.00     0.042 C 
BRANCH  18  20
HETATM   20  C10 LIG X 999      44.842 131.753  21.538  1.00  0.00     0.199 C 
BRANCH  20  21
HETATM   21  O3  LIG X 999      45.825 131.495  20.557  1.00  0.00    -0.393 OA
HETATM   22  C11 LIG X 999      45.839 130.117  20.261  1.00  0.00     0.201 C 
ENDBRANCH  20  21
ENDBRANCH  18  20
ENDBRANCH  17  18
ENDBRANCH  15  17
ENDBRANCH   5  14
ENDBRANCH   1   4
TORSDOF 6
