REMARK VINA RESULT:      -8.0      1.405      2.927
REMARK  1 active torsions:
REMARK  status: ('A' for Active; 'I' for Inactive)
REMARK    1  A    between atoms: C2_2  and  N1_3 
ROOT
HETATM    1  N1  LIG X 999      44.332 131.548  15.151  1.00  0.00    -0.073 NA
HETATM    2  N2  LIG X 999      45.184 131.273  14.304  1.00  0.00    -0.162 NA
HETATM    3  N3  LIG X 999      46.034 131.000  13.457  1.00  0.00     0.068 N 
ENDROOT
BRANCH   1   4
HETATM    4  C2  LIG X 999      44.557 131.358  16.555  1.00  0.00     0.094 A 
HETATM    5  C1  LIG X 999      45.756 130.765  16.969  1.00  0.00     0.035 A 
HETATM    6  C10 LIG X 999      46.019 130.560  18.327  1.00  0.00     0.014 A 
HETATM    7  C9  LIG X 999      45.080 130.945  19.293  1.00  0.00    -0.025 A 
HETATM    8  C4  LIG X 999      43.857 131.549  18.882  1.00  0.00    -0.023 A 
HETATM    9  C8  LIG X 999      45.337 130.744  20.663  1.00  0.00     0.021 A 
HETATM   10  C3  LIG X 999      43.606 131.750  17.517  1.00  0.00     0.046 A 
HETATM   11  C5  LIG X 999      42.912 131.941  19.850  1.00  0.00     0.021 A 
HETATM   12  C6  LIG X 999      43.201 131.718  21.197  1.00  0.00    -0.024 A 
HETATM   13  C7  LIG X 999      44.371 131.141  21.589  1.00  0.00    -0.024 A 
HETATM   14  C14 LIG X 999      42.375 132.065  22.373  1.00  0.00     0.276 C 
HETATM   15  C11 LIG X 999      44.436 131.048  23.064  1.00  0.00     0.276 C 
HETATM   16  N4  LIG X 999      43.093 131.490  23.555  1.00  0.00    -0.067 N 
HETATM   17  C12 LIG X 999      42.340 130.329  24.088  1.00  0.00     0.272 C 
HETATM   18  C13 LIG X 999      43.234 132.504  24.625  1.00  0.00     0.272 C 
ENDBRANCH   1   4
TORSDOF 1
