REMARK VINA RESULT:      -6.4      3.606      6.064
REMARK  3 active torsions:
REMARK  status: ('A' for Active; 'I' for Inactive)
REMARK    1  A    between atoms: C3_3  and  O1_4 
REMARK    2  A    between atoms: O1_4  and  C4_5 
REMARK    3  A    between atoms: C5_7  and  C6_8 
ROOT
HETATM    1  C1  LIG X 999      45.180 127.473  22.486  1.00  0.00     0.014 C 
HETATM    2  C2  LIG X 999      44.521 128.202  23.185  1.00  0.00    -0.091 C 
HETATM    3  C3  LIG X 999      43.723 129.087  24.033  1.00  0.00     0.270 C 
ENDROOT
BRANCH   3   4
HETATM    4  O1  LIG X 999      44.012 130.439  23.702  1.00  0.00    -0.317 OA
BRANCH   4   5
HETATM    5  C4  LIG X 999      43.018 131.351  23.338  1.00  0.00     0.217 C 
HETATM    6  O2  LIG X 999      42.054 131.740  24.265  1.00  0.00    -0.164 OA
HETATM    7  C5  LIG X 999      42.963 131.843  22.097  1.00  0.00     0.079 C 
BRANCH   7   8
HETATM    8  C6  LIG X 999      43.947 131.500  21.041  1.00  0.00    -0.020 A 
HETATM    9  C7  LIG X 999      45.243 131.099  21.416  1.00  0.00     0.012 A 
HETATM   10  C8  LIG X 999      46.210 130.814  20.453  1.00  0.00     0.002 A 
HETATM   11  C9  LIG X 999      45.911 130.935  19.098  1.00  0.00     0.012 A 
HETATM   12  C10 LIG X 999      44.634 131.343  18.691  1.00  0.00    -0.025 A 
HETATM   13  C11 LIG X 999      44.340 131.465  17.324  1.00  0.00     0.012 A 
HETATM   14  C15 LIG X 999      43.635 131.632  19.662  1.00  0.00    -0.015 A 
HETATM   15  C12 LIG X 999      43.067 131.860  16.909  1.00  0.00     0.001 A 
HETATM   16  C13 LIG X 999      42.078 132.133  17.852  1.00  0.00     0.001 A 
HETATM   17  C14 LIG X 999      42.353 132.019  19.217  1.00  0.00     0.013 A 
ENDBRANCH   7   8
ENDBRANCH   4   5
ENDBRANCH   3   4
TORSDOF 3
