REMARK VINA RESULT:      -7.7      2.504      6.391
REMARK  2 active torsions:
REMARK  status: ('A' for Active; 'I' for Inactive)
REMARK    1  A    between atoms: O1_2  and  C2_3 
REMARK    2  A    between atoms: C11_12  and  N1_13 
ROOT
HETATM    1  C2  LIG X 999      44.079 131.090  22.638  1.00  0.00     0.095 A 
HETATM    2  C3  LIG X 999      44.998 130.680  21.651  1.00  0.00     0.051 A 
HETATM    3  C4  LIG X 999      44.746 130.928  20.295  1.00  0.00    -0.023 A 
HETATM    4  C5  LIG X 999      45.663 130.516  19.308  1.00  0.00     0.021 A 
HETATM    5  C6  LIG X 999      45.374 130.789  17.971  1.00  0.00    -0.024 A 
HETATM    6  C7  LIG X 999      44.231 131.432  17.605  1.00  0.00    -0.024 A 
HETATM    7  C8  LIG X 999      43.294 131.849  18.551  1.00  0.00     0.021 A 
HETATM    8  C9  LIG X 999      43.553 131.600  19.913  1.00  0.00    -0.023 A 
HETATM    9  C10 LIG X 999      42.642 132.005  20.897  1.00  0.00     0.044 A 
HETATM   10  C11 LIG X 999      42.898 131.755  22.253  1.00  0.00     0.060 A 
HETATM   11  C12 LIG X 999      44.158 131.565  16.135  1.00  0.00     0.276 C 
HETATM   12  N2  LIG X 999      45.475 131.072  15.618  1.00  0.00    -0.067 N 
HETATM   13  C13 LIG X 999      45.275 130.094  14.525  1.00  0.00     0.272 C 
HETATM   14  C14 LIG X 999      46.277 132.209  15.108  1.00  0.00     0.272 C 
HETATM   15  C15 LIG X 999      46.173 130.432  16.779  1.00  0.00     0.276 C 
ENDROOT
BRANCH  10  16
HETATM   16  N1  LIG X 999      41.949 132.182  23.237  1.00  0.00    -0.397 N 
HETATM   17  H8  LIG X 999      41.532 133.138  23.214  1.00  0.00     0.156 HD
HETATM   18  H9  LIG X 999      41.654 131.540  24.006  1.00  0.00     0.156 HD
ENDBRANCH  10  16
BRANCH   1  19
HETATM   19  O1  LIG X 999      44.308 130.854  24.004  1.00  0.00    -0.354 OA
HETATM   20  C1  LIG X 999      44.252 129.574  24.624  1.00  0.00     0.210 C 
ENDBRANCH   1  19
TORSDOF 2
