REMARK VINA RESULT:      -1.7      2.955      5.370
REMARK  3 active torsions:
REMARK  status: ('A' for Active; 'I' for Inactive)
REMARK    1  A    between atoms: C3_3  and  S1_4 
REMARK    2  A    between atoms: S1_4  and  C4_7 
REMARK    3  A    between atoms: C6_9  and  N1_10 
ROOT
HETATM    1  C1  LIG X 999      45.729 130.342  20.802  1.00  0.00     0.013 C 
HETATM    2  C2  LIG X 999      44.956 130.032  21.674  1.00  0.00    -0.102 C 
HETATM    3  C3  LIG X 999      44.019 129.658  22.736  1.00  0.00     0.233 C 
ENDROOT
BRANCH   3   4
HETATM    4  S1  LIG X 999      44.411 128.035  23.373  1.00  0.00     0.160 S 
HETATM    5  O1  LIG X 999      45.871 128.011  23.728  1.00  0.00    -0.227 OA
HETATM    6  O2  LIG X 999      43.607 127.823  24.625  1.00  0.00    -0.227 OA
BRANCH   4   7
HETATM    7  C4  LIG X 999      44.023 126.718  22.186  1.00  0.00     0.123 C 
HETATM    8  C5  LIG X 999      42.590 126.187  22.377  1.00  0.00     0.055 C 
HETATM    9  C6  LIG X 999      42.410 125.442  23.716  1.00  0.00     0.170 C 
HETATM   10  C7  LIG X 999      43.596 124.591  24.107  1.00  0.00     0.011 C 
HETATM   11  C8  LIG X 999      44.804 124.707  23.532  1.00  0.00    -0.050 C 
HETATM   12  C9  LIG X 999      45.973 124.015  24.123  1.00  0.00     0.017 C 
HETATM   13  C13 LIG X 999      44.991 125.517  22.249  1.00  0.00     0.060 C 
HETATM   14  C10 LIG X 999      47.190 124.348  23.698  1.00  0.00    -0.024 C 
HETATM   15  C11 LIG X 999      47.419 125.320  22.674  1.00  0.00    -0.027 C 
HETATM   16  C17 LIG X 999      48.492 123.841  24.188  1.00  0.00     0.276 C 
HETATM   17  C12 LIG X 999      46.432 125.915  21.999  1.00  0.00    -0.007 C 
HETATM   18  C14 LIG X 999      48.876 125.494  22.478  1.00  0.00     0.275 C 
HETATM   19  N4  LIG X 999      49.532 124.741  23.595  1.00  0.00    -0.067 N 
HETATM   20  C15 LIG X 999      50.018 125.693  24.624  1.00  0.00     0.272 C 
HETATM   21  C16 LIG X 999      50.680 123.952  23.091  1.00  0.00     0.272 C 
BRANCH   9  22
HETATM   22  N1  LIG X 999      41.220 124.600  23.646  1.00  0.00    -0.106 NA
HETATM   23  N2  LIG X 999      40.147 124.972  24.121  1.00  0.00    -0.167 NA
HETATM   24  N3  LIG X 999      39.075 125.342  24.597  1.00  0.00     0.068 N 
ENDBRANCH   9  22
ENDBRANCH   4   7
ENDBRANCH   3   4
TORSDOF 3
