REMARK VINA RESULT:      -4.6      4.893      6.739
REMARK  3 active torsions:
REMARK  status: ('A' for Active; 'I' for Inactive)
REMARK       I    between atoms: N1_2  and  C3_4 
REMARK    1  A    between atoms: C3_4  and  O2_6 
REMARK    2  A    between atoms: O2_6  and  C4_7 
REMARK    3  A    between atoms: C7_10  and  N2_11 
ROOT
HETATM    1  C4  LIG X 999      43.499 128.990  23.295  1.00  0.00     0.092 A 
HETATM    2  C5  LIG X 999      42.260 129.139  23.934  1.00  0.00     0.040 A 
HETATM    3  C6  LIG X 999      41.529 128.026  24.334  1.00  0.00     0.033 A 
HETATM    4  C7  LIG X 999      42.012 126.728  24.122  1.00  0.00     0.037 A 
HETATM    5  C8  LIG X 999      43.287 126.550  23.518  1.00  0.00     0.003 A 
HETATM    6  C9  LIG X 999      43.860 125.272  23.335  1.00  0.00     0.014 A 
HETATM    7  C10 LIG X 999      45.112 125.131  22.733  1.00  0.00     0.001 A 
HETATM    8  C11 LIG X 999      45.820 126.254  22.312  1.00  0.00     0.001 A 
HETATM    9  C12 LIG X 999      45.286 127.528  22.495  1.00  0.00     0.015 A 
HETATM   10  C13 LIG X 999      44.026 127.696  23.102  1.00  0.00     0.010 A 
ENDROOT
BRANCH   1  11
HETATM   11  O2  LIG X 999      44.247 130.108  22.888  1.00  0.00    -0.261 OA
BRANCH  11  12
HETATM   12  C3  LIG X 999      43.846 131.051  21.930  1.00  0.00     0.367 C 
HETATM   13  N1  LIG X 999      44.599 131.193  20.715  1.00  0.00    -0.336 N 
HETATM   14  C1  LIG X 999      44.176 132.164  19.702  1.00  0.00     0.154 C 
HETATM   15  C2  LIG X 999      45.789 130.363  20.509  1.00  0.00     0.154 C 
HETATM   16  O1  LIG X 999      42.802 131.737  22.108  1.00  0.00    -0.238 OA
ENDBRANCH  11  12
ENDBRANCH   1  11
BRANCH   4  17
HETATM   17  N2  LIG X 999      41.184 125.625  24.523  1.00  0.00    -0.398 N 
HETATM   18  H9  LIG X 999      40.636 125.676  25.411  1.00  0.00     0.156 HD
HETATM   19  H10 LIG X 999      41.003 124.796  23.919  1.00  0.00     0.156 HD
ENDBRANCH   4  17
TORSDOF 3
