MODEL 1
REMARK VINA RESULT:      -8.7      0.000      0.000
REMARK  4 active torsions:
REMARK  status: ('A' for Active; 'I' for Inactive)
REMARK    1  A    between atoms: C3_3  and  O1_4 
REMARK    2  A    between atoms: O1_4  and  C4_5 
REMARK    3  A    between atoms: C4_5  and  O2_6 
REMARK    4  A    between atoms: C5_8  and  C6_9 
ROOT
HETATM    1  C1  LIG X 999      47.628 131.004  13.001  1.00  0.00     0.014 C 
HETATM    2  C2  LIG X 999      46.990 130.446  13.858  1.00  0.00    -0.091 C 
HETATM    3  C3  LIG X 999      46.215 129.770  14.898  1.00  0.00     0.270 C 
ENDROOT
BRANCH   3   4
HETATM    4  O1  LIG X 999      45.779 130.727  15.853  1.00  0.00    -0.319 OA
BRANCH   4   5
HETATM    5  C4  LIG X 999      44.529 131.349  15.773  1.00  0.00     0.179 C 
HETATM    6  C5  LIG X 999      43.869 131.686  16.890  1.00  0.00     0.075 C 
BRANCH   5   7
HETATM    7  O2  LIG X 999      43.978 131.637  14.523  1.00  0.00    -0.341 OA
HETATM    8  H4  LIG X 999      44.476 132.179  13.827  1.00  0.00     0.220 HD
ENDBRANCH   5   7
BRANCH   6   9
HETATM    9  C6  LIG X 999      44.382 131.402  18.253  1.00  0.00    -0.021 A 
HETATM   10  C7  LIG X 999      45.604 130.721  18.398  1.00  0.00     0.012 A 
HETATM   11  C8  LIG X 999      46.096 130.395  19.662  1.00  0.00     0.002 A 
HETATM   12  C9  LIG X 999      45.372 130.728  20.805  1.00  0.00     0.012 A 
HETATM   13  C10 LIG X 999      44.146 131.395  20.695  1.00  0.00    -0.025 A 
HETATM   14  C11 LIG X 999      43.421 131.725  21.852  1.00  0.00     0.012 A 
HETATM   15  C15 LIG X 999      43.635 131.740  19.413  1.00  0.00    -0.015 A 
HETATM   16  C12 LIG X 999      42.205 132.400  21.752  1.00  0.00     0.001 A 
HETATM   17  C13 LIG X 999      41.701 132.753  20.500  1.00  0.00     0.001 A 
HETATM   18  C14 LIG X 999      42.407 132.432  19.339  1.00  0.00     0.013 A 
ENDBRANCH   6   9
ENDBRANCH   4   5
ENDBRANCH   3   4
TORSDOF 4
ENDMDL
MODEL 2
REMARK VINA RESULT:      -8.7      1.051      2.547
REMARK  4 active torsions:
REMARK  status: ('A' for Active; 'I' for Inactive)
REMARK    1  A    between atoms: C3_3  and  O1_4 
REMARK    2  A    between atoms: O1_4  and  C4_5 
REMARK    3  A    between atoms: C4_5  and  O2_6 
REMARK    4  A    between atoms: C5_8  and  C6_9 
ROOT
HETATM    1  C1  LIG X 999      47.055 130.980  13.349  1.00  0.00     0.014 C 
HETATM    2  C2  LIG X 999      46.024 130.977  13.972  1.00  0.00    -0.091 C 
HETATM    3  C3  LIG X 999      44.771 130.973  14.729  1.00  0.00     0.270 C 
ENDROOT
BRANCH   3   4
HETATM    4  O1  LIG X 999      44.902 130.102  15.844  1.00  0.00    -0.319 OA
BRANCH   4   5
HETATM    5  C4  LIG X 999      45.968 130.192  16.744  1.00  0.00     0.179 C 
HETATM    6  C5  LIG X 999      45.776 130.702  17.969  1.00  0.00     0.075 C 
BRANCH   5   7
HETATM    7  O2  LIG X 999      47.231 129.730  16.370  1.00  0.00    -0.341 OA
HETATM    8  H4  LIG X 999      47.367 129.129  15.565  1.00  0.00     0.220 HD
ENDBRANCH   5   7
BRANCH   6   9
HETATM    9  C6  LIG X 999      44.469 131.226  18.436  1.00  0.00    -0.021 A 
HETATM   10  C7  LIG X 999      43.537 131.685  17.488  1.00  0.00     0.012 A 
HETATM   11  C8  LIG X 999      42.316 132.227  17.890  1.00  0.00     0.002 A 
HETATM   12  C9  LIG X 999      42.007 132.335  19.244  1.00  0.00     0.012 A 
HETATM   13  C10 LIG X 999      42.918 131.898  20.214  1.00  0.00    -0.025 A 
HETATM   14  C11 LIG X 999      42.600 132.013  21.577  1.00  0.00     0.012 A 
HETATM   15  C15 LIG X 999      44.164 131.337  19.818  1.00  0.00    -0.015 A 
HETATM   16  C12 LIG X 999      43.497 131.570  22.548  1.00  0.00     0.001 A 
HETATM   17  C13 LIG X 999      44.716 131.007  22.171  1.00  0.00     0.001 A 
HETATM   18  C14 LIG X 999      45.050 130.887  20.820  1.00  0.00     0.013 A 
ENDBRANCH   6   9
ENDBRANCH   4   5
ENDBRANCH   3   4
TORSDOF 4
ENDMDL
MODEL 3
REMARK VINA RESULT:      -8.5      1.866      6.521
REMARK  4 active torsions:
REMARK  status: ('A' for Active; 'I' for Inactive)
REMARK    1  A    between atoms: C3_3  and  O1_4 
REMARK    2  A    between atoms: O1_4  and  C4_5 
REMARK    3  A    between atoms: C4_5  and  O2_6 
REMARK    4  A    between atoms: C5_8  and  C6_9 
ROOT
HETATM    1  C1  LIG X 999      41.743 132.424  19.069  1.00  0.00     0.014 C 
HETATM    2  C2  LIG X 999      42.830 132.295  19.576  1.00  0.00    -0.091 C 
HETATM    3  C3  LIG X 999      44.148 132.139  20.190  1.00  0.00     0.270 C 
ENDROOT
BRANCH   3   4
HETATM    4  O1  LIG X 999      45.094 131.800  19.186  1.00  0.00    -0.319 OA
BRANCH   4   5
HETATM    5  C4  LIG X 999      45.671 130.530  19.098  1.00  0.00     0.179 C 
HETATM    6  C5  LIG X 999      45.837 129.943  17.905  1.00  0.00     0.075 C 
BRANCH   5   7
HETATM    7  O2  LIG X 999      46.094 129.881  20.260  1.00  0.00    -0.341 OA
HETATM    8  H4  LIG X 999      45.632 129.050  20.611  1.00  0.00     0.220 HD
ENDBRANCH   5   7
BRANCH   6   9
HETATM    9  C6  LIG X 999      45.401 130.562  16.628  1.00  0.00    -0.021 A 
HETATM   10  C7  LIG X 999      44.155 131.212  16.572  1.00  0.00     0.012 A 
HETATM   11  C8  LIG X 999      43.690 131.765  15.379  1.00  0.00     0.002 A 
HETATM   12  C9  LIG X 999      44.451 131.668  14.216  1.00  0.00     0.012 A 
HETATM   13  C10 LIG X 999      45.691 131.016  14.235  1.00  0.00    -0.025 A 
HETATM   14  C11 LIG X 999      46.451 130.921  13.058  1.00  0.00     0.012 A 
HETATM   15  C15 LIG X 999      46.180 130.453  15.446  1.00  0.00    -0.015 A 
HETATM   16  C12 LIG X 999      47.691 130.283  13.071  1.00  0.00     0.001 A 
HETATM   17  C13 LIG X 999      48.186 129.738  14.256  1.00  0.00     0.001 A 
HETATM   18  C14 LIG X 999      47.443 129.822  15.436  1.00  0.00     0.013 A 
ENDBRANCH   6   9
ENDBRANCH   4   5
ENDBRANCH   3   4
TORSDOF 4
ENDMDL
MODEL 4
REMARK VINA RESULT:      -7.3      1.375      2.968
REMARK  4 active torsions:
REMARK  status: ('A' for Active; 'I' for Inactive)
REMARK    1  A    between atoms: C3_3  and  O1_4 
REMARK    2  A    between atoms: O1_4  and  C4_5 
REMARK    3  A    between atoms: C4_5  and  O2_6 
REMARK    4  A    between atoms: C5_8  and  C6_9 
ROOT
HETATM    1  C1  LIG X 999      46.238 130.921  13.811  1.00  0.00     0.014 C 
HETATM    2  C2  LIG X 999      45.464 131.160  14.703  1.00  0.00    -0.091 C 
HETATM    3  C3  LIG X 999      44.524 131.449  15.787  1.00  0.00     0.270 C 
ENDROOT
BRANCH   3   4
HETATM    4  O1  LIG X 999      44.670 130.470  16.805  1.00  0.00    -0.319 OA
BRANCH   4   5
HETATM    5  C4  LIG X 999      45.853 130.316  17.533  1.00  0.00     0.179 C 
HETATM    6  C5  LIG X 999      45.879 130.587  18.846  1.00  0.00     0.075 C 
BRANCH   5   7
HETATM    7  O2  LIG X 999      47.006 129.859  16.892  1.00  0.00    -0.341 OA
HETATM    8  H4  LIG X 999      47.909 129.845  17.352  1.00  0.00     0.220 HD
ENDBRANCH   5   7
BRANCH   6   9
HETATM    9  C6  LIG X 999      44.701 131.090  19.595  1.00  0.00    -0.021 A 
HETATM   10  C7  LIG X 999      43.931 132.130  19.045  1.00  0.00     0.012 A 
HETATM   11  C8  LIG X 999      42.844 132.661  19.740  1.00  0.00     0.002 A 
HETATM   12  C9  LIG X 999      42.513 132.174  21.002  1.00  0.00     0.012 A 
HETATM   13  C10 LIG X 999      43.266 131.147  21.584  1.00  0.00    -0.025 A 
HETATM   14  C11 LIG X 999      42.927 130.663  22.858  1.00  0.00     0.012 A 
HETATM   15  C15 LIG X 999      44.373 130.592  20.884  1.00  0.00    -0.015 A 
HETATM   16  C12 LIG X 999      43.665 129.633  23.440  1.00  0.00     0.001 A 
HETATM   17  C13 LIG X 999      44.745 129.074  22.757  1.00  0.00     0.001 A 
HETATM   18  C14 LIG X 999      45.098 129.542  21.490  1.00  0.00     0.013 A 
ENDBRANCH   6   9
ENDBRANCH   4   5
ENDBRANCH   3   4
TORSDOF 4
ENDMDL
MODEL 5
REMARK VINA RESULT:      -7.2      3.433      6.924
REMARK  4 active torsions:
REMARK  status: ('A' for Active; 'I' for Inactive)
REMARK    1  A    between atoms: C3_3  and  O1_4 
REMARK    2  A    between atoms: O1_4  and  C4_5 
REMARK    3  A    between atoms: C4_5  and  O2_6 
REMARK    4  A    between atoms: C5_8  and  C6_9 
ROOT
HETATM    1  C1  LIG X 999      41.000 127.027  23.853  1.00  0.00     0.014 C 
HETATM    2  C2  LIG X 999      41.449 128.145  23.887  1.00  0.00    -0.091 C 
HETATM    3  C3  LIG X 999      41.994 129.502  23.928  1.00  0.00     0.270 C 
ENDROOT
BRANCH   3   4
HETATM    4  O1  LIG X 999      42.824 129.706  22.793  1.00  0.00    -0.319 OA
BRANCH   4   5
HETATM    5  C4  LIG X 999      44.129 130.196  22.897  1.00  0.00     0.179 C 
HETATM    6  C5  LIG X 999      44.590 131.086  22.007  1.00  0.00     0.075 C 
BRANCH   5   7
HETATM    7  O2  LIG X 999      44.946 129.770  23.946  1.00  0.00    -0.341 OA
HETATM    8  H4  LIG X 999      44.949 130.232  24.849  1.00  0.00     0.220 HD
ENDBRANCH   5   7
BRANCH   6   9
HETATM    9  C6  LIG X 999      43.788 131.576  20.858  1.00  0.00    -0.021 A 
HETATM   10  C7  LIG X 999      42.556 132.209  21.102  1.00  0.00     0.012 A 
HETATM   11  C8  LIG X 999      41.753 132.641  20.048  1.00  0.00     0.002 A 
HETATM   12  C9  LIG X 999      42.155 132.439  18.730  1.00  0.00     0.012 A 
HETATM   13  C10 LIG X 999      43.371 131.801  18.452  1.00  0.00    -0.025 A 
HETATM   14  C11 LIG X 999      43.768 131.599  17.120  1.00  0.00     0.012 A 
HETATM   15  C15 LIG X 999      44.203 131.360  19.518  1.00  0.00    -0.015 A 
HETATM   16  C12 LIG X 999      44.982 130.975  16.835  1.00  0.00     0.001 A 
HETATM   17  C13 LIG X 999      45.812 130.550  17.872  1.00  0.00     0.001 A 
HETATM   18  C14 LIG X 999      45.432 130.741  19.203  1.00  0.00     0.013 A 
ENDBRANCH   6   9
ENDBRANCH   4   5
ENDBRANCH   3   4
TORSDOF 4
ENDMDL
MODEL 6
REMARK VINA RESULT:      -6.9      2.457      5.808
REMARK  4 active torsions:
REMARK  status: ('A' for Active; 'I' for Inactive)
REMARK    1  A    between atoms: C3_3  and  O1_4 
REMARK    2  A    between atoms: O1_4  and  C4_5 
REMARK    3  A    between atoms: C4_5  and  O2_6 
REMARK    4  A    between atoms: C5_8  and  C6_9 
ROOT
HETATM    1  C1  LIG X 999      44.587 129.479  22.667  1.00  0.00     0.014 C 
HETATM    2  C2  LIG X 999      43.806 130.368  22.435  1.00  0.00    -0.091 C 
HETATM    3  C3  LIG X 999      42.859 131.447  22.153  1.00  0.00     0.270 C 
ENDROOT
BRANCH   3   4
HETATM    4  O1  LIG X 999      43.293 132.161  21.004  1.00  0.00    -0.319 OA
BRANCH   4   5
HETATM    5  C4  LIG X 999      42.421 132.528  19.976  1.00  0.00     0.179 C 
HETATM    6  C5  LIG X 999      42.706 132.217  18.704  1.00  0.00     0.075 C 
BRANCH   5   7
HETATM    7  O2  LIG X 999      41.238 133.205  20.281  1.00  0.00    -0.341 OA
HETATM    8  H4  LIG X 999      41.238 134.143  20.665  1.00  0.00     0.220 HD
ENDBRANCH   5   7
BRANCH   6   9
HETATM    9  C6  LIG X 999      43.948 131.513  18.299  1.00  0.00    -0.021 A 
HETATM   10  C7  LIG X 999      44.835 131.062  19.292  1.00  0.00     0.012 A 
HETATM   11  C8  LIG X 999      46.034 130.437  18.950  1.00  0.00     0.002 A 
HETATM   12  C9  LIG X 999      46.379 130.262  17.612  1.00  0.00     0.012 A 
HETATM   13  C10 LIG X 999      45.522 130.710  16.597  1.00  0.00    -0.025 A 
HETATM   14  C11 LIG X 999      45.877 130.532  15.251  1.00  0.00     0.012 A 
HETATM   15  C15 LIG X 999      44.293 131.343  16.932  1.00  0.00    -0.015 A 
HETATM   16  C12 LIG X 999      45.025 130.965  14.235  1.00  0.00     0.001 A 
HETATM   17  C13 LIG X 999      43.812 131.576  14.551  1.00  0.00     0.001 A 
HETATM   18  C14 LIG X 999      43.443 131.763  15.886  1.00  0.00     0.013 A 
ENDBRANCH   6   9
ENDBRANCH   4   5
ENDBRANCH   3   4
TORSDOF 4
ENDMDL
MODEL 7
REMARK VINA RESULT:      -6.9      1.332      1.924
REMARK  4 active torsions:
REMARK  status: ('A' for Active; 'I' for Inactive)
REMARK    1  A    between atoms: C3_3  and  O1_4 
REMARK    2  A    between atoms: O1_4  and  C4_5 
REMARK    3  A    between atoms: C4_5  and  O2_6 
REMARK    4  A    between atoms: C5_8  and  C6_9 
ROOT
HETATM    1  C1  LIG X 999      47.664 131.008  13.056  1.00  0.00     0.014 C 
HETATM    2  C2  LIG X 999      46.970 131.474  13.925  1.00  0.00    -0.091 C 
HETATM    3  C3  LIG X 999      46.129 132.039  14.981  1.00  0.00     0.270 C 
ENDROOT
BRANCH   3   4
HETATM    4  O1  LIG X 999      46.392 131.360  16.201  1.00  0.00    -0.319 OA
BRANCH   4   5
HETATM    5  C4  LIG X 999      46.053 130.018  16.400  1.00  0.00     0.179 C 
HETATM    6  C5  LIG X 999      45.548 129.616  17.575  1.00  0.00     0.075 C 
BRANCH   5   7
HETATM    7  O2  LIG X 999      46.223 129.100  15.363  1.00  0.00    -0.341 OA
HETATM    8  H4  LIG X 999      47.023 129.132  14.741  1.00  0.00     0.220 HD
ENDBRANCH   5   7
BRANCH   6   9
HETATM    9  C6  LIG X 999      45.351 130.528  18.729  1.00  0.00    -0.021 A 
HETATM   10  C7  LIG X 999      46.346 130.605  19.719  1.00  0.00     0.012 A 
HETATM   11  C8  LIG X 999      46.177 131.415  20.842  1.00  0.00     0.002 A 
HETATM   12  C9  LIG X 999      45.007 132.152  21.007  1.00  0.00     0.012 A 
HETATM   13  C10 LIG X 999      43.990 132.089  20.045  1.00  0.00    -0.025 A 
HETATM   14  C11 LIG X 999      42.813 132.834  20.219  1.00  0.00     0.012 A 
HETATM   15  C15 LIG X 999      44.152 131.272  18.892  1.00  0.00    -0.015 A 
HETATM   16  C12 LIG X 999      41.801 132.785  19.261  1.00  0.00     0.001 A 
HETATM   17  C13 LIG X 999      41.954 131.997  18.120  1.00  0.00     0.001 A 
HETATM   18  C14 LIG X 999      43.118 131.248  17.931  1.00  0.00     0.013 A 
ENDBRANCH   6   9
ENDBRANCH   4   5
ENDBRANCH   3   4
TORSDOF 4
ENDMDL
MODEL 8
REMARK VINA RESULT:      -6.7      3.677      5.999
REMARK  4 active torsions:
REMARK  status: ('A' for Active; 'I' for Inactive)
REMARK    1  A    between atoms: C3_3  and  O1_4 
REMARK    2  A    between atoms: O1_4  and  C4_5 
REMARK    3  A    between atoms: C4_5  and  O2_6 
REMARK    4  A    between atoms: C5_8  and  C6_9 
ROOT
HETATM    1  C1  LIG X 999      45.412 127.364  22.311  1.00  0.00     0.014 C 
HETATM    2  C2  LIG X 999      44.557 127.894  22.975  1.00  0.00    -0.091 C 
HETATM    3  C3  LIG X 999      43.520 128.538  23.782  1.00  0.00     0.270 C 
ENDROOT
BRANCH   3   4
HETATM    4  O1  LIG X 999      42.890 129.551  23.009  1.00  0.00    -0.319 OA
BRANCH   4   5
HETATM    5  C4  LIG X 999      42.919 130.900  23.375  1.00  0.00     0.179 C 
HETATM    6  C5  LIG X 999      43.513 131.802  22.582  1.00  0.00     0.075 C 
BRANCH   5   7
HETATM    7  O2  LIG X 999      42.308 131.307  24.563  1.00  0.00    -0.341 OA
HETATM    8  H4  LIG X 999      42.844 131.539  25.392  1.00  0.00     0.220 HD
ENDBRANCH   5   7
BRANCH   6   9
HETATM    9  C6  LIG X 999      44.195 131.446  21.313  1.00  0.00    -0.021 A 
HETATM   10  C7  LIG X 999      45.500 130.924  21.360  1.00  0.00     0.012 A 
HETATM   11  C8  LIG X 999      46.191 130.620  20.188  1.00  0.00     0.002 A 
HETATM   12  C9  LIG X 999      45.601 130.844  18.946  1.00  0.00     0.012 A 
HETATM   13  C10 LIG X 999      44.306 131.374  18.864  1.00  0.00    -0.025 A 
HETATM   14  C11 LIG X 999      43.719 131.598  17.609  1.00  0.00     0.012 A 
HETATM   15  C15 LIG X 999      43.587 131.682  20.052  1.00  0.00    -0.015 A 
HETATM   16  C12 LIG X 999      42.427 132.115  17.518  1.00  0.00     0.001 A 
HETATM   17  C13 LIG X 999      41.708 132.410  18.677  1.00  0.00     0.001 A 
HETATM   18  C14 LIG X 999      42.277 132.194  19.934  1.00  0.00     0.013 A 
ENDBRANCH   6   9
ENDBRANCH   4   5
ENDBRANCH   3   4
TORSDOF 4
ENDMDL
MODEL 9
REMARK VINA RESULT:      -6.5      2.043      3.118
REMARK  4 active torsions:
REMARK  status: ('A' for Active; 'I' for Inactive)
REMARK    1  A    between atoms: C3_3  and  O1_4 
REMARK    2  A    between atoms: O1_4  and  C4_5 
REMARK    3  A    between atoms: C4_5  and  O2_6 
REMARK    4  A    between atoms: C5_8  and  C6_9 
ROOT
HETATM    1  C1  LIG X 999      45.984 130.515  16.279  1.00  0.00     0.014 C 
HETATM    2  C2  LIG X 999      44.902 131.037  16.372  1.00  0.00    -0.091 C 
HETATM    3  C3  LIG X 999      43.587 131.670  16.484  1.00  0.00     0.270 C 
ENDROOT
BRANCH   3   4
HETATM    4  O1  LIG X 999      43.010 131.327  17.736  1.00  0.00    -0.319 OA
BRANCH   4   5
HETATM    5  C4  LIG X 999      42.380 132.270  18.554  1.00  0.00     0.179 C 
HETATM    6  C5  LIG X 999      42.706 132.365  19.851  1.00  0.00     0.075 C 
BRANCH   5   7
HETATM    7  O2  LIG X 999      41.423 133.129  18.010  1.00  0.00    -0.341 OA
HETATM    8  H4  LIG X 999      41.479 134.135  18.119  1.00  0.00     0.220 HD
ENDBRANCH   5   7
BRANCH   6   9
HETATM    9  C6  LIG X 999      43.702 131.480  20.505  1.00  0.00    -0.021 A 
HETATM   10  C7  LIG X 999      44.812 131.033  19.766  1.00  0.00     0.012 A 
HETATM   11  C8  LIG X 999      45.744 130.164  20.332  1.00  0.00     0.002 A 
HETATM   12  C9  LIG X 999      45.581 129.712  21.639  1.00  0.00     0.012 A 
HETATM   13  C10 LIG X 999      44.480 130.128  22.399  1.00  0.00    -0.025 A 
HETATM   14  C11 LIG X 999      44.321 129.666  23.715  1.00  0.00     0.012 A 
HETATM   15  C15 LIG X 999      43.524 131.020  21.837  1.00  0.00    -0.015 A 
HETATM   16  C12 LIG X 999      43.234 130.085  24.482  1.00  0.00     0.001 A 
HETATM   17  C13 LIG X 999      42.298 130.968  23.945  1.00  0.00     0.001 A 
HETATM   18  C14 LIG X 999      42.438 131.437  22.637  1.00  0.00     0.013 A 
ENDBRANCH   6   9
ENDBRANCH   4   5
ENDBRANCH   3   4
TORSDOF 4
ENDMDL
