MODEL 1
REMARK VINA RESULT:      -8.4      0.000      0.000
REMARK  1 active torsions:
REMARK  status: ('A' for Active; 'I' for Inactive)
REMARK    1  A    between atoms: C2_5  and  C3_6 
ROOT
HETATM    1  C3  LIG X 999      44.364 131.433  17.368  1.00  0.00     0.030 A 
HETATM    2  C4  LIG X 999      43.101 131.855  16.905  1.00  0.00     0.017 A 
HETATM    3  C5  LIG X 999      42.075 132.180  17.786  1.00  0.00     0.002 A 
HETATM    4  C6  LIG X 999      42.274 132.093  19.157  1.00  0.00     0.012 A 
HETATM    5  C7  LIG X 999      43.509 131.679  19.665  1.00  0.00    -0.025 A 
HETATM    6  C8  LIG X 999      43.681 131.601  21.058  1.00  0.00     0.012 A 
HETATM    7  C9  LIG X 999      44.898 131.193  21.595  1.00  0.00     0.001 A 
HETATM    8  C10 LIG X 999      45.953 130.858  20.752  1.00  0.00     0.001 A 
HETATM    9  C11 LIG X 999      45.803 130.929  19.365  1.00  0.00     0.013 A 
HETATM   10  C12 LIG X 999      44.579 131.340  18.783  1.00  0.00    -0.011 A 
ENDROOT
BRANCH   1  11
HETATM   11  C2  LIG X 999      45.386 131.112  16.323  1.00  0.00     0.203 A 
HETATM   12  O1  LIG X 999      45.843 129.913  16.027  1.00  0.00    -0.255 OA
HETATM   13  C1  LIG X 999      46.710 130.104  15.066  1.00  0.00     0.262 A 
HETATM   14  N1  LIG X 999      47.386 129.164  14.491  1.00  0.00    -0.260 NA
HETATM   15  N3  LIG X 999      46.809 131.401  14.749  1.00  0.00    -0.238 N 
HETATM   16  H1  LIG X 999      47.267 128.168  14.781  1.00  0.00     0.190 HD
HETATM   17  N2  LIG X 999      45.974 132.050  15.541  1.00  0.00    -0.145 NA
HETATM   18  H9  LIG X 999      47.419 131.840  14.023  1.00  0.00     0.193 HD
ENDBRANCH   1  11
TORSDOF 1
ENDMDL
MODEL 2
REMARK VINA RESULT:      -8.2      1.099      2.876
REMARK  1 active torsions:
REMARK  status: ('A' for Active; 'I' for Inactive)
REMARK    1  A    between atoms: C2_5  and  C3_6 
ROOT
HETATM    1  C3  LIG X 999      45.330 130.918  18.317  1.00  0.00     0.030 A 
HETATM    2  C4  LIG X 999      46.259 130.570  19.320  1.00  0.00     0.017 A 
HETATM    3  C5  LIG X 999      45.983 130.770  20.668  1.00  0.00     0.002 A 
HETATM    4  C6  LIG X 999      44.772 131.325  21.061  1.00  0.00     0.012 A 
HETATM    5  C7  LIG X 999      43.819 131.687  20.104  1.00  0.00    -0.025 A 
HETATM    6  C8  LIG X 999      42.603 132.246  20.532  1.00  0.00     0.012 A 
HETATM    7  C9  LIG X 999      41.633 132.617  19.605  1.00  0.00     0.001 A 
HETATM    8  C10 LIG X 999      41.866 132.435  18.245  1.00  0.00     0.001 A 
HETATM    9  C11 LIG X 999      43.069 131.881  17.799  1.00  0.00     0.013 A 
HETATM   10  C12 LIG X 999      44.077 131.492  18.714  1.00  0.00    -0.011 A 
ENDROOT
BRANCH   1  11
HETATM   11  C2  LIG X 999      45.743 130.654  16.903  1.00  0.00     0.203 A 
HETATM   12  O1  LIG X 999      46.163 131.553  16.037  1.00  0.00    -0.255 OA
HETATM   13  C1  LIG X 999      46.410 130.883  14.941  1.00  0.00     0.262 A 
HETATM   14  N1  LIG X 999      46.845 131.409  13.843  1.00  0.00    -0.260 NA
HETATM   15  N3  LIG X 999      46.155 129.578  15.098  1.00  0.00    -0.238 N 
HETATM   16  H1  LIG X 999      47.026 132.435  13.778  1.00  0.00     0.190 HD
HETATM   17  N2  LIG X 999      45.731 129.421  16.340  1.00  0.00    -0.145 NA
HETATM   18  H9  LIG X 999      46.261 128.814  14.394  1.00  0.00     0.193 HD
ENDBRANCH   1  11
TORSDOF 1
ENDMDL
MODEL 3
REMARK VINA RESULT:      -6.7      1.404      1.892
REMARK  1 active torsions:
REMARK  status: ('A' for Active; 'I' for Inactive)
REMARK    1  A    between atoms: C2_5  and  C3_6 
ROOT
HETATM    1  C3  LIG X 999      43.583 131.717  18.984  1.00  0.00     0.030 A 
HETATM    2  C4  LIG X 999      42.482 132.531  18.648  1.00  0.00     0.017 A 
HETATM    3  C5  LIG X 999      41.599 132.997  19.616  1.00  0.00     0.002 A 
HETATM    4  C6  LIG X 999      41.785 132.666  20.952  1.00  0.00     0.012 A 
HETATM    5  C7  LIG X 999      42.863 131.862  21.336  1.00  0.00    -0.025 A 
HETATM    6  C8  LIG X 999      43.025 131.544  22.694  1.00  0.00     0.012 A 
HETATM    7  C9  LIG X 999      44.087 130.746  23.109  1.00  0.00     0.001 A 
HETATM    8  C10 LIG X 999      44.996 130.257  22.175  1.00  0.00     0.001 A 
HETATM    9  C11 LIG X 999      44.851 130.561  20.819  1.00  0.00     0.013 A 
HETATM   10  C12 LIG X 999      43.783 131.370  20.361  1.00  0.00    -0.011 A 
ENDROOT
BRANCH   1  11
HETATM   11  C2  LIG X 999      44.460 131.279  17.854  1.00  0.00     0.203 A 
HETATM   12  O1  LIG X 999      45.535 130.524  17.952  1.00  0.00    -0.255 OA
HETATM   13  C1  LIG X 999      45.979 130.398  16.729  1.00  0.00     0.262 A 
HETATM   14  N1  LIG X 999      47.031 129.723  16.396  1.00  0.00    -0.260 NA
HETATM   15  N3  LIG X 999      45.207 131.060  15.858  1.00  0.00    -0.238 N 
HETATM   16  H1  LIG X 999      47.596 129.226  17.120  1.00  0.00     0.190 HD
HETATM   17  N2  LIG X 999      44.239 131.623  16.561  1.00  0.00    -0.145 NA
HETATM   18  H9  LIG X 999      45.323 131.133  14.822  1.00  0.00     0.193 HD
ENDBRANCH   1  11
TORSDOF 1
ENDMDL
MODEL 4
REMARK VINA RESULT:      -6.6      2.711      5.147
REMARK  1 active torsions:
REMARK  status: ('A' for Active; 'I' for Inactive)
REMARK    1  A    between atoms: C2_5  and  C3_6 
ROOT
HETATM    1  C3  LIG X 999      44.868 131.130  16.968  1.00  0.00     0.030 A 
HETATM    2  C4  LIG X 999      43.624 131.727  16.675  1.00  0.00     0.017 A 
HETATM    3  C5  LIG X 999      43.217 131.954  15.365  1.00  0.00     0.002 A 
HETATM    4  C6  LIG X 999      44.036 131.594  14.303  1.00  0.00     0.012 A 
HETATM    5  C7  LIG X 999      45.279 130.999  14.542  1.00  0.00    -0.025 A 
HETATM    6  C8  LIG X 999      46.086 130.646  13.448  1.00  0.00     0.012 A 
HETATM    7  C9  LIG X 999      47.328 130.053  13.651  1.00  0.00     0.001 A 
HETATM    8  C10 LIG X 999      47.778 129.807  14.945  1.00  0.00     0.001 A 
HETATM    9  C11 LIG X 999      46.990 130.151  16.047  1.00  0.00     0.013 A 
HETATM   10  C12 LIG X 999      45.721 130.756  15.877  1.00  0.00    -0.011 A 
ENDROOT
BRANCH   1  11
HETATM   11  C2  LIG X 999      45.193 130.939  18.416  1.00  0.00     0.203 A 
HETATM   12  O1  LIG X 999      44.702 131.635  19.420  1.00  0.00    -0.255 OA
HETATM   13  C1  LIG X 999      45.257 131.130  20.491  1.00  0.00     0.262 A 
HETATM   14  N1  LIG X 999      45.034 131.542  21.696  1.00  0.00    -0.260 NA
HETATM   15  N3  LIG X 999      46.091 130.129  20.183  1.00  0.00    -0.238 N 
HETATM   16  H1  LIG X 999      44.372 132.330  21.876  1.00  0.00     0.190 HD
HETATM   17  N2  LIG X 999      46.058 129.999  18.869  1.00  0.00    -0.145 NA
HETATM   18  H9  LIG X 999      46.666 129.548  20.834  1.00  0.00     0.193 HD
ENDBRANCH   1  11
TORSDOF 1
ENDMDL
MODEL 5
REMARK VINA RESULT:      -6.3      7.624      8.874
REMARK  1 active torsions:
REMARK  status: ('A' for Active; 'I' for Inactive)
REMARK    1  A    between atoms: C2_5  and  C3_6 
ROOT
HETATM    1  C3  LIG X 999      49.414 136.272  21.365  1.00  0.00     0.030 A 
HETATM    2  C4  LIG X 999      48.504 135.232  21.643  1.00  0.00     0.017 A 
HETATM    3  C5  LIG X 999      48.722 134.331  22.679  1.00  0.00     0.002 A 
HETATM    4  C6  LIG X 999      49.856 134.437  23.473  1.00  0.00     0.012 A 
HETATM    5  C7  LIG X 999      50.789 135.452  23.238  1.00  0.00    -0.025 A 
HETATM    6  C8  LIG X 999      51.927 135.534  24.057  1.00  0.00     0.012 A 
HETATM    7  C9  LIG X 999      52.874 136.533  23.849  1.00  0.00     0.001 A 
HETATM    8  C10 LIG X 999      52.698 137.457  22.823  1.00  0.00     0.001 A 
HETATM    9  C11 LIG X 999      51.572 137.392  21.997  1.00  0.00     0.013 A 
HETATM   10  C12 LIG X 999      50.589 136.389  22.180  1.00  0.00    -0.011 A 
ENDROOT
BRANCH   1  11
HETATM   11  C2  LIG X 999      49.068 137.177  20.224  1.00  0.00     0.203 A 
HETATM   12  O1  LIG X 999      49.697 137.244  19.069  1.00  0.00    -0.255 OA
HETATM   13  C1  LIG X 999      49.059 138.159  18.385  1.00  0.00     0.262 A 
HETATM   14  N1  LIG X 999      49.370 138.526  17.185  1.00  0.00    -0.260 NA
HETATM   15  N3  LIG X 999      48.040 138.672  19.086  1.00  0.00    -0.238 N 
HETATM   16  H1  LIG X 999      50.178 138.091  16.686  1.00  0.00     0.190 HD
HETATM   17  N2  LIG X 999      48.036 138.056  20.255  1.00  0.00    -0.145 NA
HETATM   18  H9  LIG X 999      47.366 139.413  18.791  1.00  0.00     0.193 HD
ENDBRANCH   1  11
TORSDOF 1
ENDMDL
MODEL 6
REMARK VINA RESULT:      -5.7      3.101      4.716
REMARK  1 active torsions:
REMARK  status: ('A' for Active; 'I' for Inactive)
REMARK    1  A    between atoms: C2_5  and  C3_6 
ROOT
HETATM    1  C3  LIG X 999      43.584 131.057  21.841  1.00  0.00     0.030 A 
HETATM    2  C4  LIG X 999      42.879 131.990  22.628  1.00  0.00     0.017 A 
HETATM    3  C5  LIG X 999      42.709 131.807  23.996  1.00  0.00     0.002 A 
HETATM    4  C6  LIG X 999      43.237 130.687  24.625  1.00  0.00     0.012 A 
HETATM    5  C7  LIG X 999      43.945 129.733  23.887  1.00  0.00    -0.025 A 
HETATM    6  C8  LIG X 999      44.467 128.610  24.550  1.00  0.00     0.012 A 
HETATM    7  C9  LIG X 999      45.177 127.642  23.845  1.00  0.00     0.001 A 
HETATM    8  C10 LIG X 999      45.371 127.783  22.474  1.00  0.00     0.001 A 
HETATM    9  C11 LIG X 999      44.859 128.893  21.796  1.00  0.00     0.013 A 
HETATM   10  C12 LIG X 999      44.133 129.897  22.481  1.00  0.00    -0.011 A 
ENDROOT
BRANCH   1  11
HETATM   11  C2  LIG X 999      43.699 131.365  20.381  1.00  0.00     0.203 A 
HETATM   12  O1  LIG X 999      44.799 131.309  19.660  1.00  0.00    -0.255 OA
HETATM   13  C1  LIG X 999      44.436 131.656  18.452  1.00  0.00     0.262 A 
HETATM   14  N1  LIG X 999      45.235 131.727  17.438  1.00  0.00    -0.260 NA
HETATM   15  N3  LIG X 999      43.127 131.931  18.396  1.00  0.00    -0.238 N 
HETATM   16  H1  LIG X 999      46.249 131.500  17.542  1.00  0.00     0.190 HD
HETATM   17  N2  LIG X 999      42.648 131.750  19.615  1.00  0.00    -0.145 NA
HETATM   18  H9  LIG X 999      42.568 132.231  17.566  1.00  0.00     0.193 HD
ENDBRANCH   1  11
TORSDOF 1
ENDMDL
MODEL 7
REMARK VINA RESULT:      -5.7      3.175      5.719
REMARK  1 active torsions:
REMARK  status: ('A' for Active; 'I' for Inactive)
REMARK    1  A    between atoms: C2_5  and  C3_6 
ROOT
HETATM    1  C3  LIG X 999      44.347 131.276  17.948  1.00  0.00     0.030 A 
HETATM    2  C4  LIG X 999      45.305 130.697  18.805  1.00  0.00     0.017 A 
HETATM    3  C5  LIG X 999      46.432 130.052  18.307  1.00  0.00     0.002 A 
HETATM    4  C6  LIG X 999      46.641 129.964  16.937  1.00  0.00     0.012 A 
HETATM    5  C7  LIG X 999      45.720 130.523  16.046  1.00  0.00    -0.025 A 
HETATM    6  C8  LIG X 999      45.958 130.418  14.665  1.00  0.00     0.012 A 
HETATM    7  C9  LIG X 999      45.061 130.964  13.752  1.00  0.00     0.001 A 
HETATM    8  C10 LIG X 999      43.919 131.618  14.205  1.00  0.00     0.001 A 
HETATM    9  C11 LIG X 999      43.664 131.733  15.574  1.00  0.00     0.013 A 
HETATM   10  C12 LIG X 999      44.555 131.190  16.532  1.00  0.00    -0.011 A 
ENDROOT
BRANCH   1  11
HETATM   11  C2  LIG X 999      43.178 131.941  18.604  1.00  0.00     0.203 A 
HETATM   12  O1  LIG X 999      43.044 132.180  19.892  1.00  0.00    -0.255 OA
HETATM   13  C1  LIG X 999      41.882 132.768  20.012  1.00  0.00     0.262 A 
HETATM   14  N1  LIG X 999      41.375 133.169  21.133  1.00  0.00    -0.260 NA
HETATM   15  N3  LIG X 999      41.278 132.906  18.825  1.00  0.00    -0.238 N 
HETATM   16  H1  LIG X 999      41.892 133.035  22.030  1.00  0.00     0.190 HD
HETATM   17  N2  LIG X 999      42.092 132.383  17.924  1.00  0.00    -0.145 NA
HETATM   18  H9  LIG X 999      40.349 133.336  18.623  1.00  0.00     0.193 HD
ENDBRANCH   1  11
TORSDOF 1
ENDMDL
MODEL 8
REMARK VINA RESULT:      -5.5      4.400      5.636
REMARK  1 active torsions:
REMARK  status: ('A' for Active; 'I' for Inactive)
REMARK    1  A    between atoms: C2_5  and  C3_6 
ROOT
HETATM    1  C3  LIG X 999      43.179 131.717  20.468  1.00  0.00     0.030 A 
HETATM    2  C4  LIG X 999      41.965 132.342  20.117  1.00  0.00     0.017 A 
HETATM    3  C5  LIG X 999      41.636 132.601  18.791  1.00  0.00     0.002 A 
HETATM    4  C6  LIG X 999      42.508 132.247  17.770  1.00  0.00     0.012 A 
HETATM    5  C7  LIG X 999      43.725 131.625  18.067  1.00  0.00    -0.025 A 
HETATM    6  C8  LIG X 999      44.587 131.278  17.013  1.00  0.00     0.012 A 
HETATM    7  C9  LIG X 999      45.805 130.658  17.274  1.00  0.00     0.001 A 
HETATM    8  C10 LIG X 999      46.176 130.379  18.586  1.00  0.00     0.001 A 
HETATM    9  C11 LIG X 999      45.333 130.716  19.649  1.00  0.00     0.013 A 
HETATM   10  C12 LIG X 999      44.086 131.348  19.419  1.00  0.00    -0.011 A 
ENDROOT
BRANCH   1  11
HETATM   11  C2  LIG X 999      43.418 131.493  21.927  1.00  0.00     0.203 A 
HETATM   12  O1  LIG X 999      44.312 130.680  22.451  1.00  0.00    -0.255 OA
HETATM   13  C1  LIG X 999      44.169 130.802  23.746  1.00  0.00     0.262 A 
HETATM   14  N1  LIG X 999      44.870 130.162  24.624  1.00  0.00    -0.260 NA
HETATM   15  N3  LIG X 999      43.202 131.676  24.050  1.00  0.00    -0.238 N 
HETATM   16  H1  LIG X 999      45.614 129.491  24.327  1.00  0.00     0.190 HD
HETATM   17  N2  LIG X 999      42.718 132.120  22.904  1.00  0.00    -0.145 NA
HETATM   18  H9  LIG X 999      42.874 131.966  24.999  1.00  0.00     0.193 HD
ENDBRANCH   1  11
TORSDOF 1
ENDMDL
