REMARK VINA RESULT:      -7.4      1.668      2.466
REMARK  3 active torsions:
REMARK  status: ('A' for Active; 'I' for Inactive)
REMARK    1  A    between atoms: C3_3  and  S1_4 
REMARK    2  A    between atoms: S1_4  and  C4_7 
REMARK    3  A    between atoms: C13_16  and  N1_17 
ROOT
HETATM    1  C1  LIG X 999      47.531 130.892  12.461  1.00  0.00     0.013 C 
HETATM    2  C2  LIG X 999      47.079 131.289  13.506  1.00  0.00    -0.102 C 
HETATM    3  C3  LIG X 999      46.528 131.768  14.775  1.00  0.00     0.238 C 
ENDROOT
BRANCH   3   4
HETATM    4  S1  LIG X 999      46.026 130.388  15.785  1.00  0.00     0.185 S 
HETATM    5  O1  LIG X 999      47.240 129.759  16.407  1.00  0.00    -0.222 OA
HETATM    6  O2  LIG X 999      45.338 129.359  14.931  1.00  0.00    -0.222 OA
BRANCH   4   7
HETATM    7  C4  LIG X 999      44.934 130.942  17.052  1.00  0.00     0.060 A 
HETATM    8  C5  LIG X 999      43.671 131.441  16.720  1.00  0.00     0.024 A 
HETATM    9  C6  LIG X 999      42.793 131.854  17.722  1.00  0.00     0.011 A 
HETATM   10  C7  LIG X 999      43.159 131.770  19.075  1.00  0.00    -0.022 A 
HETATM   11  C8  LIG X 999      44.439 131.268  19.415  1.00  0.00    -0.048 A 
HETATM   12  C13 LIG X 999      42.198 132.290  20.131  1.00  0.00     0.217 C 
HETATM   13  C9  LIG X 999      45.309 130.845  18.397  1.00  0.00     0.031 A 
HETATM   14  C10 LIG X 999      44.851 131.048  20.852  1.00  0.00     0.039 C 
HETATM   15  C11 LIG X 999      44.030 131.877  21.841  1.00  0.00     0.007 C 
HETATM   16  C12 LIG X 999      42.536 131.754  21.537  1.00  0.00     0.038 C 
BRANCH  12  17
HETATM   17  N1  LIG X 999      42.175 133.761  20.114  1.00  0.00    -0.071 N 
HETATM   18  H14 LIG X 999      42.223 134.112  19.130  1.00  0.00     0.275 HD
HETATM   19  H15 LIG X 999      43.007 134.134  20.627  1.00  0.00     0.275 HD
HETATM   20  H16 LIG X 999      41.309 134.128  20.571  1.00  0.00     0.275 HD
ENDBRANCH  12  17
ENDBRANCH   4   7
ENDBRANCH   3   4
TORSDOF 3
