REMARK VINA RESULT:      -6.4      2.166      4.031
REMARK  1 active torsions:
REMARK  status: ('A' for Active; 'I' for Inactive)
REMARK    1  A    between atoms: C5_8  and  O1_9 
ROOT
HETATM    1  H1  LIG X 999      43.648 131.809  23.046  1.00  0.00     0.187 HD
HETATM    2  N1  LIG X 999      44.514 131.403  22.628  1.00  0.00    -0.300 NA
HETATM    3  C1  LIG X 999      44.698 131.288  21.350  1.00  0.00     0.059 A 
HETATM    4  C2  LIG X 999      45.979 130.691  20.842  1.00  0.00     0.034 A 
HETATM    5  C3  LIG X 999      46.211 130.551  19.517  1.00  0.00     0.035 A 
HETATM    6  C4  LIG X 999      45.174 131.002  18.573  1.00  0.00     0.071 A 
HETATM    7  N2  LIG X 999      45.183 130.965  17.220  1.00  0.00    -0.224 NA
HETATM    8  C5  LIG X 999      43.981 131.505  16.862  1.00  0.00     0.174 A 
HETATM    9  C6  LIG X 999      43.243 131.869  17.977  1.00  0.00     0.030 A 
HETATM   10  C7  LIG X 999      41.989 132.448  18.171  1.00  0.00     0.017 A 
HETATM   11  C8  LIG X 999      41.574 132.670  19.507  1.00  0.00     0.002 A 
HETATM   12  C9  LIG X 999      42.414 132.314  20.600  1.00  0.00     0.015 A 
HETATM   13  C10 LIG X 999      43.677 131.730  20.351  1.00  0.00     0.005 A 
HETATM   14  C11 LIG X 999      44.020 131.541  19.029  1.00  0.00     0.020 A 
ENDROOT
BRANCH   8  15
HETATM   15  O1  LIG X 999      43.567 131.662  15.545  1.00  0.00    -0.344 OA
HETATM   16  H4  LIG X 999      43.000 132.456  15.274  1.00  0.00     0.219 HD
ENDBRANCH   8  15
TORSDOF 1
