REMARK VINA RESULT:      -8.2      1.427      1.913
REMARK  4 active torsions:
REMARK  status: ('A' for Active; 'I' for Inactive)
REMARK    1  A    between atoms: O1_2  and  C1_3 
REMARK    2  A    between atoms: C1_3  and  N1_6 
REMARK    3  A    between atoms: N1_6  and  C4_8 
REMARK    4  A    between atoms: C4_8  and  C5_9 
ROOT
HETATM    1  C5  LIG X 999      44.715 131.019  18.168  1.00  0.00    -0.035 A 
HETATM    2  C6  LIG X 999      45.824 130.544  18.889  1.00  0.00     0.010 A 
HETATM    3  C7  LIG X 999      45.833 130.578  20.286  1.00  0.00     0.013 A 
HETATM    4  C8  LIG X 999      44.736 131.099  20.986  1.00  0.00    -0.026 A 
HETATM    5  C9  LIG X 999      44.734 131.136  22.388  1.00  0.00     0.012 A 
HETATM    6  C10 LIG X 999      43.635 131.662  23.074  1.00  0.00     0.001 A 
HETATM    7  C11 LIG X 999      42.534 132.152  22.368  1.00  0.00     0.001 A 
HETATM    8  C12 LIG X 999      42.523 132.120  20.970  1.00  0.00     0.012 A 
HETATM    9  C13 LIG X 999      43.619 131.594  20.269  1.00  0.00    -0.025 A 
HETATM   10  C14 LIG X 999      43.620 131.556  18.867  1.00  0.00     0.021 A 
ENDROOT
BRANCH   1  11
HETATM   11  C4  LIG X 999      44.713 131.003  16.654  1.00  0.00     0.113 C 
HETATM   12  C15 LIG X 999      43.510 131.791  16.127  1.00  0.00     0.037 C 
BRANCH  11  13
HETATM   13  N1  LIG X 999      45.965 131.561  16.127  1.00  0.00    -0.363 N 
HETATM   14  H6  LIG X 999      46.290 132.486  16.491  1.00  0.00     0.162 HD
BRANCH  13  15
HETATM   15  C1  LIG X 999      46.785 130.883  15.154  1.00  0.00     0.131 C 
HETATM   16  C2  LIG X 999      46.976 131.437  13.952  1.00  0.00     0.024 C 
HETATM   17  C3  LIG X 999      47.818 130.782  12.902  1.00  0.00     0.040 C 
BRANCH  15  18
HETATM   18  O1  LIG X 999      47.387 129.655  15.444  1.00  0.00    -0.347 OA
HETATM   19  H1  LIG X 999      46.861 128.804  15.588  1.00  0.00     0.219 HD
ENDBRANCH  15  18
ENDBRANCH  13  15
ENDBRANCH  11  13
ENDBRANCH   1  11
TORSDOF 4
