REMARK VINA RESULT:      -3.9     10.570     12.047
REMARK  2 active torsions:
REMARK  status: ('A' for Active; 'I' for Inactive)
REMARK       I    between atoms: N1_1  and  C1_2 
REMARK    1  A    between atoms: C1_2  and  C2_4 
REMARK    2  A    between atoms: C11_13  and  O2_14 
ROOT
HETATM    1  C2  LIG X 999      52.748 136.658  23.250  1.00  0.00     0.116 C 
HETATM    2  C3  LIG X 999      53.392 137.464  24.405  1.00  0.00     0.017 C 
HETATM    3  C4  LIG X 999      53.625 138.935  24.022  1.00  0.00     0.002 C 
HETATM    4  C5  LIG X 999      52.338 139.604  23.514  1.00  0.00     0.012 C 
HETATM    5  C6  LIG X 999      51.754 138.794  22.348  1.00  0.00     0.047 C 
HETATM    6  C7  LIG X 999      50.547 139.446  21.718  1.00  0.00    -0.019 C 
HETATM    7  C8  LIG X 999      49.759 138.721  20.915  1.00  0.00    -0.004 C 
HETATM    8  C9  LIG X 999      49.984 137.266  20.761  1.00  0.00    -0.001 C 
HETATM    9  C10 LIG X 999      50.806 136.609  21.596  1.00  0.00     0.012 C 
HETATM   10  C11 LIG X 999      51.427 137.334  22.784  1.00  0.00     0.095 C 
ENDROOT
BRANCH   1  11
HETATM   11  C1  LIG X 999      52.535 135.224  23.680  1.00  0.00     0.222 C 
HETATM   12  N1  LIG X 999      53.291 134.170  23.080  1.00  0.00    -0.370 N 
HETATM   13  H1  LIG X 999      53.996 134.370  22.337  1.00  0.00     0.159 HD
HETATM   14  H2  LIG X 999      53.138 133.180  23.376  1.00  0.00     0.159 HD
HETATM   15  O1  LIG X 999      51.678 134.945  24.561  1.00  0.00    -0.273 OA
ENDBRANCH   1  11
BRANCH  10  16
HETATM   16  O2  LIG X 999      50.515 137.328  23.864  1.00  0.00    -0.384 OA
HETATM   17  H15 LIG X 999      51.006 137.123  24.701  1.00  0.00     0.211 HD
ENDBRANCH  10  16
TORSDOF 2
