REMARK VINA RESULT:      -7.1      2.328      3.814
REMARK  2 active torsions:
REMARK  status: ('A' for Active; 'I' for Inactive)
REMARK    1  A    between atoms: C2_5  and  C3_6 
REMARK    2  A    between atoms: N3_18  and  C13_19 
ROOT
HETATM    1  H1  LIG X 999      42.820 132.294  14.961  1.00  0.00     0.190 HD
HETATM    2  N1  LIG X 999      43.759 131.834  14.984  1.00  0.00    -0.260 NA
HETATM    3  C1  LIG X 999      44.280 131.450  16.104  1.00  0.00     0.268 A 
HETATM    4  O1  LIG X 999      43.705 131.608  17.275  1.00  0.00    -0.257 OA
HETATM    5  C2  LIG X 999      44.559 131.107  18.146  1.00  0.00     0.177 A 
HETATM    6  N2  LIG X 999      45.665 130.649  17.520  1.00  0.00    -0.269 N 
HETATM    7  H9  LIG X 999      46.490 130.179  17.953  1.00  0.00     0.190 HD
HETATM    8  N3  LIG X 999      45.486 130.860  16.225  1.00  0.00    -0.212 N 
ENDROOT
BRANCH   5   9
HETATM    9  C3  LIG X 999      44.355 131.084  19.613  1.00  0.00     0.028 A 
HETATM   10  C4  LIG X 999      45.290 130.382  20.394  1.00  0.00     0.017 A 
HETATM   11  C5  LIG X 999      45.201 130.377  21.785  1.00  0.00     0.002 A 
HETATM   12  C6  LIG X 999      44.177 131.070  22.427  1.00  0.00     0.012 A 
HETATM   13  C7  LIG X 999      43.217 131.764  21.678  1.00  0.00    -0.025 A 
HETATM   14  C8  LIG X 999      42.178 132.442  22.334  1.00  0.00     0.012 A 
HETATM   15  C12 LIG X 999      43.287 131.768  20.256  1.00  0.00    -0.011 A 
HETATM   16  C9  LIG X 999      41.197 133.107  21.600  1.00  0.00     0.001 A 
HETATM   17  C10 LIG X 999      41.236 133.092  20.207  1.00  0.00     0.001 A 
HETATM   18  C11 LIG X 999      42.264 132.424  19.536  1.00  0.00     0.013 A 
ENDBRANCH   5   9
BRANCH   8  19
HETATM   19  C13 LIG X 999      46.420 130.500  15.191  1.00  0.00     0.105 A 
HETATM   20  C14 LIG X 999      46.787 129.158  14.998  1.00  0.00     0.054 A 
HETATM   21  C15 LIG X 999      47.706 128.831  13.999  1.00  0.00     0.122 A 
HETATM   22  N4  LIG X 999      48.240 129.805  13.217  1.00  0.00    -0.230 NA
HETATM   23  C16 LIG X 999      47.907 131.112  13.380  1.00  0.00     0.251 A 
HETATM   24  F1  LIG X 999      48.460 132.053  12.574  1.00  0.00    -0.181 F 
HETATM   25  C17 LIG X 999      46.993 131.486  14.370  1.00  0.00     0.202 A 
HETATM   26  F2  LIG X 999      46.643 132.791  14.501  1.00  0.00    -0.199 F 
ENDBRANCH   8  19
TORSDOF 2
