REMARK VINA RESULT:      -5.6      2.656      6.008
REMARK  3 active torsions:
REMARK  status: ('A' for Active; 'I' for Inactive)
REMARK    1  A    between atoms: C3_3  and  S1_4 
REMARK    2  A    between atoms: S1_4  and  C4_5 
REMARK    3  A    between atoms: C8_9  and  N1_10 
ROOT
HETATM    1  C1  LIG X 999      47.777 131.263  13.036  1.00  0.00     0.013 C 
HETATM    2  C2  LIG X 999      47.194 131.354  14.086  1.00  0.00    -0.107 C 
HETATM    3  C3  LIG X 999      46.489 131.467  15.367  1.00  0.00     0.172 C 
ENDROOT
BRANCH   3   4
HETATM    4  S1  LIG X 999      45.763 129.862  15.848  1.00  0.00    -0.117 SA
BRANCH   4   5
HETATM    5  C4  LIG X 999      45.350 130.370  17.525  1.00  0.00     0.015 A 
HETATM    6  C5  LIG X 999      46.234 129.996  18.580  1.00  0.00     0.020 A 
HETATM    7  C6  LIG X 999      45.955 130.338  19.924  1.00  0.00     0.018 A 
HETATM    8  C7  LIG X 999      44.789 131.055  20.175  1.00  0.00     0.026 A 
HETATM    9  C8  LIG X 999      44.196 131.559  21.322  1.00  0.00     0.175 A 
HETATM   10  C10 LIG X 999      43.966 131.413  19.160  1.00  0.00     0.019 A 
HETATM   11  N4  LIG X 999      43.039 132.209  21.011  1.00  0.00    -0.337 N 
HETATM   12  H6  LIG X 999      42.381 132.689  21.666  1.00  0.00     0.167 HD
HETATM   13  C9  LIG X 999      42.917 132.107  19.669  1.00  0.00     0.046 A 
HETATM   14  C14 LIG X 999      41.863 132.631  18.787  1.00  0.00     0.033 A 
HETATM   15  C13 LIG X 999      41.974 132.413  17.458  1.00  0.00     0.034 A 
HETATM   16  C12 LIG X 999      43.144 131.657  16.888  1.00  0.00     0.060 A 
HETATM   17  C11 LIG X 999      44.180 131.121  17.828  1.00  0.00     0.022 A 
HETATM   18  N5  LIG X 999      43.254 131.502  15.607  1.00  0.00    -0.299 NA
HETATM   19  H7  LIG X 999      42.543 131.878  14.941  1.00  0.00     0.187 HD
BRANCH   9  20
HETATM   20  N1  LIG X 999      44.720 131.424  22.645  1.00  0.00    -0.053 NA
HETATM   21  N2  LIG X 999      44.056 131.746  23.630  1.00  0.00    -0.160 NA
HETATM   22  N3  LIG X 999      43.392 132.068  24.614  1.00  0.00     0.068 N 
ENDBRANCH   9  20
ENDBRANCH   4   5
ENDBRANCH   3   4
TORSDOF 3
