MODEL 1
REMARK VINA RESULT:      -7.1      0.000      0.000
REMARK  2 active torsions:
REMARK  status: ('A' for Active; 'I' for Inactive)
REMARK    1  A    between atoms: C9_10  and  N2_11 
REMARK       I    between atoms: N2_11  and  C10_12 
REMARK    2  A    between atoms: C10_12  and  C11_14 
ROOT
HETATM    1  C11 LIG X 999      46.981 129.780  13.587  1.00  0.00     0.282 C 
HETATM    2 CL1  LIG X 999      46.839 131.378  12.813  1.00  0.00    -0.099 Cl
HETATM    3  C12 LIG X 999      48.392 129.496  13.865  1.00  0.00     0.089 C 
HETATM    4  N3  LIG X 999      49.506 129.271  14.085  1.00  0.00    -0.195 NA
ENDROOT
BRANCH   1   5
HETATM    5  C10 LIG X 999      46.189 129.750  14.857  1.00  0.00     0.276 C 
HETATM    6  N2  LIG X 999      46.143 130.920  15.683  1.00  0.00    -0.212 NA
HETATM    7  O1  LIG X 999      45.608 128.688  15.210  1.00  0.00    -0.268 OA
BRANCH   6   8
HETATM    8  C9  LIG X 999      45.246 131.156  16.780  1.00  0.00     0.061 A 
HETATM    9  C8  LIG X 999      43.983 131.747  16.595  1.00  0.00     0.032 A 
HETATM   10  C7  LIG X 999      43.142 131.980  17.685  1.00  0.00     0.014 A 
HETATM   11  C6  LIG X 999      43.555 131.641  18.981  1.00  0.00    -0.025 A 
HETATM   12  C5  LIG X 999      42.712 131.869  20.086  1.00  0.00     0.021 A 
HETATM   13  C14 LIG X 999      44.842 131.066  19.178  1.00  0.00    -0.023 A 
HETATM   14  C4  LIG X 999      43.171 131.525  21.358  1.00  0.00    -0.024 A 
HETATM   15  C3  LIG X 999      42.455 131.655  22.646  1.00  0.00     0.276 C 
HETATM   16  C16 LIG X 999      44.402 130.977  21.548  1.00  0.00    -0.024 A 
HETATM   17  N1  LIG X 999      43.446 131.263  23.699  1.00  0.00    -0.067 N 
HETATM   18  C1  LIG X 999      43.860 132.456  24.475  1.00  0.00     0.272 C 
HETATM   19  C2  LIG X 999      42.858 130.268  24.625  1.00  0.00     0.272 C 
HETATM   20  C17 LIG X 999      44.625 130.684  22.980  1.00  0.00     0.276 C 
HETATM   21  C15 LIG X 999      45.265 130.729  20.479  1.00  0.00     0.021 A 
HETATM   22  C13 LIG X 999      45.676 130.838  18.075  1.00  0.00     0.044 A 
ENDBRANCH   6   8
ENDBRANCH   1   5
TORSDOF 2
ENDMDL
MODEL 2
REMARK VINA RESULT:      -5.1      6.567      9.127
REMARK  2 active torsions:
REMARK  status: ('A' for Active; 'I' for Inactive)
REMARK    1  A    between atoms: C9_10  and  N2_11 
REMARK       I    between atoms: N2_11  and  C10_12 
REMARK    2  A    between atoms: C10_12  and  C11_14 
ROOT
HETATM    1  C11 LIG X 999      42.941 131.339  23.781  1.00  0.00     0.282 C 
HETATM    2 CL1  LIG X 999      43.925 132.569  24.613  1.00  0.00    -0.099 Cl
HETATM    3  C12 LIG X 999      42.831 131.681  22.359  1.00  0.00     0.089 C 
HETATM    4  N3  LIG X 999      42.745 131.950  21.237  1.00  0.00    -0.195 NA
ENDROOT
BRANCH   1   5
HETATM    5  C10 LIG X 999      43.564 129.987  23.940  1.00  0.00     0.276 C 
HETATM    6  N2  LIG X 999      42.920 128.844  23.364  1.00  0.00    -0.212 NA
HETATM    7  O1  LIG X 999      44.622 129.859  24.615  1.00  0.00    -0.268 OA
BRANCH   6   8
HETATM    8  C9  LIG X 999      43.490 127.537  23.196  1.00  0.00     0.061 A 
HETATM    9  C8  LIG X 999      42.763 126.366  23.477  1.00  0.00     0.032 A 
HETATM   10  C7  LIG X 999      43.353 125.110  23.321  1.00  0.00     0.014 A 
HETATM   11  C6  LIG X 999      44.684 125.003  22.896  1.00  0.00    -0.025 A 
HETATM   12  C5  LIG X 999      45.287 123.740  22.732  1.00  0.00     0.021 A 
HETATM   13  C14 LIG X 999      45.434 126.184  22.635  1.00  0.00    -0.023 A 
HETATM   14  C4  LIG X 999      46.618 123.684  22.318  1.00  0.00    -0.024 A 
HETATM   15  C3  LIG X 999      47.438 122.480  22.064  1.00  0.00     0.276 C 
HETATM   16  C16 LIG X 999      47.336 124.813  22.070  1.00  0.00    -0.024 A 
HETATM   17  N1  LIG X 999      48.818 122.986  21.770  1.00  0.00    -0.067 N 
HETATM   18  C1  LIG X 999      49.728 122.656  22.892  1.00  0.00     0.272 C 
HETATM   19  C2  LIG X 999      49.344 122.375  20.528  1.00  0.00     0.272 C 
HETATM   20  C17 LIG X 999      48.703 124.471  21.620  1.00  0.00     0.276 C 
HETATM   21  C15 LIG X 999      46.775 126.083  22.214  1.00  0.00     0.021 A 
HETATM   22  C13 LIG X 999      44.829 127.438  22.796  1.00  0.00     0.044 A 
ENDBRANCH   6   8
ENDBRANCH   1   5
TORSDOF 2
ENDMDL
MODEL 3
REMARK VINA RESULT:      -4.4      7.595     10.408
REMARK  2 active torsions:
REMARK  status: ('A' for Active; 'I' for Inactive)
REMARK    1  A    between atoms: C9_10  and  N2_11 
REMARK       I    between atoms: N2_11  and  C10_12 
REMARK    2  A    between atoms: C10_12  and  C11_14 
ROOT
HETATM    1  C11 LIG X 999      42.668 127.569  24.173  1.00  0.00     0.282 C 
HETATM    2 CL1  LIG X 999      42.241 129.181  23.546  1.00  0.00    -0.099 Cl
HETATM    3  C12 LIG X 999      41.555 126.643  23.937  1.00  0.00     0.089 C 
HETATM    4  N3  LIG X 999      40.678 125.912  23.749  1.00  0.00    -0.195 NA
ENDROOT
BRANCH   1   5
HETATM    5  C10 LIG X 999      43.908 127.067  23.503  1.00  0.00     0.276 C 
HETATM    6  N2  LIG X 999      44.358 125.733  23.767  1.00  0.00    -0.212 NA
HETATM    7  O1  LIG X 999      44.569 127.833  22.750  1.00  0.00    -0.268 OA
BRANCH   6   8
HETATM    8  C9  LIG X 999      45.358 125.007  23.033  1.00  0.00     0.061 A 
HETATM    9  C8  LIG X 999      45.068 123.799  22.375  1.00  0.00     0.032 A 
HETATM   10  C7  LIG X 999      46.067 123.108  21.686  1.00  0.00     0.014 A 
HETATM   11  C6  LIG X 999      47.377 123.606  21.656  1.00  0.00    -0.025 A 
HETATM   12  C5  LIG X 999      48.391 122.919  20.961  1.00  0.00     0.021 A 
HETATM   13  C14 LIG X 999      47.684 124.815  22.342  1.00  0.00    -0.023 A 
HETATM   14  C4  LIG X 999      49.683 123.447  20.969  1.00  0.00    -0.024 A 
HETATM   15  C3  LIG X 999      50.886 122.911  20.296  1.00  0.00     0.276 C 
HETATM   16  C16 LIG X 999      49.976 124.603  21.625  1.00  0.00    -0.024 A 
HETATM   17  N1  LIG X 999      52.018 123.789  20.735  1.00  0.00    -0.067 N 
HETATM   18  C1  LIG X 999      52.911 123.043  21.652  1.00  0.00     0.272 C 
HETATM   19  C2  LIG X 999      52.804 124.250  19.568  1.00  0.00     0.272 C 
HETATM   20  C17 LIG X 999      51.403 124.952  21.450  1.00  0.00     0.276 C 
HETATM   21  C15 LIG X 999      49.000 125.317  22.321  1.00  0.00     0.021 A 
HETATM   22  C13 LIG X 999      46.670 125.498  23.030  1.00  0.00     0.044 A 
ENDBRANCH   6   8
ENDBRANCH   1   5
TORSDOF 2
ENDMDL
