REMARK VINA RESULT:      -6.2      2.680      8.102
REMARK  4 active torsions:
REMARK  status: ('A' for Active; 'I' for Inactive)
REMARK    1  A    between atoms: C2_2  and  N1_3 
REMARK    2  A    between atoms: C3_6  and  O1_7 
REMARK    3  A    between atoms: O1_7  and  C4_8 
REMARK    4  A    between atoms: C4_8  and  C5_9 
ROOT
HETATM    1  N1  LIG X 999      44.600 129.655  24.215  1.00  0.00    -0.070 NA
HETATM    2  N2  LIG X 999      44.922 128.479  24.393  1.00  0.00    -0.162 NA
HETATM    3  N3  LIG X 999      45.242 127.305  24.572  1.00  0.00     0.068 N 
ENDROOT
BRANCH   1   4
HETATM    4  C2  LIG X 999      44.386 130.206  22.908  1.00  0.00     0.127 A 
HETATM    5  C1  LIG X 999      45.176 129.813  21.811  1.00  0.00     0.049 A 
HETATM    6  C14 LIG X 999      44.955 130.362  20.541  1.00  0.00    -0.023 A 
HETATM    7  C9  LIG X 999      43.923 131.324  20.363  1.00  0.00    -0.022 A 
HETATM    8  C13 LIG X 999      45.747 129.972  19.444  1.00  0.00     0.021 A 
HETATM    9  C8  LIG X 999      43.139 131.711  21.458  1.00  0.00     0.051 A 
HETATM   10  C10 LIG X 999      43.699 131.881  19.088  1.00  0.00     0.021 A 
HETATM   11  C3  LIG X 999      43.367 131.158  22.733  1.00  0.00     0.102 A 
HETATM   12  C11 LIG X 999      44.501 131.463  18.025  1.00  0.00    -0.024 A 
HETATM   13  C12 LIG X 999      45.489 130.543  18.197  1.00  0.00    -0.024 A 
HETATM   14  C18 LIG X 999      44.460 131.925  16.622  1.00  0.00     0.276 C 
HETATM   15  C15 LIG X 999      46.201 130.302  16.923  1.00  0.00     0.276 C 
HETATM   16  N4  LIG X 999      45.438 131.064  15.884  1.00  0.00    -0.067 N 
HETATM   17  C16 LIG X 999      46.353 131.894  15.068  1.00  0.00     0.272 C 
HETATM   18  C17 LIG X 999      44.716 130.124  14.994  1.00  0.00     0.272 C 
BRANCH  11  19
HETATM   19  O1  LIG X 999      42.603 131.527  23.856  1.00  0.00    -0.337 OA
BRANCH  19  20
HETATM   20  C4  LIG X 999      42.740 132.741  24.591  1.00  0.00     0.269 C 
BRANCH  20  21
HETATM   21  C5  LIG X 999      44.140 133.178  24.602  1.00  0.00    -0.080 C 
HETATM   22  C6  LIG X 999      45.293 133.530  24.612  1.00  0.00    -0.109 C 
HETATM   23  C7  LIG X 999      46.693 133.954  24.625  1.00  0.00     0.112 C 
ENDBRANCH  20  21
ENDBRANCH  19  20
ENDBRANCH  11  19
ENDBRANCH   1   4
TORSDOF 4
