REMARK VINA RESULT:      -7.2      1.934      3.263
REMARK  4 active torsions:
REMARK  status: ('A' for Active; 'I' for Inactive)
REMARK    1  A    between atoms: C1_2  and  C2_4 
REMARK    2  A    between atoms: C8_10  and  C9_11 
REMARK       I    between atoms: C9_11  and  N1_13 
REMARK    3  A    between atoms: N1_13  and  S1_14 
REMARK    4  A    between atoms: S1_14  and  C10_17 
ROOT
HETATM    1  C9  LIG X 999      44.462 131.068  21.648  1.00  0.00     0.259 C 
HETATM    2  O3  LIG X 999      45.302 131.990  21.454  1.00  0.00    -0.270 OA
HETATM    3  N1  LIG X 999      43.293 130.982  20.831  1.00  0.00    -0.122 NA
ENDROOT
BRANCH   3   4
HETATM    4  S1  LIG X 999      43.099 131.936  19.400  1.00  0.00     0.286 S 
HETATM    5  O4  LIG X 999      43.371 133.381  19.709  1.00  0.00    -0.198 OA
HETATM    6  O5  LIG X 999      41.686 131.808  18.907  1.00  0.00    -0.198 OA
BRANCH   4   7
HETATM    7  C10 LIG X 999      44.208 131.342  18.167  1.00  0.00     0.082 A 
HETATM    8  C11 LIG X 999      45.364 130.647  18.546  1.00  0.00     0.026 A 
HETATM    9  C12 LIG X 999      46.280 130.222  17.581  1.00  0.00     0.014 A 
HETATM   10  C13 LIG X 999      46.053 130.495  16.224  1.00  0.00    -0.026 A 
HETATM   11  C14 LIG X 999      46.972 130.080  15.247  1.00  0.00     0.012 A 
HETATM   12  C18 LIG X 999      44.889 131.200  15.837  1.00  0.00    -0.025 A 
HETATM   13  C15 LIG X 999      46.737 130.364  13.899  1.00  0.00     0.001 A 
HETATM   14  C16 LIG X 999      45.587 131.061  13.516  1.00  0.00     0.001 A 
HETATM   15  C17 LIG X 999      44.665 131.480  14.480  1.00  0.00     0.012 A 
HETATM   16  C19 LIG X 999      43.973 131.620  16.813  1.00  0.00     0.037 A 
ENDBRANCH   4   7
ENDBRANCH   3   4
BRANCH   1  17
HETATM   17  C8  LIG X 999      44.707 130.003  22.692  1.00  0.00     0.099 C 
HETATM   18  C2  LIG X 999      44.104 130.317  24.097  1.00  0.00     0.104 C 
HETATM   19  C3  LIG X 999      43.173 129.101  24.339  1.00  0.00     0.001 C 
HETATM   20  C4  LIG X 999      44.051 127.867  24.625  1.00  0.00     0.006 C 
HETATM   21  C7  LIG X 999      42.666 128.782  22.950  1.00  0.00     0.011 C 
HETATM   22  C5  LIG X 999      44.659 127.555  23.246  1.00  0.00     0.006 C 
HETATM   23  C6  LIG X 999      44.046 128.643  22.345  1.00  0.00    -0.000 C 
BRANCH  18  24
HETATM   24  C1  LIG X 999      43.374 131.639  24.211  1.00  0.00     0.178 C 
HETATM   25  O1  LIG X 999      44.011 132.672  24.547  1.00  0.00    -0.648 OA
HETATM   26  O2  LIG X 999      42.023 131.744  23.905  1.00  0.00    -0.648 OA
ENDBRANCH  18  24
ENDBRANCH   1  17
TORSDOF 4
