REMARK VINA RESULT:      -6.3      2.163      4.025
REMARK  1 active torsions:
REMARK  status: ('A' for Active; 'I' for Inactive)
REMARK    1  A    between atoms: C5_8  and  O1_9 
ROOT
HETATM    1  H1  LIG X 999      45.233 131.247  23.255  1.00  0.00     0.187 HD
HETATM    2  N1  LIG X 999      44.529 131.521  22.535  1.00  0.00    -0.300 NA
HETATM    3  C1  LIG X 999      44.749 131.361  21.269  1.00  0.00     0.059 A 
HETATM    4  C2  LIG X 999      46.042 130.768  20.775  1.00  0.00     0.034 A 
HETATM    5  C3  LIG X 999      46.272 130.601  19.452  1.00  0.00     0.035 A 
HETATM    6  C4  LIG X 999      45.226 131.014  18.500  1.00  0.00     0.071 A 
HETATM    7  N2  LIG X 999      45.228 130.946  17.147  1.00  0.00    -0.224 NA
HETATM    8  C5  LIG X 999      44.015 131.462  16.784  1.00  0.00     0.174 A 
HETATM    9  C6  LIG X 999      43.278 131.842  17.894  1.00  0.00     0.030 A 
HETATM   10  C7  LIG X 999      42.016 132.406  18.087  1.00  0.00     0.017 A 
HETATM   11  C8  LIG X 999      41.609 132.652  19.422  1.00  0.00     0.002 A 
HETATM   12  C9  LIG X 999      42.462 132.330  20.516  1.00  0.00     0.015 A 
HETATM   13  C10 LIG X 999      43.730 131.760  20.264  1.00  0.00     0.005 A 
HETATM   14  C11 LIG X 999      44.066 131.547  18.948  1.00  0.00     0.020 A 
ENDROOT
BRANCH   8  15
HETATM   15  O1  LIG X 999      43.592 131.582  15.466  1.00  0.00    -0.344 OA
HETATM   16  H4  LIG X 999      44.208 131.966  14.760  1.00  0.00     0.219 HD
ENDBRANCH   8  15
TORSDOF 1
