REMARK VINA RESULT:      -5.8      1.889      3.913
REMARK  1 active torsions:
REMARK  status: ('A' for Active; 'I' for Inactive)
REMARK    1  A    between atoms: C1_2  and  C2_3 
ROOT
HETATM    1  C2  LIG X 999      44.514 131.380  18.402  1.00  0.00     0.013 A 
HETATM    2  C3  LIG X 999      45.692 130.672  18.706  1.00  0.00     0.015 A 
HETATM    3  C4  LIG X 999      46.021 130.349  20.021  1.00  0.00     0.002 A 
HETATM    4  C5  LIG X 999      45.184 130.723  21.065  1.00  0.00     0.012 A 
HETATM    5  C6  LIG X 999      44.003 131.429  20.807  1.00  0.00    -0.025 A 
HETATM    6  C7  LIG X 999      43.171 131.798  21.875  1.00  0.00     0.012 A 
HETATM    7  C8  LIG X 999      41.991 132.502  21.639  1.00  0.00     0.001 A 
HETATM    8  C9  LIG X 999      41.630 132.841  20.337  1.00  0.00     0.001 A 
HETATM    9  C10 LIG X 999      42.445 132.483  19.260  1.00  0.00     0.013 A 
HETATM   10  C11 LIG X 999      43.649 131.769  19.469  1.00  0.00    -0.013 A 
ENDROOT
BRANCH   1  11
HETATM   11  C1  LIG X 999      44.229 131.689  16.974  1.00  0.00     0.270 C 
HETATM   12  O1  LIG X 999      45.164 131.760  16.130  1.00  0.00    -0.301 OA
ENDBRANCH   1  11
TORSDOF 1
