REMARK VINA RESULT:      -8.6      0.000      0.000
REMARK  1 active torsions:
REMARK  status: ('A' for Active; 'I' for Inactive)
REMARK    1  A    between atoms: C2_2  and  N1_3 
ROOT
HETATM    1  N1  LIG X 999      46.386 130.770  13.743  1.00  0.00    -0.073 NA
HETATM    2  N2  LIG X 999      47.370 130.031  13.748  1.00  0.00    -0.162 NA
HETATM    3  N3  LIG X 999      48.355 129.293  13.751  1.00  0.00     0.068 N 
ENDROOT
BRANCH   1   4
HETATM    4  C2  LIG X 999      45.604 131.015  14.920  1.00  0.00     0.094 A 
HETATM    5  C1  LIG X 999      44.310 131.529  14.773  1.00  0.00     0.035 A 
HETATM    6  C10 LIG X 999      43.512 131.783  15.892  1.00  0.00     0.014 A 
HETATM    7  C9  LIG X 999      43.999 131.525  17.180  1.00  0.00    -0.025 A 
HETATM    8  C4  LIG X 999      45.314 131.003  17.341  1.00  0.00    -0.023 A 
HETATM    9  C8  LIG X 999      43.203 131.781  18.314  1.00  0.00     0.021 A 
HETATM   10  C3  LIG X 999      46.105 130.753  16.209  1.00  0.00     0.046 A 
HETATM   11  C5  LIG X 999      45.810 130.746  18.634  1.00  0.00     0.021 A 
HETATM   12  C6  LIG X 999      44.987 131.005  19.730  1.00  0.00    -0.024 A 
HETATM   13  C7  LIG X 999      43.730 131.505  19.576  1.00  0.00    -0.024 A 
HETATM   14  C14 LIG X 999      45.304 130.833  21.164  1.00  0.00     0.276 C 
HETATM   15  C11 LIG X 999      43.088 131.714  20.892  1.00  0.00     0.276 C 
HETATM   16  N4  LIG X 999      44.033 131.132  21.898  1.00  0.00    -0.067 N 
HETATM   17  C12 LIG X 999      44.278 132.091  22.999  1.00  0.00     0.272 C 
HETATM   18  C13 LIG X 999      43.467 129.884  22.462  1.00  0.00     0.272 C 
ENDBRANCH   1   4
TORSDOF 1
