REMARK VINA RESULT:      -5.7      1.836      3.330
REMARK  1 active torsions:
REMARK  status: ('A' for Active; 'I' for Inactive)
REMARK    1  A    between atoms: C5_8  and  O1_9 
ROOT
HETATM    1  H1  LIG X 999      46.179 130.654  16.565  1.00  0.00     0.187 HD
HETATM    2  N1  LIG X 999      45.313 131.048  16.996  1.00  0.00    -0.300 NA
HETATM    3  C1  LIG X 999      45.119 131.031  18.275  1.00  0.00     0.059 A 
HETATM    4  C2  LIG X 999      46.142 130.439  19.207  1.00  0.00     0.034 A 
HETATM    5  C3  LIG X 999      45.940 130.420  20.546  1.00  0.00     0.035 A 
HETATM    6  C4  LIG X 999      44.689 130.996  21.074  1.00  0.00     0.071 A 
HETATM    7  N2  LIG X 999      44.268 131.091  22.358  1.00  0.00    -0.224 NA
HETATM    8  C5  LIG X 999      43.052 131.704  22.268  1.00  0.00     0.174 A 
HETATM    9  C6  LIG X 999      42.726 131.983  20.949  1.00  0.00     0.030 A 
HETATM   10  C7  LIG X 999      41.637 132.582  20.314  1.00  0.00     0.017 A 
HETATM   11  C8  LIG X 999      41.682 132.685  18.901  1.00  0.00     0.002 A 
HETATM   12  C9  LIG X 999      42.800 132.194  18.170  1.00  0.00     0.015 A 
HETATM   13  C10 LIG X 999      43.876 131.597  18.862  1.00  0.00     0.005 A 
HETATM   14  C11 LIG X 999      43.773 131.526  20.233  1.00  0.00     0.020 A 
ENDROOT
BRANCH   8  15
HETATM   15  O1  LIG X 999      42.254 132.003  23.366  1.00  0.00    -0.344 OA
HETATM   16  H4  LIG X 999      41.246 132.040  23.276  1.00  0.00     0.219 HD
ENDBRANCH   8  15
TORSDOF 1
