REMARK VINA RESULT:      -4.6      1.618      2.504
REMARK  4 active torsions:
REMARK  status: ('A' for Active; 'I' for Inactive)
REMARK    1  A    between atoms: O1_2  and  C1_3 
REMARK    2  A    between atoms: C1_3  and  O4_18 
REMARK       I    between atoms: N1_4  and  C2_5 
REMARK    3  A    between atoms: C2_5  and  C3_7 
REMARK    4  A    between atoms: O4_18  and  C13_19 
ROOT
HETATM    1  C3  LIG X 999      43.356 130.660  22.818  1.00  0.00     0.071 A 
HETATM    2  C4  LIG X 999      44.490 129.824  22.786  1.00  0.00     0.123 A 
HETATM    3  O3  LIG X 999      44.871 129.096  23.909  1.00  0.00    -0.191 OA
HETATM    4  C5  LIG X 999      45.262 129.729  21.624  1.00  0.00     0.053 A 
HETATM    5  C6  LIG X 999      44.930 130.479  20.488  1.00  0.00    -0.023 A 
HETATM    6  C7  LIG X 999      45.703 130.391  19.319  1.00  0.00     0.012 A 
HETATM    7  C8  LIG X 999      45.364 131.148  18.194  1.00  0.00     0.001 A 
HETATM    8  C9  LIG X 999      44.255 131.998  18.227  1.00  0.00     0.001 A 
HETATM    9  C10 LIG X 999      43.478 132.095  19.384  1.00  0.00     0.012 A 
HETATM   10  C11 LIG X 999      43.808 131.340  20.521  1.00  0.00    -0.025 A 
HETATM   11  C12 LIG X 999      43.033 131.428  21.688  1.00  0.00     0.032 A 
ENDROOT
BRANCH   1  12
HETATM   12  C2  LIG X 999      42.519 130.773  24.036  1.00  0.00     0.283 C 
HETATM   13  N1  LIG X 999      41.843 129.646  24.612  1.00  0.00    -0.162 NA
HETATM   14  C1  LIG X 999      41.312 128.659  23.951  1.00  0.00     0.289 C 
HETATM   15  O2  LIG X 999      42.424 131.891  24.610  1.00  0.00    -0.265 OA
BRANCH  14  16
HETATM   16  O1  LIG X 999      41.295 128.664  22.558  1.00  0.00    -0.325 OA
HETATM   17  H1  LIG X 999      41.868 128.017  22.033  1.00  0.00     0.221 HD
ENDBRANCH  14  16
BRANCH  14  18
HETATM   18  O4  LIG X 999      40.718 127.581  24.625  1.00  0.00    -0.294 OA
BRANCH  18  19
HETATM   19  C13 LIG X 999      41.146 126.216  24.550  1.00  0.00     0.224 C 
HETATM   20 CL1  LIG X 999      42.714 126.072  23.703  1.00  0.00    -0.095 Cl
HETATM   21  C14 LIG X 999      40.084 125.334  23.896  1.00  0.00     0.057 C 
ENDBRANCH  18  19
ENDBRANCH  14  18
ENDBRANCH   1  12
TORSDOF 4
