REMARK VINA RESULT:      -5.6      2.525      3.389
REMARK  6 active torsions:
REMARK  status: ('A' for Active; 'I' for Inactive)
REMARK    1  A    between atoms: S1_2  and  C1_3 
REMARK    2  A    between atoms: C1_3  and  N2_15 
REMARK    3  A    between atoms: N1_4  and  C2_5 
REMARK    4  A    between atoms: N2_15  and  C12_17 
REMARK    5  A    between atoms: C12_17  and  C13_18 
REMARK    6  A    between atoms: C13_18  and  C14_19 
ROOT
HETATM    1  C2  LIG X 999      45.288 130.746  18.011  1.00  0.00     0.060 A 
HETATM    2  C3  LIG X 999      45.064 132.020  17.478  1.00  0.00     0.032 A 
HETATM    3  C4  LIG X 999      45.521 132.347  16.199  1.00  0.00     0.014 A 
HETATM    4  C5  LIG X 999      46.232 131.404  15.442  1.00  0.00    -0.026 A 
HETATM    5  C6  LIG X 999      46.696 131.719  14.156  1.00  0.00     0.012 A 
HETATM    6  C7  LIG X 999      47.413 130.774  13.417  1.00  0.00     0.001 A 
HETATM    7  C8  LIG X 999      47.674 129.511  13.955  1.00  0.00     0.001 A 
HETATM    8  C9  LIG X 999      47.217 129.184  15.236  1.00  0.00     0.012 A 
HETATM    9  C10 LIG X 999      46.493 130.123  15.987  1.00  0.00    -0.024 A 
HETATM   10  C11 LIG X 999      46.030 129.807  17.273  1.00  0.00     0.044 A 
ENDROOT
BRANCH   1  11
HETATM   11  N1  LIG X 999      44.843 130.464  19.346  1.00  0.00    -0.225 NA
HETATM   12  C1  LIG X 999      45.302 130.985  20.448  1.00  0.00     0.160 C 
BRANCH  12  13
HETATM   13  S1  LIG X 999      44.485 130.544  21.982  1.00  0.00    -0.105 SA
HETATM   14  H1  LIG X 999      44.372 131.892  22.371  1.00  0.00     0.110 HD
ENDBRANCH  12  13
BRANCH  12  15
HETATM   15  N2  LIG X 999      46.477 131.820  20.456  1.00  0.00    -0.369 N 
HETATM   16  H9  LIG X 999      47.381 131.439  20.098  1.00  0.00     0.161 HD
BRANCH  15  17
HETATM   17  C12 LIG X 999      46.522 133.126  21.110  1.00  0.00     0.122 C 
BRANCH  17  18
HETATM   18  C13 LIG X 999      47.756 133.222  22.015  1.00  0.00     0.030 C 
BRANCH  18  19
HETATM   19  C14 LIG X 999      48.361 134.628  22.021  1.00  0.00     0.088 C 
HETATM   20  S2  LIG X 999      49.697 134.756  23.196  1.00  0.00    -0.098 SA
ENDBRANCH  18  19
ENDBRANCH  17  18
ENDBRANCH  15  17
ENDBRANCH  12  15
ENDBRANCH   1  11
TORSDOF 6
