REMARK VINA RESULT:      -7.3      1.626      2.880
REMARK  3 active torsions:
REMARK  status: ('A' for Active; 'I' for Inactive)
REMARK    1  A    between atoms: C7_9  and  C8_10 
REMARK    2  A    between atoms: C9_13  and  N4_14 
REMARK    3  A    between atoms: N7_23  and  C14_24 
ROOT
HETATM    1  N4  LIG X 999      46.871 131.369  13.899  1.00  0.00    -0.023 NA
HETATM    2  N5  LIG X 999      47.640 130.444  13.641  1.00  0.00    -0.158 NA
HETATM    3  N6  LIG X 999      48.408 129.519  13.383  1.00  0.00     0.068 N 
ENDROOT
BRANCH   1   4
HETATM    4  C9  LIG X 999      45.746 131.166  14.752  1.00  0.00     0.326 A 
HETATM    5  N3  LIG X 999      44.762 130.290  14.490  1.00  0.00    -0.099 NA
HETATM    6  N2  LIG X 999      43.912 130.390  15.502  1.00  0.00    -0.119 NA
HETATM    7  C8  LIG X 999      44.411 131.328  16.332  1.00  0.00     0.205 A 
HETATM    8  O1  LIG X 999      45.547 131.803  15.880  1.00  0.00    -0.252 OA
BRANCH   7   9
HETATM    9  C7  LIG X 999      43.782 131.716  17.611  1.00  0.00     0.032 A 
HETATM   10  C6  LIG X 999      44.314 131.350  18.886  1.00  0.00     0.020 A 
HETATM   11  C1  LIG X 999      45.623 130.691  19.206  1.00  0.00     0.060 A 
HETATM   12  C5  LIG X 999      43.551 131.682  19.989  1.00  0.00     0.019 A 
HETATM   13  N1  LIG X 999      46.525 130.505  18.296  1.00  0.00    -0.299 NA
HETATM   14  C2  LIG X 999      45.924 130.337  20.637  1.00  0.00     0.034 A 
HETATM   15  H1  LIG X 999      47.453 130.079  18.514  1.00  0.00     0.187 HD
HETATM   16  C3  LIG X 999      45.081 130.678  21.633  1.00  0.00     0.033 A 
HETATM   17  C4  LIG X 999      43.849 131.405  21.287  1.00  0.00     0.048 A 
HETATM   18  N7  LIG X 999      42.868 131.886  22.091  1.00  0.00    -0.324 N 
HETATM   19  C13 LIG X 999      41.951 132.455  21.260  1.00  0.00     0.193 A 
HETATM   20  C12 LIG X 999      42.367 132.343  19.944  1.00  0.00     0.032 A 
HETATM   21  O2  LIG X 999      40.770 133.051  21.687  1.00  0.00    -0.171 OA
HETATM   22  C11 LIG X 999      41.828 132.753  18.731  1.00  0.00     0.018 A 
HETATM   23  C10 LIG X 999      42.548 132.437  17.557  1.00  0.00     0.018 A 
BRANCH  18  24
HETATM   24  C14 LIG X 999      42.766 131.745  23.543  1.00  0.00     0.127 C 
HETATM   25  C15 LIG X 999      42.369 130.321  23.910  1.00  0.00     0.027 C 
ENDBRANCH  18  24
ENDBRANCH   7   9
ENDBRANCH   1   4
TORSDOF 3
