REMARK VINA RESULT:      -8.3      1.069      1.942
REMARK  3 active torsions:
REMARK  status: ('A' for Active; 'I' for Inactive)
REMARK    1  A    between atoms: C6_6  and  C7_7 
REMARK    2  A    between atoms: C7_7  and  N1_8 
REMARK    3  A    between atoms: C8_12  and  N4_13 
ROOT
HETATM    1  N1  LIG X 999      44.415 130.216  15.145  1.00  0.00    -0.065 NA
HETATM    2  N2  LIG X 999      43.770 131.000  14.447  1.00  0.00    -0.164 NA
HETATM    3  N3  LIG X 999      43.125 131.781  13.750  1.00  0.00     0.068 N 
ENDROOT
BRANCH   1   4
HETATM    4  C7  LIG X 999      45.460 130.678  16.057  1.00  0.00     0.267 A 
HETATM    5  O1  LIG X 999      46.259 131.705  15.512  1.00  0.00    -0.314 OA
HETATM    6  C8  LIG X 999      46.877 130.447  15.683  1.00  0.00     0.349 A 
BRANCH   4   7
HETATM    7  C6  LIG X 999      45.095 130.908  17.491  1.00  0.00     0.007 A 
HETATM    8  C5  LIG X 999      43.894 131.554  17.819  1.00  0.00     0.024 A 
HETATM    9  C4  LIG X 999      43.539 131.748  19.162  1.00  0.00    -0.025 A 
HETATM   10  C3  LIG X 999      42.343 132.402  19.500  1.00  0.00     0.012 A 
HETATM   11  C11 LIG X 999      44.394 131.279  20.190  1.00  0.00    -0.026 A 
HETATM   12  C2  LIG X 999      42.000 132.589  20.842  1.00  0.00     0.001 A 
HETATM   13  C1  LIG X 999      42.844 132.125  21.855  1.00  0.00     0.001 A 
HETATM   14  C12 LIG X 999      44.038 131.472  21.533  1.00  0.00     0.012 A 
HETATM   15  C10 LIG X 999      45.586 130.621  19.853  1.00  0.00     0.013 A 
HETATM   16  C9  LIG X 999      45.930 130.433  18.512  1.00  0.00     0.013 A 
ENDBRANCH   4   7
BRANCH   6  17
HETATM   17  N4  LIG X 999      47.093 129.813  14.393  1.00  0.00    -0.077 NA
HETATM   18  N5  LIG X 999      47.541 130.464  13.450  1.00  0.00    -0.165 NA
HETATM   19  N6  LIG X 999      47.989 131.114  12.508  1.00  0.00     0.068 N 
ENDBRANCH   6  17
ENDBRANCH   1   4
TORSDOF 3
