REMARK VINA RESULT:      -5.1      1.305      2.431
REMARK  3 active torsions:
REMARK  status: ('A' for Active; 'I' for Inactive)
REMARK    1  A    between atoms: C2_2  and  O1_3 
REMARK    2  A    between atoms: O1_3  and  C3_4 
REMARK       I    between atoms: C3_4  and  N1_6 
REMARK    3  A    between atoms: N1_6  and  C4_7 
ROOT
HETATM    1  C4  LIG X 999      44.869 131.701  15.360  1.00  0.00     0.063 A 
HETATM    2  C5  LIG X 999      43.487 131.931  15.363  1.00  0.00     0.032 A 
HETATM    3  C6  LIG X 999      42.762 131.911  16.558  1.00  0.00     0.014 A 
HETATM    4  C7  LIG X 999      43.414 131.676  17.774  1.00  0.00    -0.025 A 
HETATM    5  C8  LIG X 999      42.693 131.657  18.984  1.00  0.00     0.021 A 
HETATM    6  C9  LIG X 999      43.387 131.425  20.173  1.00  0.00    -0.024 A 
HETATM    7  C10 LIG X 999      44.734 131.228  20.184  1.00  0.00    -0.024 A 
HETATM    8  C11 LIG X 999      45.487 131.248  19.010  1.00  0.00     0.021 A 
HETATM    9  C12 LIG X 999      44.824 131.468  17.787  1.00  0.00    -0.023 A 
HETATM   10  C13 LIG X 999      45.539 131.493  16.581  1.00  0.00     0.044 A 
HETATM   11  C14 LIG X 999      45.219 131.038  21.569  1.00  0.00     0.276 C 
HETATM   12  N2  LIG X 999      43.990 130.974  22.421  1.00  0.00    -0.067 N 
HETATM   13  C15 LIG X 999      43.783 129.590  22.911  1.00  0.00     0.272 C 
HETATM   14  C16 LIG X 999      44.111 131.883  23.584  1.00  0.00     0.272 C 
HETATM   15  C17 LIG X 999      42.844 131.385  21.547  1.00  0.00     0.276 C 
ENDROOT
BRANCH   1  16
HETATM   16  N1  LIG X 999      45.569 131.746  14.109  1.00  0.00    -0.188 NA
HETATM   17  C3  LIG X 999      46.879 131.226  13.863  1.00  0.00     0.387 C 
HETATM   18  O2  LIG X 999      47.473 131.540  12.797  1.00  0.00    -0.236 OA
BRANCH  17  19
HETATM   19  O1  LIG X 999      47.473 130.340  14.767  1.00  0.00    -0.303 OA
BRANCH  19  20
HETATM   20  C2  LIG X 999      47.803 128.997  14.428  1.00  0.00     0.176 C 
HETATM   21  C1  LIG X 999      48.912 128.995  13.388  1.00  0.00     0.034 C 
ENDBRANCH  19  20
ENDBRANCH  17  19
ENDBRANCH   1  16
TORSDOF 3
