REMARK VINA RESULT:      -5.0      6.561      8.330
REMARK  1 active torsions:
REMARK  status: ('A' for Active; 'I' for Inactive)
REMARK    1  A    between atoms: C3_3  and  N1_4 
ROOT
HETATM    1  N1  LIG X 999      44.268 130.246  22.560  1.00  0.00    -0.072 NA
HETATM    2  N2  LIG X 999      43.761 130.996  21.724  1.00  0.00    -0.162 NA
HETATM    3  N3  LIG X 999      43.257 131.748  20.892  1.00  0.00     0.068 N 
ENDROOT
BRANCH   1   4
HETATM    4  C3  LIG X 999      43.549 129.144  23.133  1.00  0.00     0.104 A 
HETATM    5  C2  LIG X 999      42.325 129.426  23.752  1.00  0.00     0.035 A 
HETATM    6  C1  LIG X 999      41.530 128.403  24.268  1.00  0.00     0.003 A 
HETATM    7  C10 LIG X 999      41.948 127.077  24.186  1.00  0.00     0.012 A 
HETATM    8  C9  LIG X 999      43.187 126.762  23.614  1.00  0.00    -0.023 A 
HETATM    9  C4  LIG X 999      44.020 127.804  23.094  1.00  0.00     0.006 A 
HETATM   10  C8  LIG X 999      43.618 125.421  23.570  1.00  0.00     0.021 A 
HETATM   11  C5  LIG X 999      45.302 127.464  22.599  1.00  0.00     0.024 A 
HETATM   12  C6  LIG X 999      45.692 126.124  22.584  1.00  0.00    -0.023 A 
HETATM   13  C7  LIG X 999      44.876 125.139  23.044  1.00  0.00    -0.024 A 
HETATM   14  C14 LIG X 999      46.967 125.558  22.097  1.00  0.00     0.276 C 
HETATM   15  C11 LIG X 999      45.525 123.818  22.905  1.00  0.00     0.276 C 
HETATM   16  N4  LIG X 999      46.920 124.099  22.437  1.00  0.00    -0.067 N 
HETATM   17  C12 LIG X 999      47.248 123.276  21.250  1.00  0.00     0.272 C 
HETATM   18  C13 LIG X 999      47.889 123.798  23.517  1.00  0.00     0.272 C 
ENDBRANCH   1   4
TORSDOF 1
