MODEL 1
REMARK VINA RESULT:      -8.9      0.000      0.000
REMARK  7 active torsions:
REMARK  status: ('A' for Active; 'I' for Inactive)
REMARK    1  A    between atoms: O1_2  and  C1_3 
REMARK    2  A    between atoms: C1_3  and  C14_20 
REMARK    3  A    between atoms: N1_4  and  C2_5 
REMARK    4  A    between atoms: C2_5  and  O2_6 
REMARK    5  A    between atoms: O2_6  and  C3_7 
REMARK    6  A    between atoms: C3_7  and  O4_9 
REMARK    7  A    between atoms: O4_9  and  C4_10 
ROOT
HETATM    1  C3  LIG X 999      45.031 131.373  19.794  1.00  0.00     0.413 C 
HETATM    2  O3  LIG X 999      46.001 131.611  20.565  1.00  0.00    -0.229 OA
ENDROOT
BRANCH   1   3
HETATM    3  O2  LIG X 999      43.829 132.070  19.936  1.00  0.00    -0.276 OA
BRANCH   3   4
HETATM    4  C2  LIG X 999      42.742 131.578  20.714  1.00  0.00     0.332 C 
BRANCH   4   5
HETATM    5  N1  LIG X 999      42.836 132.090  22.078  1.00  0.00    -0.238 NA
HETATM    6  C1  LIG X 999      43.101 131.417  23.165  1.00  0.00     0.190 C 
BRANCH   6   7
HETATM    7  O1  LIG X 999      43.132 132.102  24.376  1.00  0.00    -0.343 OA
HETATM    8  H1  LIG X 999      43.613 131.721  25.183  1.00  0.00     0.219 HD
ENDBRANCH   6   7
BRANCH   6   9
HETATM    9  C14 LIG X 999      43.369 129.957  23.191  1.00  0.00     0.130 A 
HETATM   10  N2  LIG X 999      44.501 129.356  22.771  1.00  0.00    -0.169 NA
HETATM   11  N3  LIG X 999      44.351 128.055  22.946  1.00  0.00    -0.285 N 
HETATM   12  C15 LIG X 999      45.387 127.072  22.659  1.00  0.00     0.179 C 
HETATM   13  C16 LIG X 999      43.151 127.800  23.498  1.00  0.00     0.114 A 
HETATM   14  C17 LIG X 999      42.489 128.998  23.664  1.00  0.00     0.056 A 
ENDBRANCH   6   9
ENDBRANCH   4   5
ENDBRANCH   3   4
ENDBRANCH   1   3
BRANCH   1  15
HETATM   15  O4  LIG X 999      45.149 130.437  18.762  1.00  0.00    -0.256 OA
BRANCH  15  16
HETATM   16  C4  LIG X 999      45.636 130.713  17.476  1.00  0.00     0.082 A 
HETATM   17  C5  LIG X 999      45.301 131.936  16.885  1.00  0.00     0.038 A 
HETATM   18  C6  LIG X 999      45.749 132.255  15.600  1.00  0.00     0.015 A 
HETATM   19  C7  LIG X 999      46.532 131.342  14.881  1.00  0.00    -0.026 A 
HETATM   20  C8  LIG X 999      46.986 131.650  13.589  1.00  0.00     0.012 A 
HETATM   21  C12 LIG X 999      46.862 130.094  15.460  1.00  0.00    -0.023 A 
HETATM   22  C9  LIG X 999      47.758 130.726  12.878  1.00  0.00     0.001 A 
HETATM   23  C10 LIG X 999      48.080 129.492  13.449  1.00  0.00     0.001 A 
HETATM   24  C11 LIG X 999      47.635 129.174  14.735  1.00  0.00     0.012 A 
HETATM   25  C13 LIG X 999      46.408 129.785  16.752  1.00  0.00     0.049 A 
ENDBRANCH  15  16
ENDBRANCH   1  15
TORSDOF 7
ENDMDL
MODEL 2
REMARK VINA RESULT:      -8.6      1.180      2.082
REMARK  7 active torsions:
REMARK  status: ('A' for Active; 'I' for Inactive)
REMARK    1  A    between atoms: O1_2  and  C1_3 
REMARK    2  A    between atoms: C1_3  and  C14_20 
REMARK    3  A    between atoms: N1_4  and  C2_5 
REMARK    4  A    between atoms: C2_5  and  O2_6 
REMARK    5  A    between atoms: O2_6  and  C3_7 
REMARK    6  A    between atoms: C3_7  and  O4_9 
REMARK    7  A    between atoms: O4_9  and  C4_10 
ROOT
HETATM    1  C3  LIG X 999      43.551 131.812  18.899  1.00  0.00     0.413 C 
HETATM    2  O3  LIG X 999      42.354 131.759  18.504  1.00  0.00    -0.229 OA
ENDROOT
BRANCH   1   3
HETATM    3  O2  LIG X 999      43.899 131.340  20.166  1.00  0.00    -0.276 OA
BRANCH   3   4
HETATM    4  C2  LIG X 999      42.982 131.315  21.256  1.00  0.00     0.332 C 
BRANCH   4   5
HETATM    5  N1  LIG X 999      43.678 131.648  22.496  1.00  0.00    -0.238 NA
HETATM    6  C1  LIG X 999      44.080 130.828  23.429  1.00  0.00     0.190 C 
BRANCH   6   7
HETATM    7  O1  LIG X 999      44.719 131.358  24.546  1.00  0.00    -0.343 OA
HETATM    8  H1  LIG X 999      45.412 130.825  25.057  1.00  0.00     0.219 HD
ENDBRANCH   6   7
BRANCH   6   9
HETATM    9  C14 LIG X 999      43.893 129.356  23.374  1.00  0.00     0.130 A 
HETATM   10  N2  LIG X 999      42.831 128.678  23.853  1.00  0.00    -0.169 NA
HETATM   11  N3  LIG X 999      43.042 127.393  23.624  1.00  0.00    -0.285 N 
HETATM   12  C15 LIG X 999      42.087 126.343  23.951  1.00  0.00     0.179 C 
HETATM   13  C16 LIG X 999      44.211 127.226  22.981  1.00  0.00     0.114 A 
HETATM   14  C17 LIG X 999      44.790 128.465  22.809  1.00  0.00     0.056 A 
ENDBRANCH   6   9
ENDBRANCH   4   5
ENDBRANCH   3   4
ENDBRANCH   1   3
BRANCH   1  15
HETATM   15  O4  LIG X 999      44.559 132.309  18.066  1.00  0.00    -0.256 OA
BRANCH  15  16
HETATM   16  C4  LIG X 999      45.288 131.548  17.140  1.00  0.00     0.082 A 
HETATM   17  C5  LIG X 999      45.571 130.213  17.452  1.00  0.00     0.038 A 
HETATM   18  C6  LIG X 999      46.305 129.415  16.572  1.00  0.00     0.015 A 
HETATM   19  C7  LIG X 999      46.781 129.949  15.366  1.00  0.00    -0.026 A 
HETATM   20  C8  LIG X 999      47.522 129.157  14.475  1.00  0.00     0.012 A 
HETATM   21  C12 LIG X 999      46.518 131.303  15.049  1.00  0.00    -0.023 A 
HETATM   22  C9  LIG X 999      48.000 129.706  13.281  1.00  0.00     0.001 A 
HETATM   23  C10 LIG X 999      47.743 131.043  12.969  1.00  0.00     0.001 A 
HETATM   24  C11 LIG X 999      47.006 131.841  13.848  1.00  0.00     0.012 A 
HETATM   25  C13 LIG X 999      45.777 132.095  15.940  1.00  0.00     0.049 A 
ENDBRANCH  15  16
ENDBRANCH   1  15
TORSDOF 7
ENDMDL
MODEL 3
REMARK VINA RESULT:      -8.0      1.369      1.829
REMARK  7 active torsions:
REMARK  status: ('A' for Active; 'I' for Inactive)
REMARK    1  A    between atoms: O1_2  and  C1_3 
REMARK    2  A    between atoms: C1_3  and  C14_20 
REMARK    3  A    between atoms: N1_4  and  C2_5 
REMARK    4  A    between atoms: C2_5  and  O2_6 
REMARK    5  A    between atoms: O2_6  and  C3_7 
REMARK    6  A    between atoms: C3_7  and  O4_9 
REMARK    7  A    between atoms: O4_9  and  C4_10 
ROOT
HETATM    1  C3  LIG X 999      45.157 131.346  19.849  1.00  0.00     0.413 C 
HETATM    2  O3  LIG X 999      44.991 132.592  19.956  1.00  0.00    -0.229 OA
ENDROOT
BRANCH   1   3
HETATM    3  O2  LIG X 999      45.662 130.606  20.920  1.00  0.00    -0.276 OA
BRANCH   3   4
HETATM    4  C2  LIG X 999      44.835 129.814  21.766  1.00  0.00     0.332 C 
BRANCH   4   5
HETATM    5  N1  LIG X 999      43.846 130.661  22.426  1.00  0.00    -0.238 NA
HETATM    6  C1  LIG X 999      42.857 130.285  23.191  1.00  0.00     0.190 C 
BRANCH   6   7
HETATM    7  O1  LIG X 999      42.016 131.262  23.715  1.00  0.00    -0.343 OA
HETATM    8  H1  LIG X 999      41.863 132.138  23.229  1.00  0.00     0.219 HD
ENDBRANCH   6   7
BRANCH   6   9
HETATM    9  C14 LIG X 999      42.571 128.870  23.537  1.00  0.00     0.130 A 
HETATM   10  N2  LIG X 999      41.347 128.308  23.607  1.00  0.00    -0.169 NA
HETATM   11  N3  LIG X 999      41.508 127.042  23.953  1.00  0.00    -0.285 N 
HETATM   12  C15 LIG X 999      40.414 126.089  24.077  1.00  0.00     0.179 C 
HETATM   13  C16 LIG X 999      42.817 126.764  24.084  1.00  0.00     0.114 A 
HETATM   14  C17 LIG X 999      43.531 127.916  23.831  1.00  0.00     0.056 A 
ENDBRANCH   6   9
ENDBRANCH   4   5
ENDBRANCH   3   4
ENDBRANCH   1   3
BRANCH   1  15
HETATM   15  O4  LIG X 999      44.805 130.674  18.673  1.00  0.00    -0.256 OA
BRANCH  15  16
HETATM   16  C4  LIG X 999      45.410 130.868  17.423  1.00  0.00     0.082 A 
HETATM   17  C5  LIG X 999      45.210 132.089  16.768  1.00  0.00     0.038 A 
HETATM   18  C6  LIG X 999      45.780 132.328  15.515  1.00  0.00     0.015 A 
HETATM   19  C7  LIG X 999      46.549 131.337  14.889  1.00  0.00    -0.026 A 
HETATM   20  C8  LIG X 999      47.123 131.565  13.629  1.00  0.00     0.012 A 
HETATM   21  C12 LIG X 999      46.742 130.091  15.533  1.00  0.00    -0.023 A 
HETATM   22  C9  LIG X 999      47.879 130.564  13.012  1.00  0.00     0.001 A 
HETATM   23  C10 LIG X 999      48.067 129.333  13.646  1.00  0.00     0.001 A 
HETATM   24  C11 LIG X 999      47.501 129.094  14.901  1.00  0.00     0.012 A 
HETATM   25  C13 LIG X 999      46.167 129.863  16.793  1.00  0.00     0.049 A 
ENDBRANCH  15  16
ENDBRANCH   1  15
TORSDOF 7
ENDMDL
MODEL 4
REMARK VINA RESULT:      -7.7      1.555      2.378
REMARK  7 active torsions:
REMARK  status: ('A' for Active; 'I' for Inactive)
REMARK    1  A    between atoms: O1_2  and  C1_3 
REMARK    2  A    between atoms: C1_3  and  C14_20 
REMARK    3  A    between atoms: N1_4  and  C2_5 
REMARK    4  A    between atoms: C2_5  and  O2_6 
REMARK    5  A    between atoms: O2_6  and  C3_7 
REMARK    6  A    between atoms: C3_7  and  O4_9 
REMARK    7  A    between atoms: O4_9  and  C4_10 
ROOT
HETATM    1  C3  LIG X 999      45.120 131.355  19.835  1.00  0.00     0.413 C 
HETATM    2  O3  LIG X 999      44.855 132.581  19.968  1.00  0.00    -0.229 OA
ENDROOT
BRANCH   1   3
HETATM    3  O2  LIG X 999      45.720 130.645  20.878  1.00  0.00    -0.276 OA
BRANCH   3   4
HETATM    4  C2  LIG X 999      45.289 129.345  21.271  1.00  0.00     0.332 C 
BRANCH   4   5
HETATM    5  N1  LIG X 999      44.678 129.405  22.595  1.00  0.00    -0.238 NA
HETATM    6  C1  LIG X 999      44.403 128.408  23.392  1.00  0.00     0.190 C 
BRANCH   6   7
HETATM    7  O1  LIG X 999      43.805 128.686  24.618  1.00  0.00    -0.343 OA
HETATM    8  H1  LIG X 999      43.138 128.046  25.034  1.00  0.00     0.219 HD
ENDBRANCH   6   7
BRANCH   6   9
HETATM    9  C14 LIG X 999      44.688 126.987  23.069  1.00  0.00     0.130 A 
HETATM   10  N2  LIG X 999      43.766 126.039  22.803  1.00  0.00    -0.169 NA
HETATM   11  N3  LIG X 999      44.412 124.908  22.576  1.00  0.00    -0.285 N 
HETATM   12  C15 LIG X 999      43.758 123.663  22.199  1.00  0.00     0.179 C 
HETATM   13  C16 LIG X 999      45.738 125.109  22.663  1.00  0.00     0.114 A 
HETATM   14  C17 LIG X 999      45.954 126.432  22.985  1.00  0.00     0.056 A 
ENDBRANCH   6   9
ENDBRANCH   4   5
ENDBRANCH   3   4
ENDBRANCH   1   3
BRANCH   1  15
HETATM   15  O4  LIG X 999      44.787 130.673  18.660  1.00  0.00    -0.256 OA
BRANCH  15  16
HETATM   16  C4  LIG X 999      45.396 130.874  17.412  1.00  0.00     0.082 A 
HETATM   17  C5  LIG X 999      45.190 132.095  16.760  1.00  0.00     0.038 A 
HETATM   18  C6  LIG X 999      45.761 132.341  15.509  1.00  0.00     0.015 A 
HETATM   19  C7  LIG X 999      46.541 131.357  14.884  1.00  0.00    -0.026 A 
HETATM   20  C8  LIG X 999      47.118 131.592  13.627  1.00  0.00     0.012 A 
HETATM   21  C12 LIG X 999      46.740 130.111  15.525  1.00  0.00    -0.023 A 
HETATM   22  C9  LIG X 999      47.884 130.598  13.010  1.00  0.00     0.001 A 
HETATM   23  C10 LIG X 999      48.078 129.367  13.641  1.00  0.00     0.001 A 
HETATM   24  C11 LIG X 999      47.509 129.121  14.894  1.00  0.00     0.012 A 
HETATM   25  C13 LIG X 999      46.163 129.876  16.783  1.00  0.00     0.049 A 
ENDBRANCH  15  16
ENDBRANCH   1  15
TORSDOF 7
ENDMDL
MODEL 5
REMARK VINA RESULT:      -7.1      3.184      8.153
REMARK  7 active torsions:
REMARK  status: ('A' for Active; 'I' for Inactive)
REMARK    1  A    between atoms: O1_2  and  C1_3 
REMARK    2  A    between atoms: C1_3  and  C14_20 
REMARK    3  A    between atoms: N1_4  and  C2_5 
REMARK    4  A    between atoms: C2_5  and  O2_6 
REMARK    5  A    between atoms: O2_6  and  C3_7 
REMARK    6  A    between atoms: C3_7  and  O4_9 
REMARK    7  A    between atoms: O4_9  and  C4_10 
ROOT
HETATM    1  C3  LIG X 999      44.004 131.937  20.202  1.00  0.00     0.413 C 
HETATM    2  O3  LIG X 999      42.776 132.143  19.996  1.00  0.00    -0.229 OA
ENDROOT
BRANCH   1   3
HETATM    3  O2  LIG X 999      44.929 132.092  19.167  1.00  0.00    -0.276 OA
BRANCH   3   4
HETATM    4  C2  LIG X 999      45.009 131.191  18.066  1.00  0.00     0.332 C 
BRANCH   4   5
HETATM    5  N1  LIG X 999      44.040 131.574  17.043  1.00  0.00    -0.238 NA
HETATM    6  C1  LIG X 999      44.148 131.429  15.750  1.00  0.00     0.190 C 
BRANCH   6   7
HETATM    7  O1  LIG X 999      43.104 131.876  14.944  1.00  0.00    -0.343 OA
HETATM    8  H1  LIG X 999      42.856 132.858  14.904  1.00  0.00     0.219 HD
ENDBRANCH   6   7
BRANCH   6   9
HETATM    9  C14 LIG X 999      45.322 130.815  15.080  1.00  0.00     0.130 A 
HETATM   10  N2  LIG X 999      46.099 131.408  14.151  1.00  0.00    -0.169 NA
HETATM   11  N3  LIG X 999      47.028 130.539  13.794  1.00  0.00    -0.285 N 
HETATM   12  C15 LIG X 999      48.092 130.833  12.845  1.00  0.00     0.179 C 
HETATM   13  C16 LIG X 999      46.886 129.399  14.493  1.00  0.00     0.114 A 
HETATM   14  C17 LIG X 999      45.795 129.537  15.326  1.00  0.00     0.056 A 
ENDBRANCH   6   9
ENDBRANCH   4   5
ENDBRANCH   3   4
ENDBRANCH   1   3
BRANCH   1  15
HETATM   15  O4  LIG X 999      44.469 131.588  21.474  1.00  0.00    -0.256 OA
BRANCH  15  16
HETATM   16  C4  LIG X 999      44.182 130.384  22.134  1.00  0.00     0.082 A 
HETATM   17  C5  LIG X 999      43.075 130.340  22.989  1.00  0.00     0.038 A 
HETATM   18  C6  LIG X 999      42.753 129.170  23.681  1.00  0.00     0.015 A 
HETATM   19  C7  LIG X 999      43.549 128.024  23.537  1.00  0.00    -0.026 A 
HETATM   20  C8  LIG X 999      43.236 126.844  24.229  1.00  0.00     0.012 A 
HETATM   21  C12 LIG X 999      44.682 128.062  22.690  1.00  0.00    -0.023 A 
HETATM   22  C9  LIG X 999      44.044 125.712  24.084  1.00  0.00     0.001 A 
HETATM   23  C10 LIG X 999      45.165 125.750  23.251  1.00  0.00     0.001 A 
HETATM   24  C11 LIG X 999      45.486 126.920  22.555  1.00  0.00     0.012 A 
HETATM   25  C13 LIG X 999      44.994 129.243  21.998  1.00  0.00     0.049 A 
ENDBRANCH  15  16
ENDBRANCH   1  15
TORSDOF 7
ENDMDL
MODEL 6
REMARK VINA RESULT:      -7.0      1.795      2.258
REMARK  7 active torsions:
REMARK  status: ('A' for Active; 'I' for Inactive)
REMARK    1  A    between atoms: O1_2  and  C1_3 
REMARK    2  A    between atoms: C1_3  and  C14_20 
REMARK    3  A    between atoms: N1_4  and  C2_5 
REMARK    4  A    between atoms: C2_5  and  O2_6 
REMARK    5  A    between atoms: O2_6  and  C3_7 
REMARK    6  A    between atoms: C3_7  and  O4_9 
REMARK    7  A    between atoms: O4_9  and  C4_10 
ROOT
HETATM    1  C3  LIG X 999      45.111 131.217  20.981  1.00  0.00     0.413 C 
HETATM    2  O3  LIG X 999      45.742 132.279  21.235  1.00  0.00    -0.229 OA
ENDROOT
BRANCH   1   3
HETATM    3  O2  LIG X 999      43.955 130.894  21.696  1.00  0.00    -0.276 OA
BRANCH   3   4
HETATM    4  C2  LIG X 999      43.989 130.216  22.948  1.00  0.00     0.332 C 
BRANCH   4   5
HETATM    5  N1  LIG X 999      42.628 129.985  23.423  1.00  0.00    -0.238 NA
HETATM    6  C1  LIG X 999      42.102 128.857  23.818  1.00  0.00     0.190 C 
BRANCH   6   7
HETATM    7  O1  LIG X 999      40.771 128.853  24.225  1.00  0.00    -0.343 OA
HETATM    8  H1  LIG X 999      40.355 129.664  24.667  1.00  0.00     0.219 HD
ENDBRANCH   6   7
BRANCH   6   9
HETATM    9  C14 LIG X 999      42.840 127.569  23.858  1.00  0.00     0.130 A 
HETATM   10  N2  LIG X 999      42.530 126.461  23.154  1.00  0.00    -0.169 NA
HETATM   11  N3  LIG X 999      43.412 125.529  23.469  1.00  0.00    -0.285 N 
HETATM   12  C15 LIG X 999      43.440 124.202  22.868  1.00  0.00     0.179 C 
HETATM   13  C16 LIG X 999      44.306 126.018  24.346  1.00  0.00     0.114 A 
HETATM   14  C17 LIG X 999      43.967 127.325  24.625  1.00  0.00     0.056 A 
ENDBRANCH   6   9
ENDBRANCH   4   5
ENDBRANCH   3   4
ENDBRANCH   1   3
BRANCH   1  15
HETATM   15  O4  LIG X 999      45.532 130.360  19.959  1.00  0.00    -0.256 OA
BRANCH  15  16
HETATM   16  C4  LIG X 999      45.427 130.631  18.587  1.00  0.00     0.082 A 
HETATM   17  C5  LIG X 999      44.362 131.424  18.144  1.00  0.00     0.038 A 
HETATM   18  C6  LIG X 999      44.204 131.713  16.786  1.00  0.00     0.015 A 
HETATM   19  C7  LIG X 999      45.107 131.198  15.846  1.00  0.00    -0.026 A 
HETATM   20  C8  LIG X 999      44.957 131.479  14.479  1.00  0.00     0.012 A 
HETATM   21  C12 LIG X 999      46.177 130.378  16.280  1.00  0.00    -0.023 A 
HETATM   22  C9  LIG X 999      45.858 130.949  13.551  1.00  0.00     0.001 A 
HETATM   23  C10 LIG X 999      46.912 130.138  13.979  1.00  0.00     0.001 A 
HETATM   24  C11 LIG X 999      47.073 129.852  15.337  1.00  0.00     0.012 A 
HETATM   25  C13 LIG X 999      46.327 130.097  17.646  1.00  0.00     0.049 A 
ENDBRANCH  15  16
ENDBRANCH   1  15
TORSDOF 7
ENDMDL
MODEL 7
REMARK VINA RESULT:      -6.9      3.893      5.402
REMARK  7 active torsions:
REMARK  status: ('A' for Active; 'I' for Inactive)
REMARK    1  A    between atoms: O1_2  and  C1_3 
REMARK    2  A    between atoms: C1_3  and  C14_20 
REMARK    3  A    between atoms: N1_4  and  C2_5 
REMARK    4  A    between atoms: C2_5  and  O2_6 
REMARK    5  A    between atoms: O2_6  and  C3_7 
REMARK    6  A    between atoms: C3_7  and  O4_9 
REMARK    7  A    between atoms: O4_9  and  C4_10 
ROOT
HETATM    1  C3  LIG X 999      44.977 131.608  19.866  1.00  0.00     0.413 C 
HETATM    2  O3  LIG X 999      43.910 132.236  20.105  1.00  0.00    -0.229 OA
ENDROOT
BRANCH   1   3
HETATM    3  O2  LIG X 999      46.120 131.838  20.636  1.00  0.00    -0.276 OA
BRANCH   3   4
HETATM    4  C2  LIG X 999      46.677 133.137  20.815  1.00  0.00     0.332 C 
BRANCH   4   5
HETATM    5  N1  LIG X 999      47.075 133.317  22.208  1.00  0.00    -0.238 NA
HETATM    6  C1  LIG X 999      47.855 134.241  22.702  1.00  0.00     0.190 C 
BRANCH   6   7
HETATM    7  O1  LIG X 999      48.117 134.225  24.069  1.00  0.00    -0.343 OA
HETATM    8  H1  LIG X 999      47.447 134.585  24.737  1.00  0.00     0.219 HD
ENDBRANCH   6   7
BRANCH   6   9
HETATM    9  C14 LIG X 999      48.484 135.313  21.891  1.00  0.00     0.130 A 
HETATM   10  N2  LIG X 999      47.840 136.141  21.044  1.00  0.00    -0.169 NA
HETATM   11  N3  LIG X 999      48.742 136.944  20.507  1.00  0.00    -0.285 N 
HETATM   12  C15 LIG X 999      48.422 138.019  19.577  1.00  0.00     0.179 C 
HETATM   13  C16 LIG X 999      49.959 136.670  21.009  1.00  0.00     0.114 A 
HETATM   14  C17 LIG X 999      49.834 135.623  21.897  1.00  0.00     0.056 A 
ENDBRANCH   6   9
ENDBRANCH   4   5
ENDBRANCH   3   4
ENDBRANCH   1   3
BRANCH   1  15
HETATM   15  O4  LIG X 999      45.030 130.644  18.854  1.00  0.00    -0.256 OA
BRANCH  15  16
HETATM   16  C4  LIG X 999      45.541 130.856  17.565  1.00  0.00     0.082 A 
HETATM   17  C5  LIG X 999      45.243 132.062  16.921  1.00  0.00     0.038 A 
HETATM   18  C6  LIG X 999      45.715 132.318  15.631  1.00  0.00     0.015 A 
HETATM   19  C7  LIG X 999      46.486 131.359  14.959  1.00  0.00    -0.026 A 
HETATM   20  C8  LIG X 999      46.964 131.604  13.663  1.00  0.00     0.012 A 
HETATM   21  C12 LIG X 999      46.778 130.127  15.593  1.00  0.00    -0.023 A 
HETATM   22  C9  LIG X 999      47.722 130.634  13.000  1.00  0.00     0.001 A 
HETATM   23  C10 LIG X 999      48.008 129.417  13.625  1.00  0.00     0.001 A 
HETATM   24  C11 LIG X 999      47.538 129.162  14.916  1.00  0.00     0.012 A 
HETATM   25  C13 LIG X 999      46.300 129.882  16.890  1.00  0.00     0.049 A 
ENDBRANCH  15  16
ENDBRANCH   1  15
TORSDOF 7
ENDMDL
MODEL 8
REMARK VINA RESULT:      -6.8      2.867      7.919
REMARK  7 active torsions:
REMARK  status: ('A' for Active; 'I' for Inactive)
REMARK    1  A    between atoms: O1_2  and  C1_3 
REMARK    2  A    between atoms: C1_3  and  C14_20 
REMARK    3  A    between atoms: N1_4  and  C2_5 
REMARK    4  A    between atoms: C2_5  and  O2_6 
REMARK    5  A    between atoms: O2_6  and  C3_7 
REMARK    6  A    between atoms: C3_7  and  O4_9 
REMARK    7  A    between atoms: O4_9  and  C4_10 
ROOT
HETATM    1  C3  LIG X 999      44.384 130.714  22.036  1.00  0.00     0.413 C 
HETATM    2  O3  LIG X 999      43.531 131.641  22.102  1.00  0.00    -0.229 OA
ENDROOT
BRANCH   1   3
HETATM    3  O2  LIG X 999      45.152 130.542  20.882  1.00  0.00    -0.276 OA
BRANCH   3   4
HETATM    4  C2  LIG X 999      45.397 131.597  19.957  1.00  0.00     0.332 C 
BRANCH   4   5
HETATM    5  N1  LIG X 999      44.185 131.874  19.191  1.00  0.00    -0.238 NA
HETATM    6  C1  LIG X 999      44.000 131.717  17.908  1.00  0.00     0.190 C 
BRANCH   6   7
HETATM    7  O1  LIG X 999      42.761 132.056  17.371  1.00  0.00    -0.343 OA
HETATM    8  H1  LIG X 999      42.643 132.889  16.808  1.00  0.00     0.219 HD
ENDBRANCH   6   7
BRANCH   6   9
HETATM    9  C14 LIG X 999      45.036 131.199  16.979  1.00  0.00     0.130 A 
HETATM   10  N2  LIG X 999      45.446 131.798  15.842  1.00  0.00    -0.169 NA
HETATM   11  N3  LIG X 999      46.368 131.025  15.295  1.00  0.00    -0.285 N 
HETATM   12  C15 LIG X 999      47.091 131.363  14.077  1.00  0.00     0.179 C 
HETATM   13  C16 LIG X 999      46.585 129.947  16.069  1.00  0.00     0.114 A 
HETATM   14  C17 LIG X 999      45.742 130.021  17.158  1.00  0.00     0.056 A 
ENDBRANCH   6   9
ENDBRANCH   4   5
ENDBRANCH   3   4
ENDBRANCH   1   3
BRANCH   1  15
HETATM   15  O4  LIG X 999      44.603 129.862  23.124  1.00  0.00    -0.256 OA
BRANCH  15  16
HETATM   16  C4  LIG X 999      44.241 128.508  23.174  1.00  0.00     0.082 A 
HETATM   17  C5  LIG X 999      42.975 128.176  23.671  1.00  0.00     0.038 A 
HETATM   18  C6  LIG X 999      42.570 126.841  23.755  1.00  0.00     0.015 A 
HETATM   19  C7  LIG X 999      43.436 125.815  23.352  1.00  0.00    -0.026 A 
HETATM   20  C8  LIG X 999      43.040 124.471  23.434  1.00  0.00     0.012 A 
HETATM   21  C12 LIG X 999      44.725 126.138  22.866  1.00  0.00    -0.023 A 
HETATM   22  C9  LIG X 999      43.918 123.456  23.040  1.00  0.00     0.001 A 
HETATM   23  C10 LIG X 999      45.192 123.775  22.563  1.00  0.00     0.001 A 
HETATM   24  C11 LIG X 999      45.597 125.110  22.475  1.00  0.00     0.012 A 
HETATM   25  C13 LIG X 999      45.121 127.482  22.784  1.00  0.00     0.049 A 
ENDBRANCH  15  16
ENDBRANCH   1  15
TORSDOF 7
ENDMDL
MODEL 9
REMARK VINA RESULT:      -6.7      2.569      7.933
REMARK  7 active torsions:
REMARK  status: ('A' for Active; 'I' for Inactive)
REMARK    1  A    between atoms: O1_2  and  C1_3 
REMARK    2  A    between atoms: C1_3  and  C14_20 
REMARK    3  A    between atoms: N1_4  and  C2_5 
REMARK    4  A    between atoms: C2_5  and  O2_6 
REMARK    5  A    between atoms: O2_6  and  C3_7 
REMARK    6  A    between atoms: C3_7  and  O4_9 
REMARK    7  A    between atoms: O4_9  and  C4_10 
ROOT
HETATM    1  C3  LIG X 999      43.790 131.221  23.300  1.00  0.00     0.413 C 
HETATM    2  O3  LIG X 999      42.758 131.851  23.662  1.00  0.00    -0.229 OA
ENDROOT
BRANCH   1   3
HETATM    3  O2  LIG X 999      44.525 131.647  22.192  1.00  0.00    -0.276 OA
BRANCH   3   4
HETATM    4  C2  LIG X 999      44.293 131.149  20.878  1.00  0.00     0.332 C 
BRANCH   4   5
HETATM    5  N1  LIG X 999      43.125 131.806  20.298  1.00  0.00    -0.238 NA
HETATM    6  C1  LIG X 999      42.888 132.041  19.035  1.00  0.00     0.190 C 
BRANCH   6   7
HETATM    7  O1  LIG X 999      41.709 132.698  18.694  1.00  0.00    -0.343 OA
HETATM    8  H1  LIG X 999      41.697 133.694  18.509  1.00  0.00     0.219 HD
ENDBRANCH   6   7
BRANCH   6   9
HETATM    9  C14 LIG X 999      43.804 131.651  17.934  1.00  0.00     0.130 A 
HETATM   10  N2  LIG X 999      43.493 131.624  16.622  1.00  0.00    -0.169 NA
HETATM   11  N3  LIG X 999      44.565 131.216  15.966  1.00  0.00    -0.285 N 
HETATM   12  C15 LIG X 999      44.638 131.110  14.515  1.00  0.00     0.179 C 
HETATM   13  C16 LIG X 999      45.577 131.002  16.826  1.00  0.00     0.114 A 
HETATM   14  C17 LIG X 999      45.123 131.265  18.101  1.00  0.00     0.056 A 
ENDBRANCH   6   9
ENDBRANCH   4   5
ENDBRANCH   3   4
ENDBRANCH   1   3
BRANCH   1  15
HETATM   15  O4  LIG X 999      44.240 130.110  24.020  1.00  0.00    -0.256 OA
BRANCH  15  16
HETATM   16  C4  LIG X 999      43.972 128.773  23.689  1.00  0.00     0.082 A 
HETATM   17  C5  LIG X 999      44.982 128.025  23.072  1.00  0.00     0.038 A 
HETATM   18  C6  LIG X 999      44.762 126.694  22.708  1.00  0.00     0.015 A 
HETATM   19  C7  LIG X 999      43.518 126.094  22.946  1.00  0.00    -0.026 A 
HETATM   20  C8  LIG X 999      43.286 124.758  22.583  1.00  0.00     0.012 A 
HETATM   21  C12 LIG X 999      42.483 126.846  23.552  1.00  0.00    -0.023 A 
HETATM   22  C9  LIG X 999      42.036 124.176  22.816  1.00  0.00     0.001 A 
HETATM   23  C10 LIG X 999      41.014 124.919  23.411  1.00  0.00     0.001 A 
HETATM   24  C11 LIG X 999      41.233 126.250  23.778  1.00  0.00     0.012 A 
HETATM   25  C13 LIG X 999      42.715 128.182  23.915  1.00  0.00     0.049 A 
ENDBRANCH  15  16
ENDBRANCH   1  15
TORSDOF 7
ENDMDL
