REMARK VINA RESULT:      -5.2      6.599      7.804
REMARK  1 active torsions:
REMARK  status: ('A' for Active; 'I' for Inactive)
REMARK    1  A    between atoms: C14_14  and  N1_15 
ROOT
HETATM    1  N1  LIG X 999      39.392 127.555  24.197  1.00  0.00    -0.054 NA
HETATM    2  N2  LIG X 999      38.254 127.233  23.851  1.00  0.00    -0.160 NA
HETATM    3  N3  LIG X 999      37.118 126.912  23.507  1.00  0.00     0.068 N 
ENDROOT
BRANCH   1   4
HETATM    4  C14 LIG X 999      40.559 126.835  23.772  1.00  0.00     0.165 C 
HETATM    5  C13 LIG X 999      41.846 127.335  23.992  1.00  0.00     0.061 C 
HETATM    6  C11 LIG X 999      42.971 126.622  23.552  1.00  0.00    -0.045 C 
HETATM    7  C10 LIG X 999      42.798 125.313  23.002  1.00  0.00     0.008 C 
HETATM    8  C12 LIG X 999      44.279 127.377  23.557  1.00  0.00     0.049 C 
HETATM    9  C4  LIG X 999      43.859 124.389  22.714  1.00  0.00    -0.013 C 
HETATM   10  C9  LIG X 999      41.466 124.921  22.684  1.00  0.00     0.045 C 
HETATM   11  C3  LIG X 999      45.149 124.480  23.290  1.00  0.00     0.013 C 
HETATM   12  C5  LIG X 999      43.589 123.256  21.895  1.00  0.00    -0.025 C 
HETATM   13  C2  LIG X 999      46.164 123.588  22.933  1.00  0.00     0.001 C 
HETATM   14  C1  LIG X 999      45.908 122.557  22.034  1.00  0.00     0.001 C 
HETATM   15  C6  LIG X 999      44.622 122.376  21.532  1.00  0.00     0.012 C 
HETATM   16  C7  LIG X 999      42.283 122.977  21.489  1.00  0.00     0.014 C 
HETATM   17  C8  LIG X 999      41.229 123.767  21.926  1.00  0.00     0.031 C 
HETATM   18  N4  LIG X 999      40.403 125.672  23.092  1.00  0.00    -0.338 N 
HETATM   19  H11 LIG X 999      39.429 125.351  22.883  1.00  0.00     0.167 HD
ENDBRANCH   1   4
TORSDOF 1
