REMARK VINA RESULT:      -7.8      1.585      7.304
REMARK  5 active torsions:
REMARK  status: ('A' for Active; 'I' for Inactive)
REMARK    1  A    between atoms: C3_3  and  O1_4 
REMARK    2  A    between atoms: O1_4  and  C4_5 
REMARK    3  A    between atoms: C4_5  and  C5_7 
REMARK    4  A    between atoms: C5_7  and  C6_8 
REMARK    5  A    between atoms: C11_13  and  O3_14 
ROOT
HETATM    1  C1  LIG X 999      45.080 127.631  22.689  1.00  0.00     0.014 C 
HETATM    2  C2  LIG X 999      44.238 128.409  23.063  1.00  0.00    -0.091 C 
HETATM    3  C3  LIG X 999      43.213 129.356  23.516  1.00  0.00     0.271 C 
ENDROOT
BRANCH   3   4
HETATM    4  O1  LIG X 999      42.758 130.153  22.425  1.00  0.00    -0.309 OA
BRANCH   4   5
HETATM    5  C4  LIG X 999      43.177 131.471  22.209  1.00  0.00     0.263 C 
HETATM    6  O2  LIG X 999      43.808 132.102  23.101  1.00  0.00    -0.265 OA
BRANCH   5   7
HETATM    7  C5  LIG X 999      42.824 132.152  20.927  1.00  0.00     0.149 C 
BRANCH   7   8
HETATM    8  C6  LIG X 999      43.702 131.644  19.817  1.00  0.00    -0.048 A 
HETATM    9  C7  LIG X 999      44.923 131.017  20.114  1.00  0.00     0.008 A 
HETATM   10  C8  LIG X 999      45.760 130.573  19.087  1.00  0.00     0.013 A 
HETATM   11  C9  LIG X 999      45.393 130.760  17.746  1.00  0.00    -0.023 A 
HETATM   12  C10 LIG X 999      46.228 130.318  16.708  1.00  0.00     0.049 A 
HETATM   13  C15 LIG X 999      44.171 131.404  17.439  1.00  0.00    -0.025 A 
HETATM   14  C11 LIG X 999      45.857 130.514  15.364  1.00  0.00     0.069 A 
HETATM   15  C13 LIG X 999      44.646 131.153  15.073  1.00  0.00     0.037 A 
HETATM   16  C14 LIG X 999      43.807 131.597  16.099  1.00  0.00     0.015 A 
HETATM   17  C16 LIG X 999      43.336 131.846  18.477  1.00  0.00     0.020 A 
BRANCH  14  18
HETATM   18  O3  LIG X 999      46.657 130.091  14.293  1.00  0.00    -0.356 OA
HETATM   19  C12 LIG X 999      47.256 130.965  13.341  1.00  0.00     0.210 C 
ENDBRANCH  14  18
ENDBRANCH   7   8
ENDBRANCH   5   7
ENDBRANCH   4   5
ENDBRANCH   3   4
TORSDOF 5
