REMARK VINA RESULT:      -5.3      3.587      4.934
REMARK  5 active torsions:
REMARK  status: ('A' for Active; 'I' for Inactive)
REMARK    1  A    between atoms: C3_3  and  N1_4 
REMARK    2  A    between atoms: N1_4  and  C6_7 
REMARK    3  A    between atoms: C6_7  and  C7_8 
REMARK    4  A    between atoms: C9_10  and  C10_11 
REMARK    5  A    between atoms: C11_14  and  N4_15 
ROOT
HETATM    1  C1  LIG X 999      47.920 131.053  12.954  1.00  0.00     0.013 C 
HETATM    2  C2  LIG X 999      47.111 130.507  13.660  1.00  0.00    -0.089 C 
HETATM    3  C3  LIG X 999      46.118 129.836  14.523  1.00  0.00     0.329 C 
ENDROOT
BRANCH   3   4
HETATM    4  N1  LIG X 999      45.642 130.688  15.656  1.00  0.00    -0.061 N 
HETATM    5  C4  LIG X 999      44.157 130.710  15.674  1.00  0.00     0.273 C 
HETATM    6  C5  LIG X 999      46.107 132.078  15.420  1.00  0.00     0.273 C 
BRANCH   4   7
HETATM    7  C6  LIG X 999      46.123 130.197  16.990  1.00  0.00     0.275 C 
BRANCH   7   8
HETATM    8  C7  LIG X 999      45.341 130.733  18.174  1.00  0.00    -0.035 C 
HETATM    9  C8  LIG X 999      45.620 130.317  19.427  1.00  0.00     0.001 C 
HETATM   10  C9  LIG X 999      44.971 130.989  20.618  1.00  0.00     0.054 C 
HETATM   11  C12 LIG X 999      44.969 130.050  21.851  1.00  0.00     0.023 C 
HETATM   12  C16 LIG X 999      43.489 131.298  20.251  1.00  0.00     0.028 C 
HETATM   13  C13 LIG X 999      44.214 130.684  23.037  1.00  0.00     0.002 C 
HETATM   14  C14 LIG X 999      42.779 131.090  22.655  1.00  0.00     0.001 C 
HETATM   15  C15 LIG X 999      42.747 131.987  21.408  1.00  0.00     0.010 C 
HETATM   16  C17 LIG X 999      43.405 132.043  18.943  1.00  0.00    -0.020 C 
HETATM   17  C18 LIG X 999      44.244 131.718  17.952  1.00  0.00     0.005 C 
BRANCH  10  18
HETATM   18  C10 LIG X 999      45.793 132.234  20.918  1.00  0.00     0.184 A 
HETATM   19  N2  LIG X 999      45.514 133.475  20.465  1.00  0.00    -0.124 NA
HETATM   20  N3  LIG X 999      46.489 134.265  20.889  1.00  0.00    -0.099 NA
HETATM   21  C11 LIG X 999      47.328 133.472  21.576  1.00  0.00     0.326 A 
HETATM   22  O1  LIG X 999      46.918 132.226  21.597  1.00  0.00    -0.255 OA
BRANCH  21  23
HETATM   23  N4  LIG X 999      48.523 133.938  22.198  1.00  0.00    -0.023 NA
HETATM   24  N5  LIG X 999      49.009 135.026  21.889  1.00  0.00    -0.158 NA
HETATM   25  N6  LIG X 999      49.495 136.113  21.578  1.00  0.00     0.068 N 
ENDBRANCH  21  23
ENDBRANCH  10  18
ENDBRANCH   7   8
ENDBRANCH   4   7
ENDBRANCH   3   4
TORSDOF 5
