REMARK VINA RESULT:      -7.3      2.291      3.580
REMARK  1 active torsions:
REMARK  status: ('A' for Active; 'I' for Inactive)
REMARK    1  A    between atoms: C5_5  and  N1_6 
ROOT
HETATM    1  N1  LIG X 999      45.263 130.871  20.981  1.00  0.00    -0.070 NA
HETATM    2  N2  LIG X 999      45.077 129.883  21.695  1.00  0.00    -0.162 NA
HETATM    3  N3  LIG X 999      44.895 128.897  22.406  1.00  0.00     0.068 N 
ENDROOT
BRANCH   1   4
HETATM    4  C5  LIG X 999      44.318 131.272  19.975  1.00  0.00     0.124 A 
HETATM    5  C4  LIG X 999      44.592 131.155  18.584  1.00  0.00     0.007 A 
HETATM    6  C3  LIG X 999      45.751 130.518  18.093  1.00  0.00     0.015 A 
HETATM    7  C10 LIG X 999      43.647 131.657  17.647  1.00  0.00    -0.024 A 
HETATM    8  C2  LIG X 999      45.992 130.435  16.720  1.00  0.00     0.001 A 
HETATM    9  C1  LIG X 999      45.079 130.969  15.811  1.00  0.00     0.001 A 
HETATM   10  C11 LIG X 999      43.907 131.570  16.270  1.00  0.00     0.012 A 
HETATM   11  C9  LIG X 999      42.445 132.219  18.094  1.00  0.00     0.014 A 
HETATM   12  C8  LIG X 999      42.159 132.275  19.456  1.00  0.00     0.026 A 
HETATM   13  C6  LIG X 999      43.081 131.801  20.394  1.00  0.00     0.077 A 
HETATM   14  C7  LIG X 999      42.758 131.898  21.797  1.00  0.00     0.102 C 
HETATM   15  N4  LIG X 999      42.499 131.976  22.923  1.00  0.00    -0.191 NA
ENDBRANCH   1   4
TORSDOF 1
