REMARK VINA RESULT:      -5.4      3.100      4.855
REMARK  5 active torsions:
REMARK  status: ('A' for Active; 'I' for Inactive)
REMARK    1  A    between atoms: O1_2  and  C1_3 
REMARK    2  A    between atoms: C1_3  and  C13_17 
REMARK    3  A    between atoms: N1_4  and  C2_5 
REMARK    4  A    between atoms: C3_6  and  O2_7 
REMARK    5  A    between atoms: C13_17  and  C15_19 
ROOT
HETATM    1  C2  LIG X 999      43.659 130.879  21.645  1.00  0.00     0.103 A 
HETATM    2  C3  LIG X 999      42.834 131.880  22.202  1.00  0.00     0.097 A 
HETATM    3  C5  LIG X 999      42.507 131.827  23.569  1.00  0.00     0.040 A 
HETATM    4  C6  LIG X 999      42.965 130.781  24.370  1.00  0.00     0.015 A 
HETATM    5  C7  LIG X 999      43.749 129.761  23.820  1.00  0.00    -0.024 A 
HETATM    6  C8  LIG X 999      44.193 128.699  24.625  1.00  0.00     0.012 A 
HETATM    7  C9  LIG X 999      44.976 127.681  24.076  1.00  0.00     0.001 A 
HETATM    8  C10 LIG X 999      45.323 127.714  22.725  1.00  0.00     0.001 A 
HETATM    9  C11 LIG X 999      44.890 128.765  21.913  1.00  0.00     0.014 A 
HETATM   10  C12 LIG X 999      44.097 129.801  22.447  1.00  0.00     0.006 A 
ENDROOT
BRANCH   1  11
HETATM   11  N1  LIG X 999      43.998 130.911  20.249  1.00  0.00    -0.225 NA
HETATM   12  C1  LIG X 999      45.017 131.544  19.747  1.00  0.00     0.142 C 
BRANCH  12  13
HETATM   13  O1  LIG X 999      45.919 132.205  20.583  1.00  0.00    -0.348 OA
HETATM   14  H1  LIG X 999      45.960 132.014  21.577  1.00  0.00     0.219 HD
ENDBRANCH  12  13
BRANCH  12  15
HETATM   15  C13 LIG X 999      45.239 131.535  18.254  1.00  0.00     0.058 C 
HETATM   16  C14 LIG X 999      45.966 130.246  17.842  1.00  0.00     0.018 C 
BRANCH  15  17
HETATM   17  C15 LIG X 999      43.889 131.704  17.521  1.00  0.00     0.008 C 
HETATM   18  C16 LIG X 999      43.991 131.420  16.022  1.00  0.00     0.006 C 
ENDBRANCH  15  17
ENDBRANCH  12  15
ENDBRANCH   1  11
BRANCH   2  19
HETATM   19  O2  LIG X 999      42.339 132.893  21.365  1.00  0.00    -0.354 OA
HETATM   20  C4  LIG X 999      41.616 132.669  20.160  1.00  0.00     0.210 C 
ENDBRANCH   2  19
TORSDOF 5
