REMARK VINA RESULT:      -5.3      2.254      5.451
REMARK  1 active torsions:
REMARK  status: ('A' for Active; 'I' for Inactive)
REMARK    1  A    between atoms: N1_2  and  C1_3 
ROOT
HETATM    1  C1  LIG X 999      44.562 131.074  16.426  1.00  0.00     0.143 C 
HETATM    2  N2  LIG X 999      45.512 130.862  17.369  1.00  0.00    -0.229 NA
HETATM    3  C2  LIG X 999      45.285 131.082  18.690  1.00  0.00     0.070 C 
HETATM    4  C3  LIG X 999      46.342 130.902  19.582  1.00  0.00     0.033 C 
HETATM    5  C4  LIG X 999      46.163 131.122  20.940  1.00  0.00     0.014 C 
HETATM    6  C5  LIG X 999      44.894 131.418  21.446  1.00  0.00    -0.025 C 
HETATM    7  C6  LIG X 999      44.721 131.530  22.836  1.00  0.00     0.012 C 
HETATM    8  C7  LIG X 999      43.447 131.692  23.373  1.00  0.00     0.001 C 
HETATM    9  C8  LIG X 999      42.336 131.702  22.536  1.00  0.00     0.001 C 
HETATM   10  C9  LIG X 999      42.495 131.606  21.151  1.00  0.00     0.013 C 
HETATM   11  C10 LIG X 999      43.782 131.549  20.565  1.00  0.00    -0.013 C 
HETATM   12  C11 LIG X 999      44.006 131.507  19.147  1.00  0.00     0.010 C 
HETATM   13  C12 LIG X 999      43.059 131.895  18.143  1.00  0.00    -0.045 C 
HETATM   14  C13 LIG X 999      41.836 132.739  18.406  1.00  0.00     0.049 C 
HETATM   15  C14 LIG X 999      43.330 131.605  16.796  1.00  0.00     0.059 C 
ENDROOT
BRANCH   1  16
HETATM   16  N1  LIG X 999      44.814 130.825  15.182  1.00  0.00    -0.282 NA
HETATM   17  H1  LIG X 999      44.199 131.181  14.416  1.00  0.00     0.188 HD
ENDBRANCH   1  16
TORSDOF 1
