REMARK VINA RESULT:      -7.9      0.000      0.000
REMARK  1 active torsions:
REMARK  status: ('A' for Active; 'I' for Inactive)
REMARK    1  A    between atoms: C3_3  and  N1_4 
ROOT
HETATM    1  N1  LIG X 999      47.192 129.528  15.219  1.00  0.00    -0.072 NA
HETATM    2  N2  LIG X 999      47.882 129.507  14.199  1.00  0.00    -0.162 NA
HETATM    3  N3  LIG X 999      48.574 129.487  13.182  1.00  0.00     0.068 N 
ENDROOT
BRANCH   1   4
HETATM    4  C3  LIG X 999      46.005 130.328  15.322  1.00  0.00     0.104 A 
HETATM    5  C2  LIG X 999      45.419 130.767  14.128  1.00  0.00     0.035 A 
HETATM    6  C1  LIG X 999      44.224 131.486  14.137  1.00  0.00     0.003 A 
HETATM    7  C10 LIG X 999      43.596 131.791  15.343  1.00  0.00     0.012 A 
HETATM    8  C9  LIG X 999      44.176 131.407  16.559  1.00  0.00    -0.023 A 
HETATM    9  C4  LIG X 999      45.410 130.683  16.563  1.00  0.00     0.006 A 
HETATM   10  C8  LIG X 999      43.553 131.755  17.773  1.00  0.00     0.021 A 
HETATM   11  C5  LIG X 999      46.015 130.382  17.807  1.00  0.00     0.024 A 
HETATM   12  C6  LIG X 999      45.366 130.754  18.985  1.00  0.00    -0.023 A 
HETATM   13  C7  LIG X 999      44.175 131.408  18.969  1.00  0.00    -0.024 A 
HETATM   14  C14 LIG X 999      45.812 130.521  20.376  1.00  0.00     0.276 C 
HETATM   15  C11 LIG X 999      43.706 131.672  20.345  1.00  0.00     0.276 C 
HETATM   16  N4  LIG X 999      44.823 131.237  21.244  1.00  0.00    -0.067 N 
HETATM   17  C12 LIG X 999      44.318 130.341  22.309  1.00  0.00     0.272 C 
HETATM   18  C13 LIG X 999      45.460 132.419  21.871  1.00  0.00     0.272 C 
ENDBRANCH   1   4
TORSDOF 1
