REMARK VINA RESULT:      -6.8      1.614      2.439
REMARK  4 active torsions:
REMARK  status: ('A' for Active; 'I' for Inactive)
REMARK    1  A    between atoms: C3_3  and  O1_4 
REMARK    2  A    between atoms: O1_4  and  C4_5 
REMARK    3  A    between atoms: C4_5  and  O2_6 
REMARK    4  A    between atoms: C5_8  and  C6_9 
ROOT
HETATM    1  C1  LIG X 999      44.555 128.196  23.000  1.00  0.00     0.014 C 
HETATM    2  C2  LIG X 999      44.456 129.374  22.765  1.00  0.00    -0.091 C 
HETATM    3  C3  LIG X 999      44.332 130.803  22.480  1.00  0.00     0.266 C 
ENDROOT
BRANCH   3   4
HETATM    4  O1  LIG X 999      44.413 130.997  21.087  1.00  0.00    -0.319 OA
BRANCH   4   5
HETATM    5  C4  LIG X 999      43.243 131.647  20.645  1.00  0.00     0.314 A 
HETATM    6  O3  LIG X 999      43.563 132.906  20.104  1.00  0.00    -0.312 OA
HETATM    7  C5  LIG X 999      43.035 131.956  19.205  1.00  0.00     0.254 A 
BRANCH   5   8
HETATM    8  O2  LIG X 999      42.179 131.766  21.546  1.00  0.00    -0.341 OA
HETATM    9  H4  LIG X 999      41.602 130.978  21.377  1.00  0.00     0.215 HD
ENDBRANCH   5   8
BRANCH   7  10
HETATM   10  C6  LIG X 999      44.072 131.424  18.255  1.00  0.00    -0.021 A 
HETATM   11  C7  LIG X 999      45.187 130.712  18.726  1.00  0.00     0.011 A 
HETATM   12  C8  LIG X 999      46.147 130.229  17.833  1.00  0.00     0.013 A 
HETATM   13  C9  LIG X 999      46.011 130.463  16.457  1.00  0.00    -0.026 A 
HETATM   14  C10 LIG X 999      46.967 129.978  15.550  1.00  0.00     0.012 A 
HETATM   15  C14 LIG X 999      44.902 131.200  15.978  1.00  0.00    -0.025 A 
HETATM   16  C11 LIG X 999      46.822 130.222  14.181  1.00  0.00     0.001 A 
HETATM   17  C12 LIG X 999      45.727 130.950  13.709  1.00  0.00     0.001 A 
HETATM   18  C13 LIG X 999      44.768 131.440  14.601  1.00  0.00     0.012 A 
HETATM   19  C15 LIG X 999      43.945 131.685  16.883  1.00  0.00     0.022 A 
ENDBRANCH   7  10
ENDBRANCH   4   5
ENDBRANCH   3   4
TORSDOF 4
