REMARK VINA RESULT:      -6.3      0.000      0.000
REMARK  4 active torsions:
REMARK  status: ('A' for Active; 'I' for Inactive)
REMARK    1  A    between atoms: C4_4  and  N1_5 
REMARK    2  A    between atoms: C7_10  and  S1_11 
REMARK    3  A    between atoms: S1_11  and  C8_12 
REMARK    4  A    between atoms: C8_12  and  C9_13 
ROOT
HETATM    1  N1  LIG X 999      41.471 127.786  24.429  1.00  0.00    -0.071 NA
HETATM    2  N2  LIG X 999      40.422 127.509  23.845  1.00  0.00    -0.162 NA
HETATM    3  N3  LIG X 999      39.372 127.227  23.269  1.00  0.00     0.068 N 
ENDROOT
BRANCH   1   4
HETATM    4  C4  LIG X 999      42.728 127.958  23.752  1.00  0.00     0.108 A 
HETATM    5  C3  LIG X 999      43.552 126.837  23.608  1.00  0.00     0.008 A 
HETATM    6  C2  LIG X 999      44.743 126.899  22.959  1.00  0.00    -0.021 A 
HETATM    7  C15 LIG X 999      43.313 125.462  24.109  1.00  0.00     0.278 C 
HETATM    8  C1  LIG X 999      45.204 128.083  22.398  1.00  0.00     0.018 A 
HETATM    9  C18 LIG X 999      45.419 125.584  22.972  1.00  0.00     0.276 C 
HETATM   10  C6  LIG X 999      44.416 129.247  22.498  1.00  0.00    -0.035 A 
HETATM   11  C5  LIG X 999      43.192 129.208  23.239  1.00  0.00    -0.018 A 
HETATM   12  C7  LIG X 999      44.956 130.542  21.903  1.00  0.00     0.081 C 
HETATM   13  C14 LIG X 999      42.407 130.483  23.478  1.00  0.00     0.042 C 
HETATM   14  C13 LIG X 999      43.257 131.743  23.314  1.00  0.00     0.006 C 
HETATM   15  C12 LIG X 999      43.964 131.714  21.965  1.00  0.00     0.020 C 
HETATM   16  N4  LIG X 999      44.427 124.628  23.556  1.00  0.00    -0.067 N 
HETATM   17  C16 LIG X 999      43.910 123.724  22.500  1.00  0.00     0.272 C 
HETATM   18  C17 LIG X 999      45.052 123.814  24.625  1.00  0.00     0.272 C 
BRANCH  12  19
HETATM   19  S1  LIG X 999      45.577 130.324  20.183  1.00  0.00    -0.147 SA
BRANCH  19  20
HETATM   20  C8  LIG X 999      44.540 131.571  19.335  1.00  0.00     0.168 C 
BRANCH  20  21
HETATM   21  C9  LIG X 999      44.952 131.674  17.934  1.00  0.00    -0.097 C 
HETATM   22  C10 LIG X 999      45.287 131.756  16.779  1.00  0.00    -0.110 C 
HETATM   23  C11 LIG X 999      45.691 131.855  15.376  1.00  0.00     0.112 C 
ENDBRANCH  20  21
ENDBRANCH  19  20
ENDBRANCH  12  19
ENDBRANCH   1   4
TORSDOF 4
