REMARK VINA RESULT:      -7.1      3.528      6.916
REMARK  3 active torsions:
REMARK  status: ('A' for Active; 'I' for Inactive)
REMARK    1  A    between atoms: C3_3  and  O1_4 
REMARK    2  A    between atoms: O1_4  and  C4_5 
REMARK    3  A    between atoms: C5_7  and  C6_8 
ROOT
HETATM    1  C1  LIG X 999      41.957 126.556  23.763  1.00  0.00     0.014 C 
HETATM    2  C2  LIG X 999      41.928 127.760  23.824  1.00  0.00    -0.091 C 
HETATM    3  C3  LIG X 999      41.893 129.222  23.895  1.00  0.00     0.270 C 
ENDROOT
BRANCH   3   4
HETATM    4  O1  LIG X 999      42.708 129.758  22.862  1.00  0.00    -0.317 OA
BRANCH   4   5
HETATM    5  C4  LIG X 999      43.896 130.446  23.125  1.00  0.00     0.217 C 
HETATM    6  O2  LIG X 999      44.624 130.170  24.278  1.00  0.00    -0.164 OA
HETATM    7  C5  LIG X 999      44.350 131.365  22.269  1.00  0.00     0.079 C 
BRANCH   7   8
HETATM    8  C6  LIG X 999      43.658 131.682  21.000  1.00  0.00    -0.020 A 
HETATM    9  C7  LIG X 999      42.390 132.278  21.086  1.00  0.00     0.012 A 
HETATM   10  C8  LIG X 999      41.697 132.650  19.935  1.00  0.00     0.002 A 
HETATM   11  C9  LIG X 999      42.252 132.426  18.677  1.00  0.00     0.012 A 
HETATM   12  C10 LIG X 999      43.501 131.801  18.556  1.00  0.00    -0.025 A 
HETATM   13  C11 LIG X 999      44.041 131.553  17.284  1.00  0.00     0.012 A 
HETATM   14  C15 LIG X 999      44.213 131.407  19.721  1.00  0.00    -0.015 A 
HETATM   15  C12 LIG X 999      45.269 130.903  17.157  1.00  0.00     0.001 A 
HETATM   16  C13 LIG X 999      45.961 130.484  18.293  1.00  0.00     0.001 A 
HETATM   17  C14 LIG X 999      45.439 130.723  19.565  1.00  0.00     0.013 A 
ENDBRANCH   7   8
ENDBRANCH   4   5
ENDBRANCH   3   4
TORSDOF 3
