REMARK VINA RESULT:      -4.7      4.928      7.846
REMARK  5 active torsions:
REMARK  status: ('A' for Active; 'I' for Inactive)
REMARK    1  A    between atoms: C6_6  and  C7_7 
REMARK       I    between atoms: C7_7  and  N1_9 
REMARK    2  A    between atoms: N1_9  and  C8_11 
REMARK    3  A    between atoms: C8_11  and  C9_12 
REMARK    4  A    between atoms: C9_12  and  N2_13 
REMARK    5  A    between atoms: C13_19  and  N5_20 
ROOT
HETATM    1  N2  LIG X 999      45.599 130.754  19.333  1.00  0.00    -0.114 NA
HETATM    2  N3  LIG X 999      45.452 130.793  18.111  1.00  0.00    -0.168 NA
HETATM    3  N4  LIG X 999      45.306 130.831  16.890  1.00  0.00     0.068 N 
ENDROOT
BRANCH   1   4
HETATM    4  C9  LIG X 999      45.060 131.803  20.189  1.00  0.00     0.208 C 
BRANCH   4   5
HETATM    5  C8  LIG X 999      44.900 131.276  21.614  1.00  0.00     0.147 C 
BRANCH   5   6
HETATM    6  N1  LIG X 999      44.805 129.816  21.625  1.00  0.00    -0.355 N 
HETATM    7  C7  LIG X 999      44.629 129.092  22.853  1.00  0.00     0.251 C 
HETATM    8  O1  LIG X 999      44.401 129.726  23.921  1.00  0.00    -0.268 OA
HETATM    9  H4  LIG X 999      44.821 129.295  20.720  1.00  0.00     0.162 HD
BRANCH   7  10
HETATM   10  C6  LIG X 999      44.691 127.611  22.888  1.00  0.00     0.032 A 
HETATM   11  C1  LIG X 999      43.613 126.851  23.371  1.00  0.00     0.017 A 
HETATM   12  C2  LIG X 999      43.684 125.458  23.399  1.00  0.00     0.011 A 
HETATM   13  C3  LIG X 999      44.831 124.790  22.945  1.00  0.00    -0.024 A 
HETATM   14  C4  LIG X 999      45.910 125.543  22.424  1.00  0.00    -0.049 A 
HETATM   15  C13 LIG X 999      44.836 123.276  22.930  1.00  0.00     0.179 C 
HETATM   16  C5  LIG X 999      45.833 126.944  22.413  1.00  0.00     0.024 A 
HETATM   17  C10 LIG X 999      47.198 124.885  21.985  1.00  0.00     0.039 C 
HETATM   18  C11 LIG X 999      47.032 123.392  21.690  1.00  0.00     0.007 C 
HETATM   19  C12 LIG X 999      46.262 122.707  22.818  1.00  0.00     0.035 C 
BRANCH  15  20
HETATM   20  N5  LIG X 999      44.009 122.814  21.818  1.00  0.00    -0.105 NA
HETATM   21  N6  LIG X 999      42.949 123.376  21.534  1.00  0.00    -0.167 NA
HETATM   22  N7  LIG X 999      41.892 123.935  21.252  1.00  0.00     0.068 N 
ENDBRANCH  15  20
ENDBRANCH   7  10
ENDBRANCH   5   6
ENDBRANCH   4   5
ENDBRANCH   1   4
TORSDOF 5
