REMARK VINA RESULT:      -3.5      3.028      5.394
REMARK  5 active torsions:
REMARK  status: ('A' for Active; 'I' for Inactive)
REMARK    1  A    between atoms: C3_3  and  C4_4 
REMARK    2  A    between atoms: C4_4  and  S1_5 
REMARK    3  A    between atoms: S1_5  and  C5_6 
REMARK    4  A    between atoms: C6_7  and  N1_8 
REMARK    5  A    between atoms: C10_12  and  N2_13 
ROOT
HETATM    1  C1  LIG X 999      50.259 126.387  24.434  1.00  0.00     0.112 C 
HETATM    2  C2  LIG X 999      49.004 125.684  24.173  1.00  0.00    -0.110 C 
HETATM    3  C3  LIG X 999      47.972 125.092  23.974  1.00  0.00    -0.097 C 
ENDROOT
BRANCH   3   4
HETATM    4  C4  LIG X 999      46.720 124.363  23.755  1.00  0.00     0.173 C 
BRANCH   4   5
HETATM    5  S1  LIG X 999      45.903 124.937  22.227  1.00  0.00    -0.115 SA
BRANCH   5   6
HETATM    6  C5  LIG X 999      44.598 125.866  23.079  1.00  0.00     0.038 A 
HETATM    7  C6  LIG X 999      43.757 125.200  23.997  1.00  0.00     0.043 A 
HETATM    8  C7  LIG X 999      42.725 125.902  24.624  1.00  0.00     0.031 A 
HETATM    9  C8  LIG X 999      42.501 127.248  24.350  1.00  0.00     0.017 A 
HETATM   10  C9  LIG X 999      43.314 127.944  23.438  1.00  0.00     0.002 A 
HETATM   11  C10 LIG X 999      43.089 129.321  23.134  1.00  0.00     0.045 A 
HETATM   12  C14 LIG X 999      44.405 127.250  22.823  1.00  0.00    -0.004 A 
HETATM   13  C11 LIG X 999      43.981 129.960  22.260  1.00  0.00     0.003 A 
HETATM   14  C12 LIG X 999      45.034 129.303  21.708  1.00  0.00    -0.021 A 
HETATM   15  C18 LIG X 999      43.962 131.368  21.791  1.00  0.00     0.278 C 
HETATM   16  C13 LIG X 999      45.278 127.962  21.969  1.00  0.00     0.023 A 
HETATM   17  C15 LIG X 999      45.821 130.202  20.837  1.00  0.00     0.276 C 
HETATM   18  N3  LIG X 999      45.029 131.465  20.745  1.00  0.00    -0.067 N 
HETATM   19  C16 LIG X 999      45.892 132.644  20.985  1.00  0.00     0.272 C 
HETATM   20  C17 LIG X 999      44.414 131.583  19.401  1.00  0.00     0.272 C 
BRANCH   7  21
HETATM   21  N1  LIG X 999      43.932 123.810  24.311  1.00  0.00    -0.398 N 
HETATM   22  H6  LIG X 999      43.206 123.111  24.038  1.00  0.00     0.156 HD
HETATM   23  H7  LIG X 999      44.766 123.450  24.822  1.00  0.00     0.156 HD
ENDBRANCH   7  21
BRANCH  11  24
HETATM   24  N2  LIG X 999      41.979 130.060  23.669  1.00  0.00    -0.398 N 
HETATM   25  H10 LIG X 999      41.250 129.626  24.273  1.00  0.00     0.156 HD
HETATM   26  H11 LIG X 999      41.803 131.046  23.374  1.00  0.00     0.156 HD
ENDBRANCH  11  24
ENDBRANCH   5   6
ENDBRANCH   4   5
ENDBRANCH   3   4
TORSDOF 5
