REMARK VINA RESULT:      -5.5      3.432      6.185
REMARK  1 active torsions:
REMARK  status: ('A' for Active; 'I' for Inactive)
REMARK    1  A    between atoms: C4_4  and  N1_5 
ROOT
HETATM    1  C1  LIG X 999      43.102 131.308  14.361  1.00  0.00     0.049 C 
HETATM    2  C2  LIG X 999      44.509 131.211  14.898  1.00  0.00    -0.045 C 
HETATM    3  C3  LIG X 999      45.522 131.040  13.943  1.00  0.00     0.055 C 
HETATM    4  C4  LIG X 999      46.805 130.667  14.334  1.00  0.00     0.099 C 
HETATM    5  N2  LIG X 999      47.067 130.432  15.645  1.00  0.00    -0.342 N 
HETATM    6  C5  LIG X 999      46.130 130.628  16.617  1.00  0.00     0.045 C 
HETATM    7  C6  LIG X 999      46.445 130.299  17.941  1.00  0.00     0.031 C 
HETATM    8  C7  LIG X 999      45.519 130.480  18.957  1.00  0.00     0.014 C 
HETATM    9  C8  LIG X 999      44.295 131.100  18.694  1.00  0.00    -0.025 C 
HETATM   10  C9  LIG X 999      43.423 131.374  19.760  1.00  0.00     0.012 C 
HETATM   11  C10 LIG X 999      42.260 132.110  19.546  1.00  0.00     0.001 C 
HETATM   12  C11 LIG X 999      41.982 132.614  18.279  1.00  0.00     0.001 C 
HETATM   13  C12 LIG X 999      42.834 132.337  17.207  1.00  0.00     0.013 C 
HETATM   14  C13 LIG X 999      43.965 131.503  17.367  1.00  0.00    -0.013 C 
HETATM   15  C14 LIG X 999      44.840 131.140  16.288  1.00  0.00     0.008 C 
HETATM   16  H7  LIG X 999      48.021 130.092  15.909  1.00  0.00     0.167 HD
ENDROOT
BRANCH   4  17
HETATM   17  N1  LIG X 999      47.826 130.474  13.351  1.00  0.00    -0.385 N 
HETATM   18  H5  LIG X 999      48.828 130.390  13.628  1.00  0.00     0.157 HD
HETATM   19  H6  LIG X 999      47.582 130.411  12.338  1.00  0.00     0.157 HD
ENDBRANCH   4  17
TORSDOF 1
