MODEL 1
REMARK VINA RESULT:      -7.3      0.000      0.000
REMARK  4 active torsions:
REMARK  status: ('A' for Active; 'I' for Inactive)
REMARK    1  A    between atoms: C1_2  and  C2_4 
REMARK    2  A    between atoms: C8_10  and  C9_11 
REMARK       I    between atoms: C9_11  and  N1_13 
REMARK    3  A    between atoms: N1_13  and  S1_14 
REMARK    4  A    between atoms: S1_14  and  C10_17 
ROOT
HETATM    1  C9  LIG X 999      44.241 129.281  23.739  1.00  0.00     0.259 C 
HETATM    2  O3  LIG X 999      43.921 130.121  24.624  1.00  0.00    -0.270 OA
HETATM    3  N1  LIG X 999      44.249 129.660  22.362  1.00  0.00    -0.122 NA
ENDROOT
BRANCH   3   4
HETATM    4  S1  LIG X 999      44.094 131.309  21.862  1.00  0.00     0.286 S 
HETATM    5  O4  LIG X 999      45.230 132.120  22.421  1.00  0.00    -0.198 OA
HETATM    6  O5  LIG X 999      42.802 131.868  22.387  1.00  0.00    -0.198 OA
BRANCH   4   7
HETATM    7  C10 LIG X 999      44.091 131.372  20.103  1.00  0.00     0.082 A 
HETATM    8  C11 LIG X 999      42.968 131.867  19.425  1.00  0.00     0.026 A 
HETATM    9  C12 LIG X 999      42.930 131.867  18.029  1.00  0.00     0.014 A 
HETATM   10  C13 LIG X 999      44.013 131.365  17.293  1.00  0.00    -0.026 A 
HETATM   11  C14 LIG X 999      43.982 131.353  15.889  1.00  0.00     0.012 A 
HETATM   12  C18 LIG X 999      45.148 130.860  17.973  1.00  0.00    -0.025 A 
HETATM   13  C15 LIG X 999      45.066 130.844  15.168  1.00  0.00     0.001 A 
HETATM   14  C16 LIG X 999      46.185 130.345  15.839  1.00  0.00     0.001 A 
HETATM   15  C17 LIG X 999      46.229 130.351  17.237  1.00  0.00     0.012 A 
HETATM   16  C19 LIG X 999      45.178 130.868  19.375  1.00  0.00     0.037 A 
ENDBRANCH   4   7
ENDBRANCH   3   4
BRANCH   1  17
HETATM   17  C8  LIG X 999      44.686 127.886  24.118  1.00  0.00     0.099 C 
HETATM   18  C2  LIG X 999      43.535 126.837  24.212  1.00  0.00     0.104 C 
HETATM   19  C3  LIG X 999      43.984 125.757  23.195  1.00  0.00     0.001 C 
HETATM   20  C4  LIG X 999      45.179 124.991  23.796  1.00  0.00     0.006 C 
HETATM   21  C7  LIG X 999      44.671 126.571  22.121  1.00  0.00     0.011 C 
HETATM   22  C5  LIG X 999      46.319 126.022  23.717  1.00  0.00     0.006 C 
HETATM   23  C6  LIG X 999      45.635 127.243  23.073  1.00  0.00    -0.000 C 
BRANCH  18  24
HETATM   24  C1  LIG X 999      42.146 127.367  23.921  1.00  0.00     0.178 C 
HETATM   25  O1  LIG X 999      41.431 126.794  23.059  1.00  0.00    -0.648 OA
HETATM   26  O2  LIG X 999      41.627 128.448  24.625  1.00  0.00    -0.648 OA
ENDBRANCH  18  24
ENDBRANCH   1  17
TORSDOF 4
ENDMDL
MODEL 2
REMARK VINA RESULT:      -7.2      1.934      3.263
REMARK  4 active torsions:
REMARK  status: ('A' for Active; 'I' for Inactive)
REMARK    1  A    between atoms: C1_2  and  C2_4 
REMARK    2  A    between atoms: C8_10  and  C9_11 
REMARK       I    between atoms: C9_11  and  N1_13 
REMARK    3  A    between atoms: N1_13  and  S1_14 
REMARK    4  A    between atoms: S1_14  and  C10_17 
ROOT
HETATM    1  C9  LIG X 999      44.462 131.068  21.648  1.00  0.00     0.259 C 
HETATM    2  O3  LIG X 999      45.302 131.990  21.454  1.00  0.00    -0.270 OA
HETATM    3  N1  LIG X 999      43.293 130.982  20.831  1.00  0.00    -0.122 NA
ENDROOT
BRANCH   3   4
HETATM    4  S1  LIG X 999      43.099 131.936  19.400  1.00  0.00     0.286 S 
HETATM    5  O4  LIG X 999      43.371 133.381  19.709  1.00  0.00    -0.198 OA
HETATM    6  O5  LIG X 999      41.686 131.808  18.907  1.00  0.00    -0.198 OA
BRANCH   4   7
HETATM    7  C10 LIG X 999      44.208 131.342  18.167  1.00  0.00     0.082 A 
HETATM    8  C11 LIG X 999      45.364 130.647  18.546  1.00  0.00     0.026 A 
HETATM    9  C12 LIG X 999      46.280 130.222  17.581  1.00  0.00     0.014 A 
HETATM   10  C13 LIG X 999      46.053 130.495  16.224  1.00  0.00    -0.026 A 
HETATM   11  C14 LIG X 999      46.972 130.080  15.247  1.00  0.00     0.012 A 
HETATM   12  C18 LIG X 999      44.889 131.200  15.837  1.00  0.00    -0.025 A 
HETATM   13  C15 LIG X 999      46.737 130.364  13.899  1.00  0.00     0.001 A 
HETATM   14  C16 LIG X 999      45.587 131.061  13.516  1.00  0.00     0.001 A 
HETATM   15  C17 LIG X 999      44.665 131.480  14.480  1.00  0.00     0.012 A 
HETATM   16  C19 LIG X 999      43.973 131.620  16.813  1.00  0.00     0.037 A 
ENDBRANCH   4   7
ENDBRANCH   3   4
BRANCH   1  17
HETATM   17  C8  LIG X 999      44.707 130.003  22.692  1.00  0.00     0.099 C 
HETATM   18  C2  LIG X 999      44.104 130.317  24.097  1.00  0.00     0.104 C 
HETATM   19  C3  LIG X 999      43.173 129.101  24.339  1.00  0.00     0.001 C 
HETATM   20  C4  LIG X 999      44.051 127.867  24.625  1.00  0.00     0.006 C 
HETATM   21  C7  LIG X 999      42.666 128.782  22.950  1.00  0.00     0.011 C 
HETATM   22  C5  LIG X 999      44.659 127.555  23.246  1.00  0.00     0.006 C 
HETATM   23  C6  LIG X 999      44.046 128.643  22.345  1.00  0.00    -0.000 C 
BRANCH  18  24
HETATM   24  C1  LIG X 999      43.374 131.639  24.211  1.00  0.00     0.178 C 
HETATM   25  O1  LIG X 999      44.011 132.672  24.547  1.00  0.00    -0.648 OA
HETATM   26  O2  LIG X 999      42.023 131.744  23.905  1.00  0.00    -0.648 OA
ENDBRANCH  18  24
ENDBRANCH   1  17
TORSDOF 4
ENDMDL
MODEL 3
REMARK VINA RESULT:      -6.1      1.419      2.258
REMARK  4 active torsions:
REMARK  status: ('A' for Active; 'I' for Inactive)
REMARK    1  A    between atoms: C1_2  and  C2_4 
REMARK    2  A    between atoms: C8_10  and  C9_11 
REMARK       I    between atoms: C9_11  and  N1_13 
REMARK    3  A    between atoms: N1_13  and  S1_14 
REMARK    4  A    between atoms: S1_14  and  C10_17 
ROOT
HETATM    1  C9  LIG X 999      44.316 128.778  23.697  1.00  0.00     0.259 C 
HETATM    2  O3  LIG X 999      44.284 128.889  22.441  1.00  0.00    -0.270 OA
HETATM    3  N1  LIG X 999      44.220 129.942  24.520  1.00  0.00    -0.122 NA
ENDROOT
BRANCH   3   4
HETATM    4  S1  LIG X 999      43.793 131.490  23.878  1.00  0.00     0.286 S 
HETATM    5  O4  LIG X 999      44.572 132.567  24.579  1.00  0.00    -0.198 OA
HETATM    6  O5  LIG X 999      42.327 131.734  24.105  1.00  0.00    -0.198 OA
BRANCH   4   7
HETATM    7  C10 LIG X 999      44.130 131.501  22.150  1.00  0.00     0.082 A 
HETATM    8  C11 LIG X 999      45.456 131.475  21.698  1.00  0.00     0.026 A 
HETATM    9  C12 LIG X 999      45.738 131.542  20.331  1.00  0.00     0.014 A 
HETATM   10  C13 LIG X 999      44.694 131.643  19.400  1.00  0.00    -0.026 A 
HETATM   11  C14 LIG X 999      44.966 131.719  18.025  1.00  0.00     0.012 A 
HETATM   12  C18 LIG X 999      43.353 131.673  19.852  1.00  0.00    -0.025 A 
HETATM   13  C15 LIG X 999      43.918 131.826  17.107  1.00  0.00     0.001 A 
HETATM   14  C16 LIG X 999      42.593 131.857  17.553  1.00  0.00     0.001 A 
HETATM   15  C17 LIG X 999      42.308 131.782  18.920  1.00  0.00     0.012 A 
HETATM   16  C19 LIG X 999      43.080 131.602  21.225  1.00  0.00     0.037 A 
ENDBRANCH   4   7
ENDBRANCH   3   4
BRANCH   1  17
HETATM   17  C8  LIG X 999      44.385 127.418  24.354  1.00  0.00     0.099 C 
HETATM   18  C2  LIG X 999      43.004 126.719  24.551  1.00  0.00     0.104 C 
HETATM   19  C3  LIG X 999      43.192 125.386  23.783  1.00  0.00     0.001 C 
HETATM   20  C4  LIG X 999      44.138 124.484  24.599  1.00  0.00     0.006 C 
HETATM   21  C7  LIG X 999      44.091 125.784  22.633  1.00  0.00     0.011 C 
HETATM   22  C5  LIG X 999      45.503 125.171  24.420  1.00  0.00     0.006 C 
HETATM   23  C6  LIG X 999      45.168 126.373  23.516  1.00  0.00    -0.000 C 
BRANCH  18  24
HETATM   24  C1  LIG X 999      41.803 127.504  24.068  1.00  0.00     0.178 C 
HETATM   25  O1  LIG X 999      41.028 126.993  23.217  1.00  0.00    -0.648 OA
HETATM   26  O2  LIG X 999      41.511 128.762  24.582  1.00  0.00    -0.648 OA
ENDBRANCH  18  24
ENDBRANCH   1  17
TORSDOF 4
ENDMDL
MODEL 4
REMARK VINA RESULT:      -5.8      1.648      2.472
REMARK  4 active torsions:
REMARK  status: ('A' for Active; 'I' for Inactive)
REMARK    1  A    between atoms: C1_2  and  C2_4 
REMARK    2  A    between atoms: C8_10  and  C9_11 
REMARK       I    between atoms: C9_11  and  N1_13 
REMARK    3  A    between atoms: N1_13  and  S1_14 
REMARK    4  A    between atoms: S1_14  and  C10_17 
ROOT
HETATM    1  C9  LIG X 999      44.610 127.176  24.197  1.00  0.00     0.259 C 
HETATM    2  O3  LIG X 999      43.419 127.048  24.592  1.00  0.00    -0.270 OA
HETATM    3  N1  LIG X 999      45.036 128.399  23.594  1.00  0.00    -0.122 NA
ENDROOT
BRANCH   3   4
HETATM    4  S1  LIG X 999      44.056 129.825  23.616  1.00  0.00     0.286 S 
HETATM    5  O4  LIG X 999      44.597 130.800  24.624  1.00  0.00    -0.198 OA
HETATM    6  O5  LIG X 999      42.653 129.458  24.010  1.00  0.00    -0.198 OA
BRANCH   4   7
HETATM    7  C10 LIG X 999      44.048 130.534  22.005  1.00  0.00     0.082 A 
HETATM    8  C11 LIG X 999      43.042 131.441  21.647  1.00  0.00     0.026 A 
HETATM    9  C12 LIG X 999      42.990 131.966  20.354  1.00  0.00     0.014 A 
HETATM   10  C13 LIG X 999      43.944 131.583  19.399  1.00  0.00    -0.026 A 
HETATM   11  C14 LIG X 999      43.897 132.097  18.094  1.00  0.00     0.012 A 
HETATM   12  C18 LIG X 999      44.961 130.664  19.754  1.00  0.00    -0.025 A 
HETATM   13  C15 LIG X 999      44.850 131.703  17.150  1.00  0.00     0.001 A 
HETATM   14  C16 LIG X 999      45.853 130.795  17.500  1.00  0.00     0.001 A 
HETATM   15  C17 LIG X 999      45.911 130.275  18.797  1.00  0.00     0.012 A 
HETATM   16  C19 LIG X 999      45.005 130.146  21.057  1.00  0.00     0.037 A 
ENDBRANCH   4   7
ENDBRANCH   3   4
BRANCH   1  17
HETATM   17  C8  LIG X 999      45.623 126.075  24.416  1.00  0.00     0.099 C 
HETATM   18  C2  LIG X 999      45.194 124.678  23.867  1.00  0.00     0.104 C 
HETATM   19  C3  LIG X 999      46.343 124.340  22.883  1.00  0.00     0.001 C 
HETATM   20  C4  LIG X 999      47.602 124.000  23.704  1.00  0.00     0.006 C 
HETATM   21  C7  LIG X 999      46.717 125.694  22.323  1.00  0.00     0.011 C 
HETATM   22  C5  LIG X 999      48.027 125.371  24.259  1.00  0.00     0.006 C 
HETATM   23  C6  LIG X 999      46.964 126.323  23.677  1.00  0.00    -0.000 C 
BRANCH  18  24
HETATM   24  C1  LIG X 999      43.831 124.627  23.210  1.00  0.00     0.178 C 
HETATM   25  O1  LIG X 999      43.722 124.903  21.986  1.00  0.00    -0.648 OA
HETATM   26  O2  LIG X 999      42.703 124.234  23.921  1.00  0.00    -0.648 OA
ENDBRANCH  18  24
ENDBRANCH   1  17
TORSDOF 4
ENDMDL
MODEL 5
REMARK VINA RESULT:      -5.3      1.345      1.992
REMARK  4 active torsions:
REMARK  status: ('A' for Active; 'I' for Inactive)
REMARK    1  A    between atoms: C1_2  and  C2_4 
REMARK    2  A    between atoms: C8_10  and  C9_11 
REMARK       I    between atoms: C9_11  and  N1_13 
REMARK    3  A    between atoms: N1_13  and  S1_14 
REMARK    4  A    between atoms: S1_14  and  C10_17 
ROOT
HETATM    1  C9  LIG X 999      44.553 129.617  21.961  1.00  0.00     0.259 C 
HETATM    2  O3  LIG X 999      43.658 130.267  22.569  1.00  0.00    -0.270 OA
HETATM    3  N1  LIG X 999      44.881 129.943  20.609  1.00  0.00    -0.122 NA
ENDROOT
BRANCH   3   4
HETATM    4  S1  LIG X 999      44.288 131.376  19.840  1.00  0.00     0.286 S 
HETATM    5  O4  LIG X 999      44.918 132.588  20.465  1.00  0.00    -0.198 OA
HETATM    6  O5  LIG X 999      42.799 131.459  20.024  1.00  0.00    -0.198 OA
BRANCH   4   7
HETATM    7  C10 LIG X 999      44.664 131.294  18.122  1.00  0.00     0.082 A 
HETATM    8  C11 LIG X 999      43.770 131.832  17.186  1.00  0.00     0.026 A 
HETATM    9  C12 LIG X 999      44.029 131.722  15.818  1.00  0.00     0.014 A 
HETATM   10  C13 LIG X 999      45.184 131.065  15.369  1.00  0.00    -0.026 A 
HETATM   11  C14 LIG X 999      45.450 130.942  13.996  1.00  0.00     0.012 A 
HETATM   12  C18 LIG X 999      46.089 130.517  16.310  1.00  0.00    -0.025 A 
HETATM   13  C15 LIG X 999      46.601 130.280  13.562  1.00  0.00     0.001 A 
HETATM   14  C16 LIG X 999      47.494 129.738  14.490  1.00  0.00     0.001 A 
HETATM   15  C17 LIG X 999      47.241 129.854  15.860  1.00  0.00     0.012 A 
HETATM   16  C19 LIG X 999      45.821 130.636  17.682  1.00  0.00     0.037 A 
ENDBRANCH   4   7
ENDBRANCH   3   4
BRANCH   1  17
HETATM   17  C8  LIG X 999      45.339 128.535  22.665  1.00  0.00     0.099 C 
HETATM   18  C2  LIG X 999      44.685 128.005  23.979  1.00  0.00     0.104 C 
HETATM   19  C3  LIG X 999      44.538 126.489  23.690  1.00  0.00     0.001 C 
HETATM   20  C4  LIG X 999      45.938 125.847  23.736  1.00  0.00     0.006 C 
HETATM   21  C7  LIG X 999      44.251 126.455  22.205  1.00  0.00     0.011 C 
HETATM   22  C5  LIG X 999      46.596 126.372  22.448  1.00  0.00     0.006 C 
HETATM   23  C6  LIG X 999      45.486 127.240  21.824  1.00  0.00    -0.000 C 
BRANCH  18  24
HETATM   24  C1  LIG X 999      43.372 128.654  24.360  1.00  0.00     0.178 C 
HETATM   25  O1  LIG X 999      43.340 129.885  24.622  1.00  0.00    -0.648 OA
HETATM   26  O2  LIG X 999      42.188 127.926  24.380  1.00  0.00    -0.648 OA
ENDBRANCH  18  24
ENDBRANCH   1  17
TORSDOF 4
ENDMDL
MODEL 6
REMARK VINA RESULT:      -5.1      1.978      2.781
REMARK  4 active torsions:
REMARK  status: ('A' for Active; 'I' for Inactive)
REMARK    1  A    between atoms: C1_2  and  C2_4 
REMARK    2  A    between atoms: C8_10  and  C9_11 
REMARK       I    between atoms: C9_11  and  N1_13 
REMARK    3  A    between atoms: N1_13  and  S1_14 
REMARK    4  A    between atoms: S1_14  and  C10_17 
ROOT
HETATM    1  C9  LIG X 999      43.403 127.528  23.716  1.00  0.00     0.259 C 
HETATM    2  O3  LIG X 999      44.446 127.692  24.405  1.00  0.00    -0.270 OA
HETATM    3  N1  LIG X 999      42.672 128.661  23.243  1.00  0.00    -0.122 NA
ENDROOT
BRANCH   3   4
HETATM    4  S1  LIG X 999      43.300 130.269  23.349  1.00  0.00     0.286 S 
HETATM    5  O4  LIG X 999      44.589 130.264  24.122  1.00  0.00    -0.198 OA
HETATM    6  O5  LIG X 999      42.312 131.142  24.070  1.00  0.00    -0.198 OA
BRANCH   4   7
HETATM    7  C10 LIG X 999      43.552 130.889  21.720  1.00  0.00     0.082 A 
HETATM    8  C11 LIG X 999      42.651 131.816  21.180  1.00  0.00     0.026 A 
HETATM    9  C12 LIG X 999      42.807 132.270  19.868  1.00  0.00     0.014 A 
HETATM   10  C13 LIG X 999      43.865 131.796  19.078  1.00  0.00    -0.026 A 
HETATM   11  C14 LIG X 999      44.027 132.240  17.757  1.00  0.00     0.012 A 
HETATM   12  C18 LIG X 999      44.776 130.857  19.619  1.00  0.00    -0.025 A 
HETATM   13  C15 LIG X 999      45.082 131.755  16.979  1.00  0.00     0.001 A 
HETATM   14  C16 LIG X 999      45.981 130.827  17.511  1.00  0.00     0.001 A 
HETATM   15  C17 LIG X 999      45.831 130.377  18.827  1.00  0.00     0.012 A 
HETATM   16  C19 LIG X 999      44.612 130.410  20.938  1.00  0.00     0.037 A 
ENDBRANCH   4   7
ENDBRANCH   3   4
BRANCH   1  17
HETATM   17  C8  LIG X 999      42.946 126.142  23.318  1.00  0.00     0.099 C 
HETATM   18  C2  LIG X 999      43.930 125.376  22.381  1.00  0.00     0.104 C 
HETATM   19  C3  LIG X 999      44.230 124.090  23.193  1.00  0.00     0.001 C 
HETATM   20  C4  LIG X 999      42.978 123.192  23.162  1.00  0.00     0.006 C 
HETATM   21  C7  LIG X 999      44.201 124.581  24.624  1.00  0.00     0.011 C 
HETATM   22  C5  LIG X 999      41.996 123.946  24.076  1.00  0.00     0.006 C 
HETATM   23  C6  LIG X 999      42.813 125.173  24.522  1.00  0.00    -0.000 C 
BRANCH  18  24
HETATM   24  C1  LIG X 999      45.187 126.129  22.001  1.00  0.00     0.178 C 
HETATM   25  O1  LIG X 999      45.094 127.285  21.510  1.00  0.00    -0.648 OA
HETATM   26  O2  LIG X 999      46.448 125.589  22.230  1.00  0.00    -0.648 OA
ENDBRANCH  18  24
ENDBRANCH   1  17
TORSDOF 4
ENDMDL
