REMARK VINA RESULT:      -6.0      2.697      7.554
REMARK  7 active torsions:
REMARK  status: ('A' for Active; 'I' for Inactive)
REMARK    1  A    between atoms: S1_2  and  C1_3 
REMARK    2  A    between atoms: C1_3  and  N2_11 
REMARK    3  A    between atoms: N1_4  and  C2_6 
REMARK    4  A    between atoms: C2_6  and  C3_7 
REMARK    5  A    between atoms: C3_7  and  C4_8 
REMARK    6  A    between atoms: C4_8  and  S2_9 
REMARK    7  A    between atoms: N2_11  and  C5_14 
ROOT
HETATM    1  N2  LIG X 999      45.103 132.369  19.897  1.00  0.00     0.006 N 
HETATM    2  H10 LIG X 999      46.123 132.566  19.765  1.00  0.00     0.293 HD
HETATM    3  H11 LIG X 999      44.658 133.241  20.265  1.00  0.00     0.293 HD
ENDROOT
BRANCH   1   4
HETATM    4  C1  LIG X 999      44.511 132.009  18.633  1.00  0.00     0.240 C 
HETATM    5  N1  LIG X 999      45.270 131.815  17.597  1.00  0.00    -0.365 N 
HETATM    6  H2  LIG X 999      46.283 131.991  17.682  1.00  0.00     0.161 HD
BRANCH   4   7
HETATM    7  S1  LIG X 999      42.715 131.817  18.549  1.00  0.00    -0.100 SA
HETATM    8  H1  LIG X 999      42.510 132.856  19.475  1.00  0.00     0.110 HD
ENDBRANCH   4   7
BRANCH   5   9
HETATM    9  C2  LIG X 999      44.794 131.300  16.325  1.00  0.00     0.122 C 
BRANCH   9  10
HETATM   10  C3  LIG X 999      45.735 131.694  15.176  1.00  0.00     0.029 C 
BRANCH  10  11
HETATM   11  C4  LIG X 999      46.212 130.474  14.381  1.00  0.00     0.072 C 
BRANCH  11  12
HETATM   12  S2  LIG X 999      47.472 130.963  13.164  1.00  0.00    -0.182 SA
HETATM   13  H9  LIG X 999      46.793 130.348  12.094  1.00  0.00     0.101 HD
ENDBRANCH  11  12
ENDBRANCH  10  11
ENDBRANCH   9  10
ENDBRANCH   5   9
ENDBRANCH   1   4
BRANCH   1  14
HETATM   14  C5  LIG X 999      44.894 131.298  20.841  1.00  0.00     0.141 A 
HETATM   15  C6  LIG X 999      45.589 130.084  20.706  1.00  0.00     0.038 A 
HETATM   16  C7  LIG X 999      45.338 129.020  21.577  1.00  0.00     0.014 A 
HETATM   17  C8  LIG X 999      44.381 129.150  22.592  1.00  0.00    -0.026 A 
HETATM   18  C9  LIG X 999      44.114 128.084  23.465  1.00  0.00     0.012 A 
HETATM   19  C13 LIG X 999      43.674 130.368  22.737  1.00  0.00    -0.024 A 
HETATM   20  C10 LIG X 999      43.153 128.225  24.470  1.00  0.00     0.001 A 
HETATM   21  C11 LIG X 999      42.453 129.426  24.612  1.00  0.00     0.001 A 
HETATM   22  C12 LIG X 999      42.712 130.496  23.751  1.00  0.00     0.012 A 
HETATM   23  C14 LIG X 999      43.936 131.433  21.862  1.00  0.00     0.049 A 
ENDBRANCH   1  14
TORSDOF 7
