REMARK VINA RESULT:      -8.1      3.656      6.553
REMARK  2 active torsions:
REMARK  status: ('A' for Active; 'I' for Inactive)
REMARK    1  A    between atoms: C1_2  and  C2_4 
REMARK    2  A    between atoms: C3_5  and  C4_6 
ROOT
HETATM    1  C4  LIG X 999      45.585 131.205  17.332  1.00  0.00     0.019 A 
HETATM    2  C5  LIG X 999      45.374 132.347  16.550  1.00  0.00     0.021 A 
HETATM    3  C6  LIG X 999      45.888 132.417  15.252  1.00  0.00     0.013 A 
HETATM    4  C7  LIG X 999      46.618 131.341  14.724  1.00  0.00    -0.026 A 
HETATM    5  C8  LIG X 999      47.139 131.400  13.422  1.00  0.00     0.012 A 
HETATM    6  C9  LIG X 999      47.865 130.322  12.908  1.00  0.00     0.001 A 
HETATM    7  C10 LIG X 999      48.077 129.181  13.687  1.00  0.00     0.001 A 
HETATM    8  C11 LIG X 999      47.564 129.109  14.985  1.00  0.00     0.012 A 
HETATM    9  C12 LIG X 999      46.832 130.185  15.514  1.00  0.00    -0.025 A 
HETATM   10  C13 LIG X 999      46.312 130.126  16.816  1.00  0.00     0.032 A 
ENDROOT
BRANCH   1  11
HETATM   11  C3  LIG X 999      45.052 131.142  18.669  1.00  0.00    -0.056 C 
HETATM   12  C2  LIG X 999      44.605 131.089  19.787  1.00  0.00     0.010 C 
BRANCH  12  13
HETATM   13  C1  LIG X 999      44.073 131.025  21.118  1.00  0.00     0.258 C 
HETATM   14  O1  LIG X 999      44.621 130.290  21.980  1.00  0.00    -0.637 OA
HETATM   15  O2  LIG X 999      42.953 131.772  21.454  1.00  0.00    -0.637 OA
ENDBRANCH  12  13
ENDBRANCH   1  11
TORSDOF 2
