REMARK VINA RESULT:      -5.7      2.033      2.681
REMARK  7 active torsions:
REMARK  status: ('A' for Active; 'I' for Inactive)
REMARK    1  A    between atoms: S1_2  and  C1_3 
REMARK    2  A    between atoms: C1_3  and  N2_11 
REMARK    3  A    between atoms: N1_4  and  C2_6 
REMARK    4  A    between atoms: C2_6  and  C3_7 
REMARK    5  A    between atoms: C3_7  and  C4_8 
REMARK    6  A    between atoms: C4_8  and  S2_9 
REMARK    7  A    between atoms: N2_11  and  C5_14 
ROOT
HETATM    1  N2  LIG X 999      45.577 130.290  20.284  1.00  0.00     0.006 N 
HETATM    2  H10 LIG X 999      46.544 129.925  20.444  1.00  0.00     0.293 HD
HETATM    3  H11 LIG X 999      44.925 129.512  20.538  1.00  0.00     0.293 HD
ENDROOT
BRANCH   1   4
HETATM    4  C1  LIG X 999      45.329 131.420  21.159  1.00  0.00     0.240 C 
HETATM    5  N1  LIG X 999      44.294 131.500  21.944  1.00  0.00    -0.365 N 
HETATM    6  H2  LIG X 999      44.192 132.343  22.529  1.00  0.00     0.161 HD
BRANCH   4   7
HETATM    7  S1  LIG X 999      46.457 132.823  21.093  1.00  0.00    -0.100 SA
HETATM    8  H1  LIG X 999      45.605 133.631  21.867  1.00  0.00     0.110 HD
ENDBRANCH   4   7
BRANCH   5   9
HETATM    9  C2  LIG X 999      43.287 130.468  22.120  1.00  0.00     0.122 C 
BRANCH   9  10
HETATM   10  C3  LIG X 999      42.769 130.478  23.565  1.00  0.00     0.029 C 
BRANCH  10  11
HETATM   11  C4  LIG X 999      43.371 129.354  24.414  1.00  0.00     0.072 C 
BRANCH  11  12
HETATM   12  S2  LIG X 999      44.360 128.204  23.404  1.00  0.00    -0.182 SA
HETATM   13  H9  LIG X 999      43.819 128.671  22.192  1.00  0.00     0.101 HD
ENDBRANCH  11  12
ENDBRANCH  10  11
ENDBRANCH   9  10
ENDBRANCH   5   9
ENDBRANCH   1   4
BRANCH   1  14
HETATM   14  C5  LIG X 999      45.338 130.617  18.898  1.00  0.00     0.141 A 
HETATM   15  C6  LIG X 999      44.260 131.446  18.538  1.00  0.00     0.038 A 
HETATM   16  C7  LIG X 999      44.018 131.763  17.199  1.00  0.00     0.014 A 
HETATM   17  C8  LIG X 999      44.867 131.275  16.195  1.00  0.00    -0.026 A 
HETATM   18  C9  LIG X 999      44.629 131.583  14.847  1.00  0.00     0.012 A 
HETATM   19  C13 LIG X 999      45.977 130.472  16.546  1.00  0.00    -0.024 A 
HETATM   20  C10 LIG X 999      45.486 131.098  13.855  1.00  0.00     0.001 A 
HETATM   21  C11 LIG X 999      46.585 130.306  14.201  1.00  0.00     0.001 A 
HETATM   22  C12 LIG X 999      46.832 129.994  15.541  1.00  0.00     0.012 A 
HETATM   23  C14 LIG X 999      46.212 130.160  17.893  1.00  0.00     0.049 A 
ENDBRANCH   1  14
TORSDOF 7
