MODEL 1
REMARK VINA RESULT:      -9.2      0.000      0.000
REMARK  6 active torsions:
REMARK  status: ('A' for Active; 'I' for Inactive)
REMARK    1  A    between atoms: C4_5  and  C5_6 
REMARK       I    between atoms: C5_6  and  N2_8 
REMARK    2  A    between atoms: N2_8  and  C6_9 
REMARK    3  A    between atoms: C6_9  and  O2_10 
REMARK    4  A    between atoms: O2_10  and  C7_11 
REMARK    5  A    between atoms: C7_11  and  O4_13 
REMARK    6  A    between atoms: O4_13  and  C8_14 
ROOT
HETATM    1  C7  LIG X 999      45.259 131.306  19.681  1.00  0.00     0.413 C 
HETATM    2  O3  LIG X 999      46.162 130.980  20.497  1.00  0.00    -0.229 OA
ENDROOT
BRANCH   1   3
HETATM    3  O2  LIG X 999      44.428 132.399  19.941  1.00  0.00    -0.276 OA
BRANCH   3   4
HETATM    4  C6  LIG X 999      43.056 132.283  20.312  1.00  0.00     0.334 C 
BRANCH   4   5
HETATM    5  N2  LIG X 999      42.848 131.065  21.087  1.00  0.00    -0.224 NA
HETATM    6  C5  LIG X 999      43.045 130.964  22.501  1.00  0.00     0.292 C 
HETATM    7  O1  LIG X 999      43.305 131.990  23.186  1.00  0.00    -0.264 OA
BRANCH   6   8
HETATM    8  C4  LIG X 999      42.924 129.657  23.162  1.00  0.00     0.119 A 
HETATM    9  C3  LIG X 999      43.968 128.816  23.510  1.00  0.00     0.055 A 
HETATM   10  C2  LIG X 999      43.356 127.715  24.080  1.00  0.00     0.112 A 
HETATM   11  N1  LIG X 999      42.024 127.916  24.076  1.00  0.00    -0.307 N 
HETATM   12  C1  LIG X 999      41.013 126.962  24.514  1.00  0.00     0.177 C 
HETATM   13  N3  LIG X 999      41.758 129.082  23.510  1.00  0.00    -0.294 N 
HETATM   14  H15 LIG X 999      40.798 129.466  23.356  1.00  0.00     0.187 HD
ENDBRANCH   6   8
ENDBRANCH   4   5
ENDBRANCH   3   4
ENDBRANCH   1   3
BRANCH   1  15
HETATM   15  O4  LIG X 999      45.037 130.556  18.520  1.00  0.00    -0.256 OA
BRANCH  15  16
HETATM   16  C8  LIG X 999      45.572 130.841  17.255  1.00  0.00     0.082 A 
HETATM   17  C9  LIG X 999      45.339 132.063  16.598  1.00  0.00     0.038 A 
HETATM   18  C10 LIG X 999      45.882 132.304  15.333  1.00  0.00     0.015 A 
HETATM   19  C11 LIG X 999      46.661 131.323  14.701  1.00  0.00    -0.026 A 
HETATM   20  C12 LIG X 999      47.214 131.555  13.432  1.00  0.00     0.012 A 
HETATM   21  C16 LIG X 999      46.885 130.085  15.348  1.00  0.00    -0.023 A 
HETATM   22  C13 LIG X 999      47.982 130.566  12.811  1.00  0.00     0.001 A 
HETATM   23  C14 LIG X 999      48.204 129.343  13.449  1.00  0.00     0.001 A 
HETATM   24  C15 LIG X 999      47.658 129.099  14.713  1.00  0.00     0.012 A 
HETATM   25  C17 LIG X 999      46.333 129.852  16.617  1.00  0.00     0.049 A 
ENDBRANCH  15  16
ENDBRANCH   1  15
TORSDOF 6
ENDMDL
MODEL 2
REMARK VINA RESULT:      -8.3      1.475      2.206
REMARK  6 active torsions:
REMARK  status: ('A' for Active; 'I' for Inactive)
REMARK    1  A    between atoms: C4_5  and  C5_6 
REMARK       I    between atoms: C5_6  and  N2_8 
REMARK    2  A    between atoms: N2_8  and  C6_9 
REMARK    3  A    between atoms: C6_9  and  O2_10 
REMARK    4  A    between atoms: O2_10  and  C7_11 
REMARK    5  A    between atoms: C7_11  and  O4_13 
REMARK    6  A    between atoms: O4_13  and  C8_14 
ROOT
HETATM    1  C7  LIG X 999      44.235 132.059  19.355  1.00  0.00     0.413 C 
HETATM    2  O3  LIG X 999      45.297 132.112  20.033  1.00  0.00    -0.229 OA
ENDROOT
BRANCH   1   3
HETATM    3  O2  LIG X 999      43.003 131.851  19.981  1.00  0.00    -0.276 OA
BRANCH   3   4
HETATM    4  C6  LIG X 999      42.821 131.855  21.395  1.00  0.00     0.334 C 
BRANCH   4   5
HETATM    5  N2  LIG X 999      43.077 130.525  21.936  1.00  0.00    -0.224 NA
HETATM    6  C5  LIG X 999      43.886 130.264  23.089  1.00  0.00     0.292 C 
HETATM    7  O1  LIG X 999      44.338 131.215  23.782  1.00  0.00    -0.264 OA
BRANCH   6   8
HETATM    8  C4  LIG X 999      44.176 128.877  23.475  1.00  0.00     0.119 A 
HETATM    9  C3  LIG X 999      43.651 128.204  24.567  1.00  0.00     0.055 A 
HETATM   10  C2  LIG X 999      44.232 126.950  24.518  1.00  0.00     0.112 A 
HETATM   11  N1  LIG X 999      45.043 126.895  23.443  1.00  0.00    -0.307 N 
HETATM   12  C1  LIG X 999      45.902 125.778  23.075  1.00  0.00     0.177 C 
HETATM   13  N3  LIG X 999      45.022 128.061  22.818  1.00  0.00    -0.294 N 
HETATM   14  H15 LIG X 999      45.584 128.294  21.969  1.00  0.00     0.187 HD
ENDBRANCH   6   8
ENDBRANCH   4   5
ENDBRANCH   3   4
ENDBRANCH   1   3
BRANCH   1  15
HETATM   15  O4  LIG X 999      44.271 132.161  17.960  1.00  0.00    -0.256 OA
BRANCH  15  16
HETATM   16  C8  LIG X 999      45.081 131.394  17.109  1.00  0.00     0.082 A 
HETATM   17  C9  LIG X 999      45.422 130.060  17.399  1.00  0.00     0.038 A 
HETATM   18  C10 LIG X 999      46.240 129.332  16.530  1.00  0.00     0.015 A 
HETATM   19  C11 LIG X 999      46.736 129.929  15.362  1.00  0.00    -0.026 A 
HETATM   20  C12 LIG X 999      47.556 129.207  14.481  1.00  0.00     0.012 A 
HETATM   21  C16 LIG X 999      46.412 131.276  15.074  1.00  0.00    -0.023 A 
HETATM   22  C13 LIG X 999      48.049 129.816  13.324  1.00  0.00     0.001 A 
HETATM   23  C14 LIG X 999      47.729 131.145  13.038  1.00  0.00     0.001 A 
HETATM   24  C15 LIG X 999      46.915 131.876  13.908  1.00  0.00     0.012 A 
HETATM   25  C17 LIG X 999      45.592 131.998  15.954  1.00  0.00     0.049 A 
ENDBRANCH  15  16
ENDBRANCH   1  15
TORSDOF 6
ENDMDL
MODEL 3
REMARK VINA RESULT:      -8.2      4.380      6.110
REMARK  6 active torsions:
REMARK  status: ('A' for Active; 'I' for Inactive)
REMARK    1  A    between atoms: C4_5  and  C5_6 
REMARK       I    between atoms: C5_6  and  N2_8 
REMARK    2  A    between atoms: N2_8  and  C6_9 
REMARK    3  A    between atoms: C6_9  and  O2_10 
REMARK    4  A    between atoms: O2_10  and  C7_11 
REMARK    5  A    between atoms: C7_11  and  O4_13 
REMARK    6  A    between atoms: O4_13  and  C8_14 
ROOT
HETATM    1  C7  LIG X 999      45.071 131.449  19.682  1.00  0.00     0.413 C 
HETATM    2  O3  LIG X 999      44.043 132.128  19.950  1.00  0.00    -0.229 OA
ENDROOT
BRANCH   1   3
HETATM    3  O2  LIG X 999      46.239 131.603  20.433  1.00  0.00    -0.276 OA
BRANCH   3   4
HETATM    4  C6  LIG X 999      46.349 132.470  21.560  1.00  0.00     0.334 C 
BRANCH   4   5
HETATM    5  N2  LIG X 999      47.393 133.462  21.330  1.00  0.00    -0.224 NA
HETATM    6  C5  LIG X 999      47.895 134.353  22.332  1.00  0.00     0.292 C 
HETATM    7  O1  LIG X 999      47.526 134.241  23.531  1.00  0.00    -0.264 OA
BRANCH   6   8
HETATM    8  C4  LIG X 999      48.862 135.395  21.960  1.00  0.00     0.119 A 
HETATM    9  C3  LIG X 999      48.738 136.291  20.910  1.00  0.00     0.055 A 
HETATM   10  C2  LIG X 999      49.894 137.047  20.957  1.00  0.00     0.112 A 
HETATM   11  N1  LIG X 999      50.644 136.621  21.992  1.00  0.00    -0.307 N 
HETATM   12  C1  LIG X 999      51.974 137.101  22.340  1.00  0.00     0.177 C 
HETATM   13  N3  LIG X 999      50.030 135.615  22.592  1.00  0.00    -0.294 N 
HETATM   14  H15 LIG X 999      50.411 135.084  23.408  1.00  0.00     0.187 HD
ENDBRANCH   6   8
ENDBRANCH   4   5
ENDBRANCH   3   4
ENDBRANCH   1   3
BRANCH   1  15
HETATM   15  O4  LIG X 999      45.081 130.561  18.600  1.00  0.00    -0.256 OA
BRANCH  15  16
HETATM   16  C8  LIG X 999      45.588 130.842  17.323  1.00  0.00     0.082 A 
HETATM   17  C9  LIG X 999      45.328 132.057  16.662  1.00  0.00     0.038 A 
HETATM   18  C10 LIG X 999      45.845 132.294  15.385  1.00  0.00     0.015 A 
HETATM   19  C11 LIG X 999      46.621 131.317  14.745  1.00  0.00    -0.026 A 
HETATM   20  C12 LIG X 999      47.147 131.546  13.464  1.00  0.00     0.012 A 
HETATM   21  C16 LIG X 999      46.871 130.086  15.396  1.00  0.00    -0.023 A 
HETATM   22  C13 LIG X 999      47.914 130.561  12.835  1.00  0.00     0.001 A 
HETATM   23  C14 LIG X 999      48.162 129.345  13.477  1.00  0.00     0.001 A 
HETATM   24  C15 LIG X 999      47.643 129.105  14.753  1.00  0.00     0.012 A 
HETATM   25  C17 LIG X 999      46.347 129.857  16.677  1.00  0.00     0.049 A 
ENDBRANCH  15  16
ENDBRANCH   1  15
TORSDOF 6
ENDMDL
MODEL 4
REMARK VINA RESULT:      -7.8      2.945      8.465
REMARK  6 active torsions:
REMARK  status: ('A' for Active; 'I' for Inactive)
REMARK    1  A    between atoms: C4_5  and  C5_6 
REMARK       I    between atoms: C5_6  and  N2_8 
REMARK    2  A    between atoms: N2_8  and  C6_9 
REMARK    3  A    between atoms: C6_9  and  O2_10 
REMARK    4  A    between atoms: O2_10  and  C7_11 
REMARK    5  A    between atoms: C7_11  and  O4_13 
REMARK    6  A    between atoms: O4_13  and  C8_14 
ROOT
HETATM    1  C7  LIG X 999      43.739 131.370  21.717  1.00  0.00     0.413 C 
HETATM    2  O3  LIG X 999      42.632 131.971  21.772  1.00  0.00    -0.229 OA
ENDROOT
BRANCH   1   3
HETATM    3  O2  LIG X 999      44.506 131.401  20.549  1.00  0.00    -0.276 OA
BRANCH   3   4
HETATM    4  C6  LIG X 999      44.043 131.932  19.309  1.00  0.00     0.334 C 
BRANCH   4   5
HETATM    5  N2  LIG X 999      44.927 131.518  18.225  1.00  0.00    -0.224 NA
HETATM    6  C5  LIG X 999      44.531 131.424  16.853  1.00  0.00     0.292 C 
HETATM    7  O1  LIG X 999      43.392 131.819  16.486  1.00  0.00    -0.264 OA
BRANCH   6   8
HETATM    8  C4  LIG X 999      45.468 130.879  15.861  1.00  0.00     0.119 A 
HETATM    9  C3  LIG X 999      45.929 129.573  15.800  1.00  0.00     0.055 A 
HETATM   10  C2  LIG X 999      46.792 129.557  14.720  1.00  0.00     0.112 A 
HETATM   11  N1  LIG X 999      46.818 130.788  14.173  1.00  0.00    -0.307 N 
HETATM   12  C1  LIG X 999      47.662 131.215  13.065  1.00  0.00     0.177 C 
HETATM   13  N3  LIG X 999      46.031 131.593  14.868  1.00  0.00    -0.294 N 
HETATM   14  H15 LIG X 999      45.893 132.610  14.671  1.00  0.00     0.187 HD
ENDBRANCH   6   8
ENDBRANCH   4   5
ENDBRANCH   3   4
ENDBRANCH   1   3
BRANCH   1  15
HETATM   15  O4  LIG X 999      44.203 130.623  22.805  1.00  0.00    -0.256 OA
BRANCH  15  16
HETATM   16  C8  LIG X 999      43.965 129.256  23.014  1.00  0.00     0.082 A 
HETATM   17  C9  LIG X 999      42.813 128.787  23.671  1.00  0.00     0.038 A 
HETATM   18  C10 LIG X 999      42.617 127.417  23.868  1.00  0.00     0.015 A 
HETATM   19  C11 LIG X 999      43.574 126.495  23.418  1.00  0.00    -0.026 A 
HETATM   20  C12 LIG X 999      43.387 125.117  23.607  1.00  0.00     0.012 A 
HETATM   21  C16 LIG X 999      44.743 126.962  22.772  1.00  0.00    -0.023 A 
HETATM   22  C13 LIG X 999      44.351 124.211  23.159  1.00  0.00     0.001 A 
HETATM   23  C14 LIG X 999      45.506 124.670  22.521  1.00  0.00     0.001 A 
HETATM   24  C15 LIG X 999      45.705 126.040  22.327  1.00  0.00     0.012 A 
HETATM   25  C17 LIG X 999      44.931 128.339  22.581  1.00  0.00     0.049 A 
ENDBRANCH  15  16
ENDBRANCH   1  15
TORSDOF 6
ENDMDL
MODEL 5
REMARK VINA RESULT:      -7.7      2.099      3.662
REMARK  6 active torsions:
REMARK  status: ('A' for Active; 'I' for Inactive)
REMARK    1  A    between atoms: C4_5  and  C5_6 
REMARK       I    between atoms: C5_6  and  N2_8 
REMARK    2  A    between atoms: N2_8  and  C6_9 
REMARK    3  A    between atoms: C6_9  and  O2_10 
REMARK    4  A    between atoms: O2_10  and  C7_11 
REMARK    5  A    between atoms: C7_11  and  O4_13 
REMARK    6  A    between atoms: O4_13  and  C8_14 
ROOT
HETATM    1  C7  LIG X 999      44.128 130.725  22.062  1.00  0.00     0.413 C 
HETATM    2  O3  LIG X 999      43.280 131.493  22.593  1.00  0.00    -0.229 OA
ENDROOT
BRANCH   1   3
HETATM    3  O2  LIG X 999      44.240 129.396  22.479  1.00  0.00    -0.276 OA
BRANCH   3   4
HETATM    4  C6  LIG X 999      44.086 128.973  23.832  1.00  0.00     0.334 C 
BRANCH   4   5
HETATM    5  N2  LIG X 999      42.778 128.356  24.019  1.00  0.00    -0.224 NA
HETATM    6  C5  LIG X 999      42.446 127.026  23.605  1.00  0.00     0.292 C 
HETATM    7  O1  LIG X 999      43.334 126.258  23.146  1.00  0.00    -0.264 OA
BRANCH   6   8
HETATM    8  C4  LIG X 999      41.062 126.548  23.732  1.00  0.00     0.119 A 
HETATM    9  C3  LIG X 999      40.666 125.288  24.151  1.00  0.00     0.055 A 
HETATM   10  C2  LIG X 999      39.286 125.316  24.087  1.00  0.00     0.112 A 
HETATM   11  N1  LIG X 999      38.901 126.536  23.665  1.00  0.00    -0.307 N 
HETATM   12  C1  LIG X 999      37.533 126.953  23.387  1.00  0.00     0.177 C 
HETATM   13  N3  LIG X 999      39.971 127.279  23.437  1.00  0.00    -0.294 N 
HETATM   14  H15 LIG X 999      39.952 128.259  23.076  1.00  0.00     0.187 HD
ENDBRANCH   6   8
ENDBRANCH   4   5
ENDBRANCH   3   4
ENDBRANCH   1   3
BRANCH   1  15
HETATM   15  O4  LIG X 999      45.003 131.196  21.077  1.00  0.00    -0.256 OA
BRANCH  15  16
HETATM   16  C8  LIG X 999      44.715 131.278  19.706  1.00  0.00     0.082 A 
HETATM   17  C9  LIG X 999      43.513 131.827  19.223  1.00  0.00     0.038 A 
HETATM   18  C10 LIG X 999      43.260 131.881  17.849  1.00  0.00     0.015 A 
HETATM   19  C11 LIG X 999      44.201 131.380  16.938  1.00  0.00    -0.026 A 
HETATM   20  C12 LIG X 999      43.959 131.432  15.557  1.00  0.00     0.012 A 
HETATM   21  C16 LIG X 999      45.404 130.810  17.418  1.00  0.00    -0.023 A 
HETATM   22  C13 LIG X 999      44.902 130.922  14.660  1.00  0.00     0.001 A 
HETATM   23  C14 LIG X 999      46.090 130.360  15.132  1.00  0.00     0.001 A 
HETATM   24  C15 LIG X 999      46.343 130.301  16.507  1.00  0.00     0.012 A 
HETATM   25  C17 LIG X 999      45.647 130.758  18.799  1.00  0.00     0.049 A 
ENDBRANCH  15  16
ENDBRANCH   1  15
TORSDOF 6
ENDMDL
MODEL 6
REMARK VINA RESULT:      -7.6      1.732      2.751
REMARK  6 active torsions:
REMARK  status: ('A' for Active; 'I' for Inactive)
REMARK    1  A    between atoms: C4_5  and  C5_6 
REMARK       I    between atoms: C5_6  and  N2_8 
REMARK    2  A    between atoms: N2_8  and  C6_9 
REMARK    3  A    between atoms: C6_9  and  O2_10 
REMARK    4  A    between atoms: O2_10  and  C7_11 
REMARK    5  A    between atoms: C7_11  and  O4_13 
REMARK    6  A    between atoms: O4_13  and  C8_14 
ROOT
HETATM    1  C7  LIG X 999      42.185 132.428  19.961  1.00  0.00     0.413 C 
HETATM    2  O3  LIG X 999      41.808 133.547  20.404  1.00  0.00    -0.229 OA
ENDROOT
BRANCH   1   3
HETATM    3  O2  LIG X 999      42.511 131.391  20.839  1.00  0.00    -0.276 OA
BRANCH   3   4
HETATM    4  C6  LIG X 999      43.328 131.558  21.996  1.00  0.00     0.334 C 
BRANCH   4   5
HETATM    5  N2  LIG X 999      43.413 130.303  22.734  1.00  0.00    -0.224 NA
HETATM    6  C5  LIG X 999      44.395 129.289  22.493  1.00  0.00     0.292 C 
HETATM    7  O1  LIG X 999      45.336 129.490  21.679  1.00  0.00    -0.264 OA
BRANCH   6   8
HETATM    8  C4  LIG X 999      44.314 128.011  23.214  1.00  0.00     0.119 A 
HETATM    9  C3  LIG X 999      45.385 127.244  23.645  1.00  0.00     0.055 A 
HETATM   10  C2  LIG X 999      44.806 126.142  24.246  1.00  0.00     0.112 A 
HETATM   11  N1  LIG X 999      43.467 126.270  24.179  1.00  0.00    -0.307 N 
HETATM   12  C1  LIG X 999      42.489 125.287  24.625  1.00  0.00     0.177 C 
HETATM   13  N3  LIG X 999      43.165 127.391  23.545  1.00  0.00    -0.294 N 
HETATM   14  H15 LIG X 999      42.195 127.716  23.334  1.00  0.00     0.187 HD
ENDBRANCH   6   8
ENDBRANCH   4   5
ENDBRANCH   3   4
ENDBRANCH   1   3
BRANCH   1  15
HETATM   15  O4  LIG X 999      42.330 132.214  18.586  1.00  0.00    -0.256 OA
BRANCH  15  16
HETATM   16  C8  LIG X 999      43.478 131.706  17.959  1.00  0.00     0.082 A 
HETATM   17  C9  LIG X 999      44.583 131.231  18.688  1.00  0.00     0.038 A 
HETATM   18  C10 LIG X 999      45.713 130.741  18.026  1.00  0.00     0.015 A 
HETATM   19  C11 LIG X 999      45.757 130.726  16.624  1.00  0.00    -0.026 A 
HETATM   20  C12 LIG X 999      46.885 130.234  15.948  1.00  0.00     0.012 A 
HETATM   21  C16 LIG X 999      44.656 131.219  15.885  1.00  0.00    -0.023 A 
HETATM   22  C13 LIG X 999      46.919 130.231  14.551  1.00  0.00     0.001 A 
HETATM   23  C14 LIG X 999      45.832 130.718  13.820  1.00  0.00     0.001 A 
HETATM   24  C15 LIG X 999      44.704 131.212  14.481  1.00  0.00     0.012 A 
HETATM   25  C17 LIG X 999      43.529 131.711  16.559  1.00  0.00     0.049 A 
ENDBRANCH  15  16
ENDBRANCH   1  15
TORSDOF 6
ENDMDL
MODEL 7
REMARK VINA RESULT:      -7.6      3.244      4.427
REMARK  6 active torsions:
REMARK  status: ('A' for Active; 'I' for Inactive)
REMARK    1  A    between atoms: C4_5  and  C5_6 
REMARK       I    between atoms: C5_6  and  N2_8 
REMARK    2  A    between atoms: N2_8  and  C6_9 
REMARK    3  A    between atoms: C6_9  and  O2_10 
REMARK    4  A    between atoms: O2_10  and  C7_11 
REMARK    5  A    between atoms: C7_11  and  O4_13 
REMARK    6  A    between atoms: O4_13  and  C8_14 
ROOT
HETATM    1  C7  LIG X 999      43.780 131.038  22.076  1.00  0.00     0.413 C 
HETATM    2  O3  LIG X 999      43.118 131.959  22.627  1.00  0.00    -0.229 OA
ENDROOT
BRANCH   1   3
HETATM    3  O2  LIG X 999      43.592 129.705  22.453  1.00  0.00    -0.276 OA
BRANCH   3   4
HETATM    4  C6  LIG X 999      44.296 129.077  23.523  1.00  0.00     0.334 C 
BRANCH   4   5
HETATM    5  N2  LIG X 999      45.033 127.920  23.027  1.00  0.00    -0.224 NA
HETATM    6  C5  LIG X 999      44.508 126.589  22.979  1.00  0.00     0.292 C 
HETATM    7  O1  LIG X 999      43.301 126.366  23.266  1.00  0.00    -0.264 OA
BRANCH   6   8
HETATM    8  C4  LIG X 999      45.380 125.478  22.574  1.00  0.00     0.119 A 
HETATM    9  C3  LIG X 999      45.065 124.129  22.625  1.00  0.00     0.055 A 
HETATM   10  C2  LIG X 999      46.198 123.487  22.163  1.00  0.00     0.112 A 
HETATM   11  N1  LIG X 999      47.119 124.418  21.845  1.00  0.00    -0.307 N 
HETATM   12  C1  LIG X 999      48.480 124.157  21.396  1.00  0.00     0.177 C 
HETATM   13  N3  LIG X 999      46.634 125.621  22.105  1.00  0.00    -0.294 N 
HETATM   14  H15 LIG X 999      47.155 126.517  21.974  1.00  0.00     0.187 HD
ENDBRANCH   6   8
ENDBRANCH   4   5
ENDBRANCH   3   4
ENDBRANCH   1   3
BRANCH   1  15
HETATM   15  O4  LIG X 999      44.747 131.332  21.108  1.00  0.00    -0.256 OA
BRANCH  15  16
HETATM   16  C8  LIG X 999      44.525 131.366  19.722  1.00  0.00     0.082 A 
HETATM   17  C9  LIG X 999      43.342 131.884  19.164  1.00  0.00     0.038 A 
HETATM   18  C10 LIG X 999      43.156 131.892  17.778  1.00  0.00     0.015 A 
HETATM   19  C11 LIG X 999      44.146 131.373  16.931  1.00  0.00    -0.026 A 
HETATM   20  C12 LIG X 999      43.971 131.378  15.538  1.00  0.00     0.012 A 
HETATM   21  C16 LIG X 999      45.330 130.834  17.487  1.00  0.00    -0.023 A 
HETATM   22  C13 LIG X 999      44.962 130.852  14.705  1.00  0.00     0.001 A 
HETATM   23  C14 LIG X 999      46.132 130.320  15.253  1.00  0.00     0.001 A 
HETATM   24  C15 LIG X 999      46.318 130.308  16.639  1.00  0.00     0.012 A 
HETATM   25  C17 LIG X 999      45.506 130.830  18.879  1.00  0.00     0.049 A 
ENDBRANCH  15  16
ENDBRANCH   1  15
TORSDOF 6
ENDMDL
MODEL 8
REMARK VINA RESULT:      -7.5      2.377      4.441
REMARK  6 active torsions:
REMARK  status: ('A' for Active; 'I' for Inactive)
REMARK    1  A    between atoms: C4_5  and  C5_6 
REMARK       I    between atoms: C5_6  and  N2_8 
REMARK    2  A    between atoms: N2_8  and  C6_9 
REMARK    3  A    between atoms: C6_9  and  O2_10 
REMARK    4  A    between atoms: O2_10  and  C7_11 
REMARK    5  A    between atoms: C7_11  and  O4_13 
REMARK    6  A    between atoms: O4_13  and  C8_14 
ROOT
HETATM    1  C7  LIG X 999      42.920 131.367  22.812  1.00  0.00     0.413 C 
HETATM    2  O3  LIG X 999      43.093 131.986  23.897  1.00  0.00    -0.229 OA
ENDROOT
BRANCH   1   3
HETATM    3  O2  LIG X 999      42.641 129.998  22.813  1.00  0.00    -0.276 OA
BRANCH   3   4
HETATM    4  C6  LIG X 999      42.538 129.210  23.998  1.00  0.00     0.334 C 
BRANCH   4   5
HETATM    5  N2  LIG X 999      42.234 127.825  23.654  1.00  0.00    -0.224 NA
HETATM    6  C5  LIG X 999      40.950 127.215  23.822  1.00  0.00     0.292 C 
HETATM    7  O1  LIG X 999      39.957 127.903  24.180  1.00  0.00    -0.264 OA
BRANCH   6   8
HETATM    8  C4  LIG X 999      40.786 125.779  23.556  1.00  0.00     0.119 A 
HETATM    9  C3  LIG X 999      41.614 124.992  22.772  1.00  0.00     0.055 A 
HETATM   10  C2  LIG X 999      41.042 123.734  22.814  1.00  0.00     0.112 A 
HETATM   11  N1  LIG X 999      39.946 123.787  23.595  1.00  0.00    -0.307 N 
HETATM   12  C1  LIG X 999      39.013 122.694  23.836  1.00  0.00     0.177 C 
HETATM   13  N3  LIG X 999      39.780 125.023  24.034  1.00  0.00    -0.294 N 
HETATM   14  H15 LIG X 999      38.989 125.342  24.637  1.00  0.00     0.187 HD
ENDBRANCH   6   8
ENDBRANCH   4   5
ENDBRANCH   3   4
ENDBRANCH   1   3
BRANCH   1  15
HETATM   15  O4  LIG X 999      43.047 132.025  21.584  1.00  0.00    -0.256 OA
BRANCH  15  16
HETATM   16  C8  LIG X 999      43.844 131.597  20.511  1.00  0.00     0.082 A 
HETATM   17  C9  LIG X 999      45.091 130.976  20.704  1.00  0.00     0.038 A 
HETATM   18  C10 LIG X 999      45.860 130.572  19.608  1.00  0.00     0.015 A 
HETATM   19  C11 LIG X 999      45.396 130.792  18.302  1.00  0.00    -0.026 A 
HETATM   20  C12 LIG X 999      46.158 130.388  17.194  1.00  0.00     0.012 A 
HETATM   21  C16 LIG X 999      44.151 131.432  18.101  1.00  0.00    -0.023 A 
HETATM   22  C13 LIG X 999      45.687 130.619  15.899  1.00  0.00     0.001 A 
HETATM   23  C14 LIG X 999      44.458 131.251  15.699  1.00  0.00     0.001 A 
HETATM   24  C15 LIG X 999      43.690 131.659  16.794  1.00  0.00     0.012 A 
HETATM   25  C17 LIG X 999      43.388 131.835  19.208  1.00  0.00     0.049 A 
ENDBRANCH  15  16
ENDBRANCH   1  15
TORSDOF 6
ENDMDL
MODEL 9
REMARK VINA RESULT:      -7.2      2.764      8.693
REMARK  6 active torsions:
REMARK  status: ('A' for Active; 'I' for Inactive)
REMARK    1  A    between atoms: C4_5  and  C5_6 
REMARK       I    between atoms: C5_6  and  N2_8 
REMARK    2  A    between atoms: N2_8  and  C6_9 
REMARK    3  A    between atoms: C6_9  and  O2_10 
REMARK    4  A    between atoms: O2_10  and  C7_11 
REMARK    5  A    between atoms: C7_11  and  O4_13 
REMARK    6  A    between atoms: O4_13  and  C8_14 
ROOT
HETATM    1  C7  LIG X 999      43.363 131.910  20.376  1.00  0.00     0.413 C 
HETATM    2  O3  LIG X 999      42.286 132.549  20.522  1.00  0.00    -0.229 OA
ENDROOT
BRANCH   1   3
HETATM    3  O2  LIG X 999      43.821 131.573  19.099  1.00  0.00    -0.276 OA
BRANCH   3   4
HETATM    4  C6  LIG X 999      43.027 131.679  17.918  1.00  0.00     0.334 C 
BRANCH   4   5
HETATM    5  N2  LIG X 999      43.843 131.406  16.741  1.00  0.00    -0.224 NA
HETATM    6  C5  LIG X 999      45.131 130.781  16.777  1.00  0.00     0.292 C 
HETATM    7  O1  LIG X 999      45.586 130.317  17.857  1.00  0.00    -0.264 OA
BRANCH   6   8
HETATM    8  C4  LIG X 999      45.919 130.665  15.543  1.00  0.00     0.119 A 
HETATM    9  C3  LIG X 999      45.608 131.230  14.316  1.00  0.00     0.055 A 
HETATM   10  C2  LIG X 999      46.629 130.827  13.476  1.00  0.00     0.112 A 
HETATM   11  N1  LIG X 999      47.496 130.077  14.184  1.00  0.00    -0.307 N 
HETATM   12  C1  LIG X 999      48.667 129.393  13.654  1.00  0.00     0.177 C 
HETATM   13  N3  LIG X 999      47.063 129.966  15.429  1.00  0.00    -0.294 N 
HETATM   14  H15 LIG X 999      47.537 129.413  16.179  1.00  0.00     0.187 HD
ENDBRANCH   6   8
ENDBRANCH   4   5
ENDBRANCH   3   4
ENDBRANCH   1   3
BRANCH   1  15
HETATM   15  O4  LIG X 999      44.100 131.485  21.487  1.00  0.00    -0.256 OA
BRANCH  15  16
HETATM   16  C8  LIG X 999      44.080 130.191  22.028  1.00  0.00     0.082 A 
HETATM   17  C9  LIG X 999      45.128 129.275  21.822  1.00  0.00     0.038 A 
HETATM   18  C10 LIG X 999      45.067 127.990  22.370  1.00  0.00     0.015 A 
HETATM   19  C11 LIG X 999      43.952 127.599  23.126  1.00  0.00    -0.026 A 
HETATM   20  C12 LIG X 999      43.880 126.313  23.684  1.00  0.00     0.012 A 
HETATM   21  C16 LIG X 999      42.886 128.509  23.322  1.00  0.00    -0.023 A 
HETATM   22  C13 LIG X 999      42.761 125.934  24.430  1.00  0.00     0.001 A 
HETATM   23  C14 LIG X 999      41.708 126.831  24.624  1.00  0.00     0.001 A 
HETATM   24  C15 LIG X 999      41.767 128.115  24.073  1.00  0.00     0.012 A 
HETATM   25  C17 LIG X 999      42.957 129.795  22.766  1.00  0.00     0.049 A 
ENDBRANCH  15  16
ENDBRANCH   1  15
TORSDOF 6
ENDMDL
