REMARK VINA RESULT:      -7.9      1.444      6.654
REMARK  1 active torsions:
REMARK  status: ('A' for Active; 'I' for Inactive)
REMARK    1  A    between atoms: C2_2  and  N1_3 
ROOT
HETATM    1  N1  LIG X 999      43.853 131.263  23.561  1.00  0.00    -0.073 NA
HETATM    2  N2  LIG X 999      44.130 130.186  24.091  1.00  0.00    -0.162 NA
HETATM    3  N3  LIG X 999      44.406 129.111  24.623  1.00  0.00     0.068 N 
ENDROOT
BRANCH   1   4
HETATM    4  C2  LIG X 999      43.779 131.420  22.137  1.00  0.00     0.094 A 
HETATM    5  C1  LIG X 999      42.676 132.086  21.590  1.00  0.00     0.035 A 
HETATM    6  C10 LIG X 999      42.561 132.263  20.208  1.00  0.00     0.014 A 
HETATM    7  C9  LIG X 999      43.554 131.773  19.351  1.00  0.00    -0.025 A 
HETATM    8  C4  LIG X 999      44.681 131.093  19.896  1.00  0.00    -0.023 A 
HETATM    9  C8  LIG X 999      43.448 131.948  17.957  1.00  0.00     0.021 A 
HETATM   10  C3  LIG X 999      44.784 130.923  21.284  1.00  0.00     0.046 A 
HETATM   11  C5  LIG X 999      45.683 130.601  19.037  1.00  0.00     0.021 A 
HETATM   12  C6  LIG X 999      45.537 130.789  17.662  1.00  0.00    -0.024 A 
HETATM   13  C7  LIG X 999      44.459 131.439  17.141  1.00  0.00    -0.024 A 
HETATM   14  C14 LIG X 999      46.466 130.381  16.586  1.00  0.00     0.276 C 
HETATM   15  C11 LIG X 999      44.567 131.526  15.668  1.00  0.00     0.276 C 
HETATM   16  N4  LIG X 999      45.767 130.708  15.302  1.00  0.00    -0.067 N 
HETATM   17  C12 LIG X 999      45.342 129.460  14.625  1.00  0.00     0.272 C 
HETATM   18  C13 LIG X 999      46.661 131.466  14.399  1.00  0.00     0.272 C 
ENDBRANCH   1   4
TORSDOF 1
