REMARK VINA RESULT:      -6.1      2.223      7.916
REMARK  4 active torsions:
REMARK  status: ('A' for Active; 'I' for Inactive)
REMARK    1  A    between atoms: C2_2  and  N1_3 
REMARK    2  A    between atoms: C3_6  and  O1_7 
REMARK    3  A    between atoms: O1_7  and  C4_8 
REMARK    4  A    between atoms: C4_8  and  C5_9 
ROOT
HETATM    1  N1  LIG X 999      42.402 131.807  22.547  1.00  0.00    -0.070 NA
HETATM    2  N2  LIG X 999      42.779 132.352  23.587  1.00  0.00    -0.162 NA
HETATM    3  N3  LIG X 999      43.152 132.896  24.625  1.00  0.00     0.068 N 
ENDROOT
BRANCH   1   4
HETATM    4  C2  LIG X 999      43.316 131.400  21.516  1.00  0.00     0.127 A 
HETATM    5  C1  LIG X 999      43.129 131.793  20.178  1.00  0.00     0.049 A 
HETATM    6  C14 LIG X 999      44.031 131.388  19.186  1.00  0.00    -0.023 A 
HETATM    7  C9  LIG X 999      45.142 130.573  19.537  1.00  0.00    -0.022 A 
HETATM    8  C13 LIG X 999      43.845 131.779  17.845  1.00  0.00     0.021 A 
HETATM    9  C8  LIG X 999      45.322 130.184  20.871  1.00  0.00     0.051 A 
HETATM   10  C10 LIG X 999      46.050 130.162  18.542  1.00  0.00     0.021 A 
HETATM   11  C3  LIG X 999      44.414 130.597  21.867  1.00  0.00     0.102 A 
HETATM   12  C11 LIG X 999      45.836 130.576  17.227  1.00  0.00    -0.024 A 
HETATM   13  C12 LIG X 999      44.772 131.357  16.891  1.00  0.00    -0.024 A 
HETATM   14  C18 LIG X 999      46.639 130.251  16.030  1.00  0.00     0.276 C 
HETATM   15  C15 LIG X 999      44.763 131.626  15.437  1.00  0.00     0.276 C 
HETATM   16  N4  LIG X 999      46.046 131.056  14.915  1.00  0.00    -0.067 N 
HETATM   17  C16 LIG X 999      45.794 130.202  13.731  1.00  0.00     0.272 C 
HETATM   18  C17 LIG X 999      46.970 132.149  14.531  1.00  0.00     0.272 C 
BRANCH  11  19
HETATM   19  O1  LIG X 999      44.566 130.229  23.216  1.00  0.00    -0.337 OA
BRANCH  19  20
HETATM   20  C4  LIG X 999      44.464 128.903  23.731  1.00  0.00     0.269 C 
BRANCH  20  21
HETATM   21  C5  LIG X 999      43.066 128.458  23.727  1.00  0.00    -0.080 C 
HETATM   22  C6  LIG X 999      41.918 128.089  23.719  1.00  0.00    -0.109 C 
HETATM   23  C7  LIG X 999      40.527 127.638  23.705  1.00  0.00     0.112 C 
ENDBRANCH  20  21
ENDBRANCH  19  20
ENDBRANCH  11  19
ENDBRANCH   1   4
TORSDOF 4
