REMARK VINA RESULT:      -5.0      6.233      8.082
REMARK  3 active torsions:
REMARK  status: ('A' for Active; 'I' for Inactive)
REMARK    1  A    between atoms: C3_3  and  S1_4 
REMARK    2  A    between atoms: S1_4  and  C4_5 
REMARK    3  A    between atoms: C8_9  and  N1_10 
ROOT
HETATM    1  C1  LIG X 999      42.821 131.742  23.587  1.00  0.00     0.013 C 
HETATM    2  C2  LIG X 999      42.959 130.601  23.949  1.00  0.00    -0.107 C 
HETATM    3  C3  LIG X 999      43.131 129.212  24.386  1.00  0.00     0.172 C 
ENDROOT
BRANCH   3   4
HETATM    4  S1  LIG X 999      41.513 128.380  24.546  1.00  0.00    -0.117 SA
BRANCH   4   5
HETATM    5  C4  LIG X 999      42.047 126.843  23.776  1.00  0.00     0.015 A 
HETATM    6  C5  LIG X 999      43.406 126.733  23.361  1.00  0.00     0.020 A 
HETATM    7  C6  LIG X 999      43.884 125.564  22.724  1.00  0.00     0.018 A 
HETATM    8  C7  LIG X 999      42.979 124.526  22.524  1.00  0.00     0.026 A 
HETATM    9  C8  LIG X 999      43.069 123.264  21.957  1.00  0.00     0.175 A 
HETATM   10  C10 LIG X 999      41.694 124.642  22.937  1.00  0.00     0.019 A 
HETATM   11  N4  LIG X 999      41.866 122.627  22.025  1.00  0.00    -0.337 N 
HETATM   12  H6  LIG X 999      41.632 121.668  21.682  1.00  0.00     0.167 HD
HETATM   13  C9  LIG X 999      41.031 123.497  22.634  1.00  0.00     0.046 A 
HETATM   14  C14 LIG X 999      39.610 123.338  22.978  1.00  0.00     0.033 A 
HETATM   15  C13 LIG X 999      38.987 124.356  23.612  1.00  0.00     0.034 A 
HETATM   16  C12 LIG X 999      39.722 125.621  23.962  1.00  0.00     0.060 A 
HETATM   17  C11 LIG X 999      41.162 125.747  23.570  1.00  0.00     0.022 A 
HETATM   18  N5  LIG X 999      39.118 126.564  24.612  1.00  0.00    -0.299 NA
HETATM   19  H7  LIG X 999      38.117 126.486  24.898  1.00  0.00     0.187 HD
BRANCH   9  20
HETATM   20  N1  LIG X 999      44.254 122.703  21.386  1.00  0.00    -0.053 NA
HETATM   21  N2  LIG X 999      45.271 122.539  22.060  1.00  0.00    -0.160 NA
HETATM   22  N3  LIG X 999      46.286 122.375  22.733  1.00  0.00     0.068 N 
ENDBRANCH   9  20
ENDBRANCH   4   5
ENDBRANCH   3   4
TORSDOF 3
