REMARK VINA RESULT:      -8.5      1.079      1.095
REMARK  3 active torsions:
REMARK  status: ('A' for Active; 'I' for Inactive)
REMARK    1  A    between atoms: C1_2  and  C2_4 
REMARK       I    between atoms: N1_6  and  C4_7 
REMARK    2  A    between atoms: C4_7  and  C5_9 
REMARK    3  A    between atoms: C6_10  and  C7_11 
ROOT
HETATM    1  C5  LIG X 999      44.178 131.406  19.644  1.00  0.00     0.000 C 
HETATM    2  C6  LIG X 999      44.728 131.401  18.572  1.00  0.00    -0.057 C 
ENDROOT
BRANCH   1   3
HETATM    3  C4  LIG X 999      43.514 131.405  20.920  1.00  0.00     0.300 C 
HETATM    4  N1  LIG X 999      43.841 130.424  21.916  1.00  0.00    -0.317 N 
HETATM    5  C3  LIG X 999      44.821 129.387  21.765  1.00  0.00     0.172 C 
HETATM    6  C17 LIG X 999      43.211 130.334  23.215  1.00  0.00     0.298 C 
HETATM    7  C2  LIG X 999      44.832 128.731  23.138  1.00  0.00     0.242 C 
HETATM    8  O4  LIG X 999      43.719 129.196  23.878  1.00  0.00    -0.354 OA
HETATM    9  O3  LIG X 999      42.637 132.277  21.156  1.00  0.00    -0.258 OA
BRANCH   7  10
HETATM   10  C1  LIG X 999      44.781 127.236  23.033  1.00  0.00     0.204 C 
HETATM   11  O1  LIG X 999      43.931 126.583  23.695  1.00  0.00    -0.646 OA
HETATM   12  O2  LIG X 999      45.705 126.558  22.246  1.00  0.00    -0.646 OA
ENDBRANCH   7  10
ENDBRANCH   1   3
BRANCH   2  13
HETATM   13  C7  LIG X 999      45.381 131.389  17.289  1.00  0.00     0.019 A 
HETATM   14  C8  LIG X 999      45.355 132.531  16.479  1.00  0.00     0.021 A 
HETATM   15  C9  LIG X 999      45.987 132.526  15.233  1.00  0.00     0.013 A 
HETATM   16  C10 LIG X 999      46.652 131.375  14.784  1.00  0.00    -0.026 A 
HETATM   17  C11 LIG X 999      47.290 131.358  13.534  1.00  0.00     0.012 A 
HETATM   18  C15 LIG X 999      46.680 130.218  15.602  1.00  0.00    -0.025 A 
HETATM   19  C12 LIG X 999      47.950 130.205  13.099  1.00  0.00     0.001 A 
HETATM   20  C13 LIG X 999      47.977 129.064  13.905  1.00  0.00     0.001 A 
HETATM   21  C14 LIG X 999      47.346 129.067  15.152  1.00  0.00     0.012 A 
HETATM   22  C16 LIG X 999      46.042 130.234  16.851  1.00  0.00     0.032 A 
ENDBRANCH   2  13
TORSDOF 3
