REMARK VINA RESULT:      -5.3      5.006      6.295
REMARK  2 active torsions:
REMARK  status: ('A' for Active; 'I' for Inactive)
REMARK    1  A    between atoms: N1_1  and  C1_2 
REMARK    2  A    between atoms: C2_5  and  C3_6 
ROOT
HETATM    1  C3  LIG X 999      44.253 129.372  22.905  1.00  0.00     0.030 A 
HETATM    2  C4  LIG X 999      43.286 129.800  23.832  1.00  0.00     0.017 A 
HETATM    3  C5  LIG X 999      42.557 130.968  23.622  1.00  0.00     0.002 A 
HETATM    4  C6  LIG X 999      42.779 131.739  22.484  1.00  0.00     0.012 A 
HETATM    5  C7  LIG X 999      43.754 131.360  21.553  1.00  0.00    -0.025 A 
HETATM    6  C8  LIG X 999      43.985 132.159  20.422  1.00  0.00     0.012 A 
HETATM    7  C9  LIG X 999      44.978 131.814  19.507  1.00  0.00     0.001 A 
HETATM    8  C10 LIG X 999      45.757 130.678  19.716  1.00  0.00     0.001 A 
HETATM    9  C11 LIG X 999      45.539 129.868  20.833  1.00  0.00     0.013 A 
HETATM   10  C12 LIG X 999      44.518 130.175  21.760  1.00  0.00    -0.011 A 
ENDROOT
BRANCH   1  11
HETATM   11  C2  LIG X 999      44.922 128.074  23.161  1.00  0.00     0.205 A 
HETATM   12  N3  LIG X 999      45.367 127.681  24.374  1.00  0.00    -0.119 NA
HETATM   13  N2  LIG X 999      45.868 126.466  24.219  1.00  0.00    -0.103 NA
HETATM   14  C1  LIG X 999      45.701 126.166  22.919  1.00  0.00     0.265 A 
HETATM   15  O1  LIG X 999      45.120 127.138  22.262  1.00  0.00    -0.255 OA
BRANCH  14  16
HETATM   16  N1  LIG X 999      46.108 124.934  22.330  1.00  0.00    -0.362 N 
HETATM   17  H1  LIG X 999      45.562 124.526  21.539  1.00  0.00     0.159 HD
HETATM   18  H2  LIG X 999      46.953 124.434  22.683  1.00  0.00     0.159 HD
ENDBRANCH  14  16
ENDBRANCH   1  11
TORSDOF 2
