REMARK VINA RESULT:      -8.6      1.309      1.540
REMARK  3 active torsions:
REMARK  status: ('A' for Active; 'I' for Inactive)
REMARK    1  A    between atoms: C3_3  and  S1_4 
REMARK    2  A    between atoms: S1_4  and  C4_7 
REMARK    3  A    between atoms: C12_15  and  N1_16 
ROOT
HETATM    1  C1  LIG X 999      47.660 130.905  12.900  1.00  0.00     0.013 C 
HETATM    2  C2  LIG X 999      47.083 131.384  13.845  1.00  0.00    -0.102 C 
HETATM    3  C3  LIG X 999      46.381 131.964  14.992  1.00  0.00     0.233 C 
ENDROOT
BRANCH   3   4
HETATM    4  S1  LIG X 999      45.746 130.683  16.065  1.00  0.00     0.159 S 
HETATM    5  O1  LIG X 999      44.734 129.851  15.326  1.00  0.00    -0.227 OA
HETATM    6  O2  LIG X 999      46.894 129.802  16.471  1.00  0.00    -0.227 OA
BRANCH   4   7
HETATM    7  C4  LIG X 999      45.003 131.383  17.542  1.00  0.00     0.116 C 
HETATM    8  C5  LIG X 999      45.370 130.536  18.768  1.00  0.00     0.059 C 
HETATM    9  C6  LIG X 999      44.651 130.986  20.016  1.00  0.00    -0.049 A 
HETATM   10  C7  LIG X 999      45.169 130.608  21.266  1.00  0.00     0.007 A 
HETATM   11  C11 LIG X 999      43.431 131.704  19.952  1.00  0.00    -0.019 A 
HETATM   12  C8  LIG X 999      44.518 130.977  22.444  1.00  0.00     0.001 A 
HETATM   13  C9  LIG X 999      43.341 131.722  22.388  1.00  0.00     0.001 A 
HETATM   14  C10 LIG X 999      42.805 132.092  21.152  1.00  0.00     0.010 A 
HETATM   15  C12 LIG X 999      42.856 132.177  18.627  1.00  0.00     0.252 C 
HETATM   16  C13 LIG X 999      43.478 131.460  17.411  1.00  0.00     0.060 C 
BRANCH  15  17
HETATM   17  N1  LIG X 999      41.397 132.023  18.617  1.00  0.00     0.087 N 
HETATM   18  H12 LIG X 999      41.158 131.046  18.905  1.00  0.00     0.313 HD
HETATM   19  H13 LIG X 999      40.976 132.672  19.322  1.00  0.00     0.313 HD
ENDBRANCH  15  17
ENDBRANCH   4   7
ENDBRANCH   3   4
TORSDOF 3
