REMARK VINA RESULT:      -6.0      1.899      2.754
REMARK  5 active torsions:
REMARK  status: ('A' for Active; 'I' for Inactive)
REMARK    1  A    between atoms: C6_6  and  C7_7 
REMARK       I    between atoms: C7_7  and  N1_9 
REMARK    2  A    between atoms: N1_9  and  C8_11 
REMARK    3  A    between atoms: C8_11  and  C9_12 
REMARK    4  A    between atoms: C9_12  and  N2_13 
REMARK    5  A    between atoms: C13_19  and  N5_20 
ROOT
HETATM    1  N2  LIG X 999      46.784 129.908  15.369  1.00  0.00    -0.114 NA
HETATM    2  N3  LIG X 999      47.559 129.704  14.435  1.00  0.00    -0.168 NA
HETATM    3  N4  LIG X 999      48.334 129.499  13.501  1.00  0.00     0.068 N 
ENDROOT
BRANCH   1   4
HETATM    4  C9  LIG X 999      45.592 130.719  15.177  1.00  0.00     0.208 C 
BRANCH   4   5
HETATM    5  C8  LIG X 999      45.673 131.969  16.054  1.00  0.00     0.147 C 
BRANCH   5   6
HETATM    6  N1  LIG X 999      45.447 131.637  17.461  1.00  0.00    -0.355 N 
HETATM    7  C7  LIG X 999      44.124 131.628  18.019  1.00  0.00     0.251 C 
HETATM    8  O1  LIG X 999      43.127 131.760  17.256  1.00  0.00    -0.268 OA
HETATM    9  H4  LIG X 999      46.257 131.359  18.057  1.00  0.00     0.162 HD
BRANCH   7  10
HETATM   10  C6  LIG X 999      43.906 131.449  19.475  1.00  0.00     0.032 A 
HETATM   11  C1  LIG X 999      43.043 132.295  20.188  1.00  0.00     0.017 A 
HETATM   12  C2  LIG X 999      42.849 132.118  21.559  1.00  0.00     0.011 A 
HETATM   13  C3  LIG X 999      43.521 131.100  22.256  1.00  0.00    -0.024 A 
HETATM   14  C4  LIG X 999      44.345 130.204  21.533  1.00  0.00    -0.049 A 
HETATM   15  C13 LIG X 999      43.239 130.900  23.738  1.00  0.00     0.179 C 
HETATM   16  C5  LIG X 999      44.545 130.400  20.157  1.00  0.00     0.024 A 
HETATM   17  C10 LIG X 999      45.089 129.084  22.221  1.00  0.00     0.039 C 
HETATM   18  C11 LIG X 999      44.448 128.694  23.554  1.00  0.00     0.007 C 
HETATM   19  C12 LIG X 999      44.233 129.936  24.414  1.00  0.00     0.035 C 
BRANCH  15  20
HETATM   20  N5  LIG X 999      43.222 132.177  24.451  1.00  0.00    -0.105 NA
HETATM   21  N6  LIG X 999      44.229 132.883  24.537  1.00  0.00    -0.167 NA
HETATM   22  N7  LIG X 999      45.233 133.587  24.624  1.00  0.00     0.068 N 
ENDBRANCH  15  20
ENDBRANCH   7  10
ENDBRANCH   5   6
ENDBRANCH   4   5
ENDBRANCH   1   4
TORSDOF 5
