REMARK VINA RESULT:      -6.6      3.097      6.270
REMARK  1 active torsions:
REMARK  status: ('A' for Active; 'I' for Inactive)
REMARK    1  A    between atoms: C11_13  and  N2_14 
ROOT
HETATM    1  N2  LIG X 999      44.438 130.776  23.241  1.00  0.00    -0.053 NA
HETATM    2  N3  LIG X 999      44.145 131.751  23.933  1.00  0.00    -0.160 NA
HETATM    3  N4  LIG X 999      43.855 132.725  24.625  1.00  0.00     0.068 N 
ENDROOT
BRANCH   1   4
HETATM    4  C11 LIG X 999      44.518 130.876  21.818  1.00  0.00     0.175 A 
HETATM    5  C10 LIG X 999      43.586 131.513  21.010  1.00  0.00     0.026 A 
HETATM    6  C5  LIG X 999      44.055 131.364  19.749  1.00  0.00     0.017 A 
HETATM    7  C9  LIG X 999      42.393 132.198  21.245  1.00  0.00     0.016 A 
HETATM    8  C4  LIG X 999      45.217 130.670  19.781  1.00  0.00     0.046 A 
HETATM    9  C6  LIG X 999      43.436 131.848  18.621  1.00  0.00     0.005 A 
HETATM   10  C3  LIG X 999      45.943 130.366  18.535  1.00  0.00     0.033 A 
HETATM   11  N5  LIG X 999      45.526 130.355  21.060  1.00  0.00    -0.337 N 
HETATM   12  C2  LIG X 999      45.418 130.799  17.365  1.00  0.00     0.034 A 
HETATM   13  C1  LIG X 999      44.125 131.571  17.332  1.00  0.00     0.059 A 
HETATM   14  N1  LIG X 999      43.623 131.985  16.213  1.00  0.00    -0.300 NA
HETATM   15  H1  LIG X 999      44.093 131.801  15.298  1.00  0.00     0.187 HD
HETATM   16  H7  LIG X 999      46.362 129.823  21.389  1.00  0.00     0.167 HD
HETATM   17  C7  LIG X 999      42.226 132.549  18.806  1.00  0.00     0.015 A 
HETATM   18  C8  LIG X 999      41.708 132.722  20.120  1.00  0.00     0.002 A 
ENDBRANCH   1   4
TORSDOF 1
