REMARK VINA RESULT:      -5.1      9.117     11.286
REMARK  2 active torsions:
REMARK  status: ('A' for Active; 'I' for Inactive)
REMARK    1  A    between atoms: C9_10  and  N2_11 
REMARK       I    between atoms: N2_11  and  C10_12 
REMARK    2  A    between atoms: C10_12  and  C11_14 
ROOT
HETATM    1  C11 LIG X 999      52.148 123.105  19.413  1.00  0.00     0.282 C 
HETATM    2 CL1  LIG X 999      52.409 123.098  17.651  1.00  0.00    -0.099 Cl
HETATM    3  C12 LIG X 999      52.973 124.150  20.026  1.00  0.00     0.089 C 
HETATM    4  N3  LIG X 999      53.625 124.975  20.509  1.00  0.00    -0.195 NA
ENDROOT
BRANCH   1   5
HETATM    5  C10 LIG X 999      50.703 123.348  19.719  1.00  0.00     0.276 C 
HETATM    6  N2  LIG X 999      50.246 123.311  21.078  1.00  0.00    -0.212 NA
HETATM    7  O1  LIG X 999      49.889 123.517  18.771  1.00  0.00    -0.268 OA
BRANCH   6   8
HETATM    8  C9  LIG X 999      48.973 123.761  21.563  1.00  0.00     0.061 A 
HETATM    9  C8  LIG X 999      48.858 125.081  22.014  1.00  0.00     0.032 A 
HETATM   10  C7  LIG X 999      47.636 125.573  22.480  1.00  0.00     0.014 A 
HETATM   11  C6  LIG X 999      46.501 124.752  22.484  1.00  0.00    -0.025 A 
HETATM   12  C5  LIG X 999      45.264 125.238  22.952  1.00  0.00     0.021 A 
HETATM   13  C14 LIG X 999      46.600 123.415  22.005  1.00  0.00    -0.023 A 
HETATM   14  C4  LIG X 999      44.158 124.389  22.924  1.00  0.00    -0.024 A 
HETATM   15  C3  LIG X 999      42.781 124.676  23.380  1.00  0.00     0.276 C 
HETATM   16  C16 LIG X 999      44.252 123.111  22.462  1.00  0.00    -0.024 A 
HETATM   17  N1  LIG X 999      41.971 123.475  23.001  1.00  0.00    -0.067 N 
HETATM   18  C1  LIG X 999      41.170 123.000  24.151  1.00  0.00     0.272 C 
HETATM   19  C2  LIG X 999      41.057 123.811  21.883  1.00  0.00     0.272 C 
HETATM   20  C17 LIG X 999      42.947 122.424  22.567  1.00  0.00     0.276 C 
HETATM   21  C15 LIG X 999      45.459 122.589  21.996  1.00  0.00     0.021 A 
HETATM   22  C13 LIG X 999      47.835 122.934  21.542  1.00  0.00     0.044 A 
ENDBRANCH   6   8
ENDBRANCH   1   5
TORSDOF 2
