REMARK VINA RESULT:      -7.7      4.397      6.623
REMARK  3 active torsions:
REMARK  status: ('A' for Active; 'I' for Inactive)
REMARK    1  A    between atoms: C6_6  and  C7_7 
REMARK    2  A    between atoms: C7_7  and  N1_8 
REMARK    3  A    between atoms: C8_12  and  N4_13 
ROOT
HETATM    1  N1  LIG X 999      45.856 131.220  20.804  1.00  0.00    -0.065 NA
HETATM    2  N2  LIG X 999      46.449 132.238  21.165  1.00  0.00    -0.164 NA
HETATM    3  N3  LIG X 999      47.040 133.254  21.525  1.00  0.00     0.068 N 
ENDROOT
BRANCH   1   4
HETATM    4  C7  LIG X 999      44.612 131.312  20.052  1.00  0.00     0.267 A 
HETATM    5  O1  LIG X 999      43.763 132.315  20.562  1.00  0.00    -0.314 OA
HETATM    6  C8  LIG X 999      43.342 130.980  20.747  1.00  0.00     0.349 A 
BRANCH   4   7
HETATM    7  C6  LIG X 999      44.676 131.298  18.554  1.00  0.00     0.007 A 
HETATM    8  C5  LIG X 999      45.775 130.723  17.898  1.00  0.00     0.024 A 
HETATM    9  C4  LIG X 999      45.822 130.689  16.495  1.00  0.00    -0.025 A 
HETATM   10  C3  LIG X 999      46.920 130.122  15.829  1.00  0.00     0.012 A 
HETATM   11  C11 LIG X 999      44.750 131.228  15.744  1.00  0.00    -0.026 A 
HETATM   12  C2  LIG X 999      46.955 130.093  14.432  1.00  0.00     0.001 A 
HETATM   13  C1  LIG X 999      45.898 130.626  13.691  1.00  0.00     0.001 A 
HETATM   14  C12 LIG X 999      44.797 131.192  14.341  1.00  0.00     0.012 A 
HETATM   15  C10 LIG X 999      43.650 131.791  16.408  1.00  0.00     0.013 A 
HETATM   16  C9  LIG X 999      43.614 131.821  17.804  1.00  0.00     0.013 A 
ENDBRANCH   4   7
BRANCH   6  17
HETATM   17  N4  LIG X 999      43.453 130.603  22.148  1.00  0.00    -0.077 NA
HETATM   18  N5  LIG X 999      42.864 131.243  23.018  1.00  0.00    -0.165 NA
HETATM   19  N6  LIG X 999      42.274 131.884  23.887  1.00  0.00     0.068 N 
ENDBRANCH   6  17
ENDBRANCH   1   4
TORSDOF 3
