REMARK VINA RESULT:      -6.1      2.678      5.442
REMARK  1 active torsions:
REMARK  status: ('A' for Active; 'I' for Inactive)
REMARK    1  A    between atoms: N1_2  and  C1_3 
ROOT
HETATM    1  C1  LIG X 999      46.212 130.781  16.315  1.00  0.00     0.120 C 
HETATM    2  C2  LIG X 999      44.989 131.402  16.063  1.00  0.00     0.057 C 
HETATM    3  C3  LIG X 999      44.074 131.619  17.103  1.00  0.00    -0.045 C 
HETATM    4  C4  LIG X 999      42.675 132.005  16.686  1.00  0.00     0.049 C 
HETATM    5  C5  LIG X 999      44.464 131.330  18.450  1.00  0.00     0.008 C 
HETATM    6  C6  LIG X 999      43.725 131.699  19.623  1.00  0.00    -0.013 C 
HETATM    7  C7  LIG X 999      42.744 132.720  19.637  1.00  0.00     0.013 C 
HETATM    8  C8  LIG X 999      42.012 133.002  20.792  1.00  0.00     0.001 C 
HETATM    9  C9  LIG X 999      42.269 132.313  21.973  1.00  0.00     0.001 C 
HETATM   10  C10 LIG X 999      43.299 131.378  22.021  1.00  0.00     0.012 C 
HETATM   11  C11 LIG X 999      44.055 131.095  20.870  1.00  0.00    -0.025 C 
HETATM   12  C12 LIG X 999      45.168 130.259  20.973  1.00  0.00     0.014 C 
HETATM   13  C13 LIG X 999      45.993 130.052  19.878  1.00  0.00     0.031 C 
HETATM   14  C14 LIG X 999      45.666 130.583  18.624  1.00  0.00     0.045 C 
HETATM   15  N2  LIG X 999      46.503 130.354  17.571  1.00  0.00    -0.341 N 
HETATM   16  H12 LIG X 999      47.400 129.837  17.727  1.00  0.00     0.167 HD
ENDROOT
BRANCH   1  17
HETATM   17  N1  LIG X 999      47.055 130.567  15.353  1.00  0.00    -0.284 NA
HETATM   18  H1  LIG X 999      46.767 130.532  14.349  1.00  0.00     0.188 HD
ENDBRANCH   1  17
TORSDOF 1
