REMARK VINA RESULT:      -6.9      0.883      2.750
REMARK  1 active torsions:
REMARK  status: ('A' for Active; 'I' for Inactive)
REMARK    1  A    between atoms: N1_2  and  C1_3 
ROOT
HETATM    1  C1  LIG X 999      43.090 131.371  23.043  1.00  0.00     0.143 C 
HETATM    2  N2  LIG X 999      44.239 130.856  22.546  1.00  0.00    -0.229 NA
HETATM    3  C2  LIG X 999      44.568 130.951  21.232  1.00  0.00     0.070 C 
HETATM    4  C3  LIG X 999      45.803 130.453  20.819  1.00  0.00     0.033 C 
HETATM    5  C4  LIG X 999      46.189 130.535  19.489  1.00  0.00     0.014 C 
HETATM    6  C5  LIG X 999      45.298 131.016  18.524  1.00  0.00    -0.025 C 
HETATM    7  C6  LIG X 999      45.674 130.987  17.171  1.00  0.00     0.012 C 
HETATM    8  C7  LIG X 999      44.760 131.336  16.181  1.00  0.00     0.001 C 
HETATM    9  C8  LIG X 999      43.454 131.673  16.528  1.00  0.00     0.001 C 
HETATM   10  C9  LIG X 999      43.072 131.719  17.871  1.00  0.00     0.013 C 
HETATM   11  C10 LIG X 999      44.004 131.476  18.906  1.00  0.00    -0.013 C 
HETATM   12  C11 LIG X 999      43.680 131.567  20.303  1.00  0.00     0.010 C 
HETATM   13  C12 LIG X 999      42.552 132.258  20.853  1.00  0.00    -0.045 C 
HETATM   14  C13 LIG X 999      41.742 133.293  20.110  1.00  0.00     0.049 C 
HETATM   15  C14 LIG X 999      42.237 132.089  22.211  1.00  0.00     0.059 C 
ENDROOT
BRANCH   1  16
HETATM   16  N1  LIG X 999      42.805 131.232  24.299  1.00  0.00    -0.282 NA
HETATM   17  H1  LIG X 999      42.529 130.306  24.697  1.00  0.00     0.188 HD
ENDBRANCH   1  16
TORSDOF 1
