REMARK VINA RESULT:      -7.6      2.237      6.247
REMARK  5 active torsions:
REMARK  status: ('A' for Active; 'I' for Inactive)
REMARK    1  A    between atoms: N1_1  and  C1_2 
REMARK    2  A    between atoms: C1_2  and  C2_3 
REMARK    3  A    between atoms: C2_3  and  C3_4 
REMARK    4  A    between atoms: C3_4  and  O1_5 
REMARK    5  A    between atoms: O1_5  and  C4_6 
ROOT
HETATM    1  C4  LIG X 999      44.758 131.367  17.527  1.00  0.00     0.069 A 
HETATM    2  C5  LIG X 999      45.802 130.718  18.216  1.00  0.00     0.037 A 
HETATM    3  C6  LIG X 999      45.757 130.584  19.606  1.00  0.00     0.015 A 
HETATM    4  C7  LIG X 999      44.670 131.091  20.330  1.00  0.00    -0.026 A 
HETATM    5  C8  LIG X 999      44.615 130.960  21.727  1.00  0.00     0.012 A 
HETATM    6  C9  LIG X 999      43.525 131.472  22.437  1.00  0.00     0.001 A 
HETATM    7  C10 LIG X 999      42.485 132.117  21.760  1.00  0.00     0.001 A 
HETATM    8  C11 LIG X 999      42.528 132.254  20.371  1.00  0.00     0.012 A 
HETATM    9  C12 LIG X 999      43.617 131.745  19.645  1.00  0.00    -0.023 A 
HETATM   10  C13 LIG X 999      43.671 131.875  18.250  1.00  0.00     0.049 A 
ENDROOT
BRANCH   1  11
HETATM   11  O1  LIG X 999      44.761 131.525  16.134  1.00  0.00    -0.351 OA
BRANCH  11  12
HETATM   12  C3  LIG X 999      45.906 131.889  15.365  1.00  0.00     0.177 C 
BRANCH  12  13
HETATM   13  C2  LIG X 999      46.047 130.956  14.159  1.00  0.00     0.056 C 
BRANCH  13  14
HETATM   14  C1  LIG X 999      46.714 129.619  14.505  1.00  0.00     0.269 C 
BRANCH  14  15
HETATM   15  N1  LIG X 999      45.803 128.758  15.256  1.00  0.00     0.078 N 
HETATM   16  H1  LIG X 999      46.272 127.835  15.407  1.00  0.00     0.312 HD
HETATM   17  H2  LIG X 999      45.679 129.176  16.205  1.00  0.00     0.312 HD
ENDBRANCH  14  15
ENDBRANCH  13  14
ENDBRANCH  12  13
ENDBRANCH  11  12
ENDBRANCH   1  11
TORSDOF 5
