REMARK VINA RESULT:      -8.2      1.344      1.696
REMARK  3 active torsions:
REMARK  status: ('A' for Active; 'I' for Inactive)
REMARK    1  A    between atoms: C1_2  and  C2_4 
REMARK       I    between atoms: N1_6  and  C4_7 
REMARK    2  A    between atoms: C4_7  and  C5_9 
REMARK    3  A    between atoms: C6_10  and  C7_11 
ROOT
HETATM    1  C5  LIG X 999      44.497 130.976  20.733  1.00  0.00     0.000 C 
HETATM    2  C6  LIG X 999      44.659 131.024  19.540  1.00  0.00    -0.057 C 
ENDROOT
BRANCH   1   3
HETATM    3  C4  LIG X 999      44.292 130.917  22.156  1.00  0.00     0.300 C 
HETATM    4  N1  LIG X 999      44.457 129.683  22.870  1.00  0.00    -0.317 N 
HETATM    5  C3  LIG X 999      44.831 128.430  22.281  1.00  0.00     0.172 C 
HETATM    6  C17 LIG X 999      44.251 129.527  24.294  1.00  0.00     0.298 C 
HETATM    7  C2  LIG X 999      44.967 127.516  23.491  1.00  0.00     0.242 C 
HETATM    8  O4  LIG X 999      44.412 128.163  24.620  1.00  0.00    -0.354 OA
HETATM    9  O3  LIG X 999      43.962 131.965  22.772  1.00  0.00    -0.258 OA
BRANCH   7  10
HETATM   10  C1  LIG X 999      44.275 126.204  23.267  1.00  0.00     0.204 C 
HETATM   11  O1  LIG X 999      43.033 126.104  23.454  1.00  0.00    -0.646 OA
HETATM   12  O2  LIG X 999      45.008 125.080  22.904  1.00  0.00    -0.646 OA
ENDBRANCH   7  10
ENDBRANCH   1   3
BRANCH   2  13
HETATM   13  C7  LIG X 999      44.846 131.081  18.114  1.00  0.00     0.019 A 
HETATM   14  C8  LIG X 999      43.906 131.739  17.311  1.00  0.00     0.021 A 
HETATM   15  C9  LIG X 999      44.082 131.799  15.925  1.00  0.00     0.013 A 
HETATM   16  C10 LIG X 999      45.203 131.198  15.331  1.00  0.00    -0.026 A 
HETATM   17  C11 LIG X 999      45.390 131.250  13.941  1.00  0.00     0.012 A 
HETATM   18  C15 LIG X 999      46.154 130.532  16.141  1.00  0.00    -0.025 A 
HETATM   19  C12 LIG X 999      46.510 130.649  13.360  1.00  0.00     0.001 A 
HETATM   20  C13 LIG X 999      47.448 129.991  14.160  1.00  0.00     0.001 A 
HETATM   21  C14 LIG X 999      47.274 129.931  15.545  1.00  0.00     0.012 A 
HETATM   22  C16 LIG X 999      45.968 130.478  17.531  1.00  0.00     0.032 A 
ENDBRANCH   2  13
TORSDOF 3
