MODEL 1
REMARK VINA RESULT:      -8.1      0.000      0.000
REMARK  5 active torsions:
REMARK  status: ('A' for Active; 'I' for Inactive)
REMARK    1  A    between atoms: C6_6  and  C7_7 
REMARK    2  A    between atoms: C7_7  and  N1_8 
REMARK    3  A    between atoms: N4_11  and  C8_12 
REMARK    4  A    between atoms: C8_12  and  C9_13 
REMARK    5  A    between atoms: C9_13  and  N5_14 
ROOT
HETATM    1  N1  LIG X 999      45.621 130.657  19.571  1.00  0.00    -0.052 NA
HETATM    2  N2  LIG X 999      46.064 131.390  20.456  1.00  0.00    -0.160 NA
HETATM    3  N3  LIG X 999      46.507 132.120  21.341  1.00  0.00     0.068 N 
ENDROOT
BRANCH   1   4
HETATM    4  C7  LIG X 999      44.925 131.173  18.423  1.00  0.00     0.191 C 
HETATM    5  N4  LIG X 999      43.709 131.621  18.546  1.00  0.00    -0.267 NA
BRANCH   4   6
HETATM    6  C6  LIG X 999      45.562 131.211  17.084  1.00  0.00     0.015 A 
HETATM    7  C5  LIG X 999      46.307 130.117  16.612  1.00  0.00     0.027 A 
HETATM    8  C4  LIG X 999      46.898 130.154  15.340  1.00  0.00    -0.025 A 
HETATM    9  C3  LIG X 999      47.649 129.066  14.867  1.00  0.00     0.012 A 
HETATM   10  C12 LIG X 999      46.735 131.298  14.523  1.00  0.00    -0.026 A 
HETATM   11  C2  LIG X 999      48.233 129.114  13.598  1.00  0.00     0.001 A 
HETATM   12  C1  LIG X 999      48.073 130.246  12.794  1.00  0.00     0.001 A 
HETATM   13  C13 LIG X 999      47.326 131.334  13.251  1.00  0.00     0.012 A 
HETATM   14  C11 LIG X 999      45.978 132.382  14.991  1.00  0.00     0.013 A 
HETATM   15  C10 LIG X 999      45.393 132.335  16.259  1.00  0.00     0.016 A 
ENDBRANCH   4   6
BRANCH   5  16
HETATM   16  C8  LIG X 999      42.949 131.678  19.795  1.00  0.00     0.181 C 
BRANCH  16  17
HETATM   17  C9  LIG X 999      41.735 132.602  19.661  1.00  0.00     0.288 C 
BRANCH  17  18
HETATM   18  N5  LIG X 999      41.536 133.010  18.273  1.00  0.00     0.079 N 
HETATM   19  H9  LIG X 999      42.300 132.579  17.703  1.00  0.00     0.312 HD
HETATM   20  H10 LIG X 999      41.678 134.044  18.212  1.00  0.00     0.312 HD
ENDBRANCH  17  18
ENDBRANCH  16  17
ENDBRANCH   5  16
ENDBRANCH   1   4
TORSDOF 5
ENDMDL
MODEL 2
REMARK VINA RESULT:      -7.8      2.747      6.748
REMARK  5 active torsions:
REMARK  status: ('A' for Active; 'I' for Inactive)
REMARK    1  A    between atoms: C6_6  and  C7_7 
REMARK    2  A    between atoms: C7_7  and  N1_8 
REMARK    3  A    between atoms: N4_11  and  C8_12 
REMARK    4  A    between atoms: C8_12  and  C9_13 
REMARK    5  A    between atoms: C9_13  and  N5_14 
ROOT
HETATM    1  N1  LIG X 999      45.048 131.828  15.439  1.00  0.00    -0.052 NA
HETATM    2  N2  LIG X 999      44.111 131.692  14.651  1.00  0.00    -0.160 NA
HETATM    3  N3  LIG X 999      43.176 131.558  13.863  1.00  0.00     0.068 N 
ENDROOT
BRANCH   1   4
HETATM    4  C7  LIG X 999      45.412 130.807  16.384  1.00  0.00     0.191 C 
HETATM    5  N4  LIG X 999      46.008 129.725  15.975  1.00  0.00    -0.267 NA
BRANCH   4   6
HETATM    6  C6  LIG X 999      45.124 130.953  17.831  1.00  0.00     0.015 A 
HETATM    7  C5  LIG X 999      43.935 131.562  18.269  1.00  0.00     0.027 A 
HETATM    8  C4  LIG X 999      43.662 131.688  19.640  1.00  0.00    -0.025 A 
HETATM    9  C3  LIG X 999      42.480 132.302  20.082  1.00  0.00     0.012 A 
HETATM   10  C12 LIG X 999      44.588 131.189  20.588  1.00  0.00    -0.026 A 
HETATM   11  C2  LIG X 999      42.219 132.422  21.450  1.00  0.00     0.001 A 
HETATM   12  C1  LIG X 999      43.135 131.931  22.385  1.00  0.00     0.001 A 
HETATM   13  C13 LIG X 999      44.315 131.316  21.959  1.00  0.00     0.012 A 
HETATM   14  C11 LIG X 999      45.765 130.568  20.148  1.00  0.00     0.013 A 
HETATM   15  C10 LIG X 999      46.027 130.447  18.780  1.00  0.00     0.016 A 
ENDBRANCH   4   6
BRANCH   5  16
HETATM   16  C8  LIG X 999      46.385 129.436  14.591  1.00  0.00     0.181 C 
BRANCH  16  17
HETATM   17  C9  LIG X 999      47.644 130.210  14.189  1.00  0.00     0.288 C 
BRANCH  17  18
HETATM   18  N5  LIG X 999      47.308 131.371  13.371  1.00  0.00     0.079 N 
HETATM   19  H9  LIG X 999      46.266 131.453  13.348  1.00  0.00     0.312 HD
HETATM   20  H10 LIG X 999      47.604 131.176  12.387  1.00  0.00     0.312 HD
ENDBRANCH  17  18
ENDBRANCH  16  17
ENDBRANCH   5  16
ENDBRANCH   1   4
TORSDOF 5
ENDMDL
MODEL 3
REMARK VINA RESULT:      -7.6      1.806      2.694
REMARK  5 active torsions:
REMARK  status: ('A' for Active; 'I' for Inactive)
REMARK    1  A    between atoms: C6_6  and  C7_7 
REMARK    2  A    between atoms: C7_7  and  N1_8 
REMARK    3  A    between atoms: N4_11  and  C8_12 
REMARK    4  A    between atoms: C8_12  and  C9_13 
REMARK    5  A    between atoms: C9_13  and  N5_14 
ROOT
HETATM    1  N1  LIG X 999      42.701 131.416  19.581  1.00  0.00    -0.052 NA
HETATM    2  N2  LIG X 999      42.145 132.418  20.033  1.00  0.00    -0.160 NA
HETATM    3  N3  LIG X 999      41.589 133.418  20.484  1.00  0.00     0.068 N 
ENDROOT
BRANCH   1   4
HETATM    4  C7  LIG X 999      44.092 131.407  19.216  1.00  0.00     0.191 C 
HETATM    5  N4  LIG X 999      45.007 131.493  20.138  1.00  0.00    -0.267 NA
BRANCH   4   6
HETATM    6  C6  LIG X 999      44.520 131.302  17.801  1.00  0.00     0.015 A 
HETATM    7  C5  LIG X 999      45.710 130.636  17.458  1.00  0.00     0.027 A 
HETATM    8  C4  LIG X 999      46.106 130.530  16.116  1.00  0.00    -0.025 A 
HETATM    9  C3  LIG X 999      47.297 129.873  15.770  1.00  0.00     0.012 A 
HETATM   10  C12 LIG X 999      45.295 131.090  15.099  1.00  0.00    -0.026 A 
HETATM   11  C2  LIG X 999      47.680 129.774  14.429  1.00  0.00     0.001 A 
HETATM   12  C1  LIG X 999      46.880 130.328  13.427  1.00  0.00     0.001 A 
HETATM   13  C13 LIG X 999      45.691 130.984  13.757  1.00  0.00     0.012 A 
HETATM   14  C11 LIG X 999      44.101 131.739  15.443  1.00  0.00     0.013 A 
HETATM   15  C10 LIG X 999      43.716 131.839  16.782  1.00  0.00     0.016 A 
ENDBRANCH   4   6
BRANCH   5  16
HETATM   16  C8  LIG X 999      44.755 131.577  21.577  1.00  0.00     0.181 C 
BRANCH  16  17
HETATM   17  C9  LIG X 999      44.239 130.244  22.127  1.00  0.00     0.288 C 
BRANCH  17  18
HETATM   18  N5  LIG X 999      42.816 130.324  22.445  1.00  0.00     0.079 N 
HETATM   19  H9  LIG X 999      42.283 130.173  21.558  1.00  0.00     0.312 HD
HETATM   20  H10 LIG X 999      42.602 131.301  22.748  1.00  0.00     0.312 HD
ENDBRANCH  17  18
ENDBRANCH  16  17
ENDBRANCH   5  16
ENDBRANCH   1   4
TORSDOF 5
ENDMDL
MODEL 4
REMARK VINA RESULT:      -7.3      1.736      2.660
REMARK  5 active torsions:
REMARK  status: ('A' for Active; 'I' for Inactive)
REMARK    1  A    between atoms: C6_6  and  C7_7 
REMARK    2  A    between atoms: C7_7  and  N1_8 
REMARK    3  A    between atoms: N4_11  and  C8_12 
REMARK    4  A    between atoms: C8_12  and  C9_13 
REMARK    5  A    between atoms: C9_13  and  N5_14 
ROOT
HETATM    1  N1  LIG X 999      45.815 131.276  20.857  1.00  0.00    -0.052 NA
HETATM    2  N2  LIG X 999      46.436 132.286  21.190  1.00  0.00    -0.160 NA
HETATM    3  N3  LIG X 999      47.058 133.293  21.525  1.00  0.00     0.068 N 
ENDROOT
BRANCH   1   4
HETATM    4  C7  LIG X 999      44.619 131.337  20.062  1.00  0.00     0.191 C 
HETATM    5  N4  LIG X 999      43.456 131.424  20.641  1.00  0.00    -0.267 NA
BRANCH   4   6
HETATM    6  C6  LIG X 999      44.671 131.304  18.580  1.00  0.00     0.015 A 
HETATM    7  C5  LIG X 999      45.775 130.745  17.913  1.00  0.00     0.027 A 
HETATM    8  C4  LIG X 999      45.814 130.707  16.511  1.00  0.00    -0.025 A 
HETATM    9  C3  LIG X 999      46.918 130.156  15.840  1.00  0.00     0.012 A 
HETATM   10  C12 LIG X 999      44.730 131.227  15.764  1.00  0.00    -0.026 A 
HETATM   11  C2  LIG X 999      46.946 130.124  14.443  1.00  0.00     0.001 A 
HETATM   12  C1  LIG X 999      45.876 130.639  13.706  1.00  0.00     0.001 A 
HETATM   13  C13 LIG X 999      44.771 131.189  14.361  1.00  0.00     0.012 A 
HETATM   14  C11 LIG X 999      43.624 131.770  16.432  1.00  0.00     0.013 A 
HETATM   15  C10 LIG X 999      43.594 131.802  17.829  1.00  0.00     0.016 A 
ENDBRANCH   4   6
BRANCH   5  16
HETATM   16  C8  LIG X 999      43.231 131.492  22.085  1.00  0.00     0.181 C 
BRANCH  16  17
HETATM   17  C9  LIG X 999      43.209 130.093  22.707  1.00  0.00     0.288 C 
BRANCH  17  18
HETATM   18  N5  LIG X 999      44.524 129.729  23.227  1.00  0.00     0.079 N 
HETATM   19  H9  LIG X 999      44.489 128.720  23.501  1.00  0.00     0.312 HD
HETATM   20  H10 LIG X 999      44.687 130.263  24.111  1.00  0.00     0.312 HD
ENDBRANCH  17  18
ENDBRANCH  16  17
ENDBRANCH   5  16
ENDBRANCH   1   4
TORSDOF 5
ENDMDL
MODEL 5
REMARK VINA RESULT:      -7.1      2.194      2.852
REMARK  5 active torsions:
REMARK  status: ('A' for Active; 'I' for Inactive)
REMARK    1  A    between atoms: C6_6  and  C7_7 
REMARK    2  A    between atoms: C7_7  and  N1_8 
REMARK    3  A    between atoms: N4_11  and  C8_12 
REMARK    4  A    between atoms: C8_12  and  C9_13 
REMARK    5  A    between atoms: C9_13  and  N5_14 
ROOT
HETATM    1  N1  LIG X 999      45.804 130.011  20.972  1.00  0.00    -0.052 NA
HETATM    2  N2  LIG X 999      45.375 129.065  21.634  1.00  0.00    -0.160 NA
HETATM    3  N3  LIG X 999      44.949 128.118  22.293  1.00  0.00     0.068 N 
ENDROOT
BRANCH   1   4
HETATM    4  C7  LIG X 999      44.932 130.957  20.330  1.00  0.00     0.191 C 
HETATM    5  N4  LIG X 999      44.184 131.745  21.049  1.00  0.00    -0.267 NA
BRANCH   4   6
HETATM    6  C6  LIG X 999      44.857 131.064  18.853  1.00  0.00     0.015 A 
HETATM    7  C5  LIG X 999      45.876 130.533  18.043  1.00  0.00     0.027 A 
HETATM    8  C4  LIG X 999      45.795 130.627  16.645  1.00  0.00    -0.025 A 
HETATM    9  C3  LIG X 999      46.813 130.105  15.832  1.00  0.00     0.012 A 
HETATM   10  C12 LIG X 999      44.675 131.254  16.047  1.00  0.00    -0.026 A 
HETATM   11  C2  LIG X 999      46.722 130.205  14.441  1.00  0.00     0.001 A 
HETATM   12  C1  LIG X 999      45.617 130.825  13.852  1.00  0.00     0.001 A 
HETATM   13  C13 LIG X 999      44.596 131.347  14.649  1.00  0.00     0.012 A 
HETATM   14  C11 LIG X 999      43.654 131.768  16.858  1.00  0.00     0.013 A 
HETATM   15  C10 LIG X 999      43.743 131.669  18.249  1.00  0.00     0.016 A 
ENDBRANCH   4   6
BRANCH   5  16
HETATM   16  C8  LIG X 999      44.155 131.785  22.511  1.00  0.00     0.181 C 
BRANCH  16  17
HETATM   17  C9  LIG X 999      42.748 131.499  23.044  1.00  0.00     0.288 C 
BRANCH  17  18
HETATM   18  N5  LIG X 999      42.333 130.136  22.726  1.00  0.00     0.079 N 
HETATM   19  H9  LIG X 999      41.373 130.184  22.314  1.00  0.00     0.312 HD
HETATM   20  H10 LIG X 999      42.238 129.605  23.621  1.00  0.00     0.312 HD
ENDBRANCH  17  18
ENDBRANCH  16  17
ENDBRANCH   5  16
ENDBRANCH   1   4
TORSDOF 5
ENDMDL
MODEL 6
REMARK VINA RESULT:      -6.3      2.618      6.587
REMARK  5 active torsions:
REMARK  status: ('A' for Active; 'I' for Inactive)
REMARK    1  A    between atoms: C6_6  and  C7_7 
REMARK    2  A    between atoms: C7_7  and  N1_8 
REMARK    3  A    between atoms: N4_11  and  C8_12 
REMARK    4  A    between atoms: C8_12  and  C9_13 
REMARK    5  A    between atoms: C9_13  and  N5_14 
ROOT
HETATM    1  N1  LIG X 999      45.949 129.972  17.187  1.00  0.00    -0.052 NA
HETATM    2  N2  LIG X 999      45.557 129.191  16.319  1.00  0.00    -0.160 NA
HETATM    3  N3  LIG X 999      45.168 128.410  15.451  1.00  0.00     0.068 N 
ENDROOT
BRANCH   1   4
HETATM    4  C7  LIG X 999      45.294 131.226  17.444  1.00  0.00     0.191 C 
HETATM    5  N4  LIG X 999      45.396 132.201  16.588  1.00  0.00    -0.267 NA
BRANCH   4   6
HETATM    6  C6  LIG X 999      44.494 131.443  18.674  1.00  0.00     0.015 A 
HETATM    7  C5  LIG X 999      45.028 131.148  19.940  1.00  0.00     0.027 A 
HETATM    8  C4  LIG X 999      44.271 131.366  21.101  1.00  0.00    -0.025 A 
HETATM    9  C3  LIG X 999      44.798 131.066  22.367  1.00  0.00     0.012 A 
HETATM   10  C12 LIG X 999      42.962 131.896  20.996  1.00  0.00    -0.026 A 
HETATM   11  C2  LIG X 999      44.033 131.287  23.516  1.00  0.00     0.001 A 
HETATM   12  C1  LIG X 999      42.741 131.808  23.411  1.00  0.00     0.001 A 
HETATM   13  C13 LIG X 999      42.205 132.113  22.157  1.00  0.00     0.012 A 
HETATM   14  C11 LIG X 999      42.438 132.204  19.733  1.00  0.00     0.013 A 
HETATM   15  C10 LIG X 999      43.201 131.983  18.583  1.00  0.00     0.016 A 
ENDBRANCH   4   6
BRANCH   5  16
HETATM   16  C8  LIG X 999      46.123 132.144  15.320  1.00  0.00     0.181 C 
BRANCH  16  17
HETATM   17  C9  LIG X 999      45.248 131.558  14.208  1.00  0.00     0.288 C 
BRANCH  17  18
HETATM   18  N5  LIG X 999      43.837 131.582  14.582  1.00  0.00     0.079 N 
HETATM   19  H9  LIG X 999      43.776 131.373  15.605  1.00  0.00     0.312 HD
HETATM   20  H10 LIG X 999      43.355 130.792  14.096  1.00  0.00     0.312 HD
ENDBRANCH  17  18
ENDBRANCH  16  17
ENDBRANCH   5  16
ENDBRANCH   1   4
TORSDOF 5
ENDMDL
MODEL 7
REMARK VINA RESULT:      -6.0      2.103      3.867
REMARK  5 active torsions:
REMARK  status: ('A' for Active; 'I' for Inactive)
REMARK    1  A    between atoms: C6_6  and  C7_7 
REMARK    2  A    between atoms: C7_7  and  N1_8 
REMARK    3  A    between atoms: N4_11  and  C8_12 
REMARK    4  A    between atoms: C8_12  and  C9_13 
REMARK    5  A    between atoms: C9_13  and  N5_14 
ROOT
HETATM    1  N1  LIG X 999      42.539 131.477  20.649  1.00  0.00    -0.052 NA
HETATM    2  N2  LIG X 999      42.003 132.581  20.540  1.00  0.00    -0.160 NA
HETATM    3  N3  LIG X 999      41.466 133.682  20.431  1.00  0.00     0.068 N 
ENDROOT
BRANCH   1   4
HETATM    4  C7  LIG X 999      43.953 131.289  20.472  1.00  0.00     0.191 C 
HETATM    5  N4  LIG X 999      44.747 131.310  21.504  1.00  0.00    -0.267 NA
BRANCH   4   6
HETATM    6  C6  LIG X 999      44.543 131.069  19.129  1.00  0.00     0.015 A 
HETATM    7  C5  LIG X 999      43.878 131.507  17.971  1.00  0.00     0.027 A 
HETATM    8  C4  LIG X 999      44.446 131.306  16.704  1.00  0.00    -0.025 A 
HETATM    9  C3  LIG X 999      43.782 131.736  15.545  1.00  0.00     0.012 A 
HETATM   10  C12 LIG X 999      45.703 130.664  16.593  1.00  0.00    -0.026 A 
HETATM   11  C2  LIG X 999      44.357 131.529  14.288  1.00  0.00     0.001 A 
HETATM   12  C1  LIG X 999      45.597 130.894  14.179  1.00  0.00     0.001 A 
HETATM   13  C13 LIG X 999      46.270 130.463  15.325  1.00  0.00     0.012 A 
HETATM   14  C11 LIG X 999      46.372 130.242  17.751  1.00  0.00     0.013 A 
HETATM   15  C10 LIG X 999      45.797 130.448  19.008  1.00  0.00     0.016 A 
ENDBRANCH   4   6
BRANCH   5  16
HETATM   16  C8  LIG X 999      44.326 131.489  22.893  1.00  0.00     0.181 C 
BRANCH  16  17
HETATM   17  C9  LIG X 999      44.046 130.142  23.565  1.00  0.00     0.288 C 
BRANCH  17  18
HETATM   18  N5  LIG X 999      44.645 129.045  22.809  1.00  0.00     0.079 N 
HETATM   19  H9  LIG X 999      45.597 128.870  23.204  1.00  0.00     0.312 HD
HETATM   20  H10 LIG X 999      44.794 129.366  21.826  1.00  0.00     0.312 HD
ENDBRANCH  17  18
ENDBRANCH  16  17
ENDBRANCH   5  16
ENDBRANCH   1   4
TORSDOF 5
ENDMDL
MODEL 8
REMARK VINA RESULT:      -5.9      3.078      4.714
REMARK  5 active torsions:
REMARK  status: ('A' for Active; 'I' for Inactive)
REMARK    1  A    between atoms: C6_6  and  C7_7 
REMARK    2  A    between atoms: C7_7  and  N1_8 
REMARK    3  A    between atoms: N4_11  and  C8_12 
REMARK    4  A    between atoms: C8_12  and  C9_13 
REMARK    5  A    between atoms: C9_13  and  N5_14 
ROOT
HETATM    1  N1  LIG X 999      44.314 131.547  23.006  1.00  0.00    -0.052 NA
HETATM    2  N2  LIG X 999      43.227 131.784  23.536  1.00  0.00    -0.160 NA
HETATM    3  N3  LIG X 999      42.144 132.022  24.066  1.00  0.00     0.068 N 
ENDROOT
BRANCH   1   4
HETATM    4  C7  LIG X 999      44.468 130.547  21.984  1.00  0.00     0.191 C 
HETATM    5  N4  LIG X 999      44.706 129.311  22.314  1.00  0.00    -0.267 NA
BRANCH   4   6
HETATM    6  C6  LIG X 999      44.363 130.889  20.545  1.00  0.00     0.015 A 
HETATM    7  C5  LIG X 999      45.345 130.465  19.632  1.00  0.00     0.027 A 
HETATM    8  C4  LIG X 999      45.235 130.782  18.270  1.00  0.00    -0.025 A 
HETATM    9  C3  LIG X 999      46.216 130.365  17.356  1.00  0.00     0.012 A 
HETATM   10  C12 LIG X 999      44.122 131.527  17.810  1.00  0.00    -0.026 A 
HETATM   11  C2  LIG X 999      46.096 130.688  16.001  1.00  0.00     0.001 A 
HETATM   12  C1  LIG X 999      44.998 131.425  15.549  1.00  0.00     0.001 A 
HETATM   13  C13 LIG X 999      44.013 131.844  16.448  1.00  0.00     0.012 A 
HETATM   14  C11 LIG X 999      43.137 131.936  18.720  1.00  0.00     0.013 A 
HETATM   15  C10 LIG X 999      43.256 131.614  20.075  1.00  0.00     0.016 A 
ENDBRANCH   4   6
BRANCH   5  16
HETATM   16  C8  LIG X 999      44.813 128.804  23.682  1.00  0.00     0.181 C 
BRANCH  16  17
HETATM   17  C9  LIG X 999      44.572 127.292  23.731  1.00  0.00     0.288 C 
BRANCH  17  18
HETATM   18  N5  LIG X 999      45.019 126.648  22.499  1.00  0.00     0.079 N 
HETATM   19  H9  LIG X 999      45.289 127.402  21.826  1.00  0.00     0.312 HD
HETATM   20  H10 LIG X 999      44.202 126.157  22.070  1.00  0.00     0.312 HD
ENDBRANCH  17  18
ENDBRANCH  16  17
ENDBRANCH   5  16
ENDBRANCH   1   4
TORSDOF 5
ENDMDL
MODEL 9
REMARK VINA RESULT:      -5.6      2.979      6.591
REMARK  5 active torsions:
REMARK  status: ('A' for Active; 'I' for Inactive)
REMARK    1  A    between atoms: C6_6  and  C7_7 
REMARK    2  A    between atoms: C7_7  and  N1_8 
REMARK    3  A    between atoms: N4_11  and  C8_12 
REMARK    4  A    between atoms: C8_12  and  C9_13 
REMARK    5  A    between atoms: C9_13  and  N5_14 
ROOT
HETATM    1  N1  LIG X 999      46.058 131.583  16.419  1.00  0.00    -0.052 NA
HETATM    2  N2  LIG X 999      46.665 130.561  16.095  1.00  0.00    -0.160 NA
HETATM    3  N3  LIG X 999      47.271 129.541  15.770  1.00  0.00     0.068 N 
ENDROOT
BRANCH   1   4
HETATM    4  C7  LIG X 999      44.794 131.543  17.103  1.00  0.00     0.191 C 
HETATM    5  N4  LIG X 999      43.688 131.693  16.434  1.00  0.00    -0.267 NA
BRANCH   4   6
HETATM    6  C6  LIG X 999      44.714 131.333  18.568  1.00  0.00     0.015 A 
HETATM    7  C5  LIG X 999      43.632 131.842  19.309  1.00  0.00     0.027 A 
HETATM    8  C4  LIG X 999      43.555 131.631  20.693  1.00  0.00    -0.025 A 
HETATM    9  C3  LIG X 999      42.481 132.143  21.438  1.00  0.00     0.012 A 
HETATM   10  C12 LIG X 999      44.570 130.892  21.348  1.00  0.00    -0.026 A 
HETATM   11  C2  LIG X 999      42.415 131.927  22.817  1.00  0.00     0.001 A 
HETATM   12  C1  LIG X 999      43.418 131.199  23.463  1.00  0.00     0.001 A 
HETATM   13  C13 LIG X 999      44.492 130.682  22.734  1.00  0.00     0.012 A 
HETATM   14  C11 LIG X 999      45.639 130.372  20.605  1.00  0.00     0.013 A 
HETATM   15  C10 LIG X 999      45.706 130.588  19.226  1.00  0.00     0.016 A 
ENDBRANCH   4   6
BRANCH   5  16
HETATM   16  C8  LIG X 999      43.591 131.884  14.987  1.00  0.00     0.181 C 
BRANCH  16  17
HETATM   17  C9  LIG X 999      44.268 130.736  14.232  1.00  0.00     0.288 C 
BRANCH  17  18
HETATM   18  N5  LIG X 999      45.466 131.199  13.538  1.00  0.00     0.079 N 
HETATM   19  H9  LIG X 999      45.279 132.168  13.193  1.00  0.00     0.312 HD
HETATM   20  H10 LIG X 999      45.599 130.609  12.685  1.00  0.00     0.312 HD
ENDBRANCH  17  18
ENDBRANCH  16  17
ENDBRANCH   5  16
ENDBRANCH   1   4
TORSDOF 5
ENDMDL
