REMARK VINA RESULT:      -6.3      1.426      2.137
REMARK  7 active torsions:
REMARK  status: ('A' for Active; 'I' for Inactive)
REMARK    1  A    between atoms: C2_2  and  C4_4 
REMARK    2  A    between atoms: C4_4  and  C5_5 
REMARK       I    between atoms: C5_5  and  N1_7 
REMARK    3  A    between atoms: N1_7  and  C6_8 
REMARK    4  A    between atoms: C6_8  and  C7_9 
REMARK    5  A    between atoms: C7_9  and  C8_10 
REMARK    6  A    between atoms: C8_10  and  O2_11 
REMARK    7  A    between atoms: O2_11  and  C9_12 
ROOT
HETATM    1  O2  LIG X 999      45.173 130.447  18.481  1.00  0.00    -0.351 OA
ENDROOT
BRANCH   1   2
HETATM    2  C8  LIG X 999      45.070 131.377  19.561  1.00  0.00     0.177 C 
BRANCH   2   3
HETATM    3  C7  LIG X 999      45.805 130.888  20.820  1.00  0.00     0.048 C 
BRANCH   3   4
HETATM    4  C6  LIG X 999      45.436 129.450  21.213  1.00  0.00     0.154 C 
BRANCH   4   5
HETATM    5  N1  LIG X 999      44.663 129.419  22.452  1.00  0.00    -0.256 NA
HETATM    6  C5  LIG X 999      44.735 128.357  23.408  1.00  0.00     0.238 C 
HETATM    7  O1  LIG X 999      45.560 127.415  23.256  1.00  0.00    -0.272 OA
BRANCH   6   8
HETATM    8  C4  LIG X 999      43.833 128.369  24.604  1.00  0.00     0.108 C 
BRANCH   8   9
HETATM    9  C2  LIG X 999      42.901 129.598  24.611  1.00  0.00    -0.014 C 
HETATM   10  C1  LIG X 999      43.699 130.909  24.543  1.00  0.00     0.010 C 
HETATM   11  C3  LIG X 999      41.918 129.520  23.437  1.00  0.00     0.010 C 
ENDBRANCH   8   9
ENDBRANCH   6   8
ENDBRANCH   4   5
ENDBRANCH   3   4
ENDBRANCH   2   3
ENDBRANCH   1   2
BRANCH   1  12
HETATM   12  C9  LIG X 999      45.720 130.713  17.215  1.00  0.00     0.069 A 
HETATM   13  C10 LIG X 999      45.420 131.941  16.617  1.00  0.00     0.037 A 
HETATM   14  C11 LIG X 999      45.895 132.251  15.341  1.00  0.00     0.015 A 
HETATM   15  C12 LIG X 999      46.691 131.333  14.645  1.00  0.00    -0.026 A 
HETATM   16  C13 LIG X 999      47.164 131.628  13.356  1.00  0.00     0.012 A 
HETATM   17  C17 LIG X 999      47.021 130.095  15.247  1.00  0.00    -0.023 A 
HETATM   18  C14 LIG X 999      47.960 130.703  12.673  1.00  0.00     0.001 A 
HETATM   19  C15 LIG X 999      48.288 129.482  13.268  1.00  0.00     0.001 A 
HETATM   20  C16 LIG X 999      47.822 129.177  14.550  1.00  0.00     0.012 A 
HETATM   21  C18 LIG X 999      46.542 129.795  16.532  1.00  0.00     0.049 A 
ENDBRANCH   1  12
TORSDOF 7
