REMARK VINA RESULT:      -5.1      3.600      7.569
REMARK  2 active torsions:
REMARK  status: ('A' for Active; 'I' for Inactive)
REMARK    1  A    between atoms: C2_5  and  C3_6 
REMARK    2  A    between atoms: N3_17  and  C13_18 
ROOT
HETATM    1  H1  LIG X 999      41.371 132.971  21.009  1.00  0.00     0.190 HD
HETATM    2  N1  LIG X 999      41.657 132.868  20.011  1.00  0.00    -0.260 NA
HETATM    3  C1  LIG X 999      42.692 132.182  19.644  1.00  0.00     0.269 A 
HETATM    4  O1  LIG X 999      43.088 132.083  18.400  1.00  0.00    -0.255 OA
HETATM    5  C2  LIG X 999      44.190 131.362  18.447  1.00  0.00     0.203 A 
HETATM    6  N2  LIG X 999      44.481 130.994  19.716  1.00  0.00    -0.137 NA
HETATM    7  N3  LIG X 999      43.526 131.515  20.470  1.00  0.00    -0.189 N 
ENDROOT
BRANCH   5   8
HETATM    8  C3  LIG X 999      44.991 130.956  17.269  1.00  0.00     0.030 A 
HETATM    9  C4  LIG X 999      46.230 130.336  17.508  1.00  0.00     0.017 A 
HETATM   10  C5  LIG X 999      47.006 129.855  16.455  1.00  0.00     0.002 A 
HETATM   11  C6  LIG X 999      46.565 129.983  15.141  1.00  0.00     0.012 A 
HETATM   12  C7  LIG X 999      45.349 130.620  14.864  1.00  0.00    -0.025 A 
HETATM   13  C8  LIG X 999      44.928 130.767  13.532  1.00  0.00     0.012 A 
HETATM   14  C12 LIG X 999      44.551 131.131  15.926  1.00  0.00    -0.011 A 
HETATM   15  C9  LIG X 999      43.738 131.432  13.239  1.00  0.00     0.001 A 
HETATM   16  C10 LIG X 999      42.966 131.969  14.269  1.00  0.00     0.001 A 
HETATM   17  C11 LIG X 999      43.367 131.830  15.599  1.00  0.00     0.013 A 
ENDBRANCH   5   8
BRANCH   7  18
HETATM   18  C13 LIG X 999      43.442 131.331  21.892  1.00  0.00     0.107 A 
HETATM   19  C14 LIG X 999      42.556 132.100  22.662  1.00  0.00     0.054 A 
HETATM   20  C15 LIG X 999      42.469 131.879  24.038  1.00  0.00     0.122 A 
HETATM   21  N4  LIG X 999      43.231 130.917  24.624  1.00  0.00    -0.230 NA
HETATM   22  C16 LIG X 999      44.085 130.146  23.902  1.00  0.00     0.251 A 
HETATM   23  F1  LIG X 999      44.822 129.195  24.525  1.00  0.00    -0.181 F 
HETATM   24  C17 LIG X 999      44.201 130.332  22.521  1.00  0.00     0.203 A 
HETATM   25  F2  LIG X 999      45.060 129.562  21.805  1.00  0.00    -0.199 F 
ENDBRANCH   7  18
TORSDOF 2
