MODEL 1
REMARK VINA RESULT:      -7.7      0.000      0.000
REMARK  1 active torsions:
REMARK  status: ('A' for Active; 'I' for Inactive)
REMARK    1  A    between atoms: C8_8  and  N1_9 
ROOT
HETATM    1  N1  LIG X 999      46.628 129.926  16.521  1.00  0.00    -0.072 NA
HETATM    2  N2  LIG X 999      46.895 129.836  15.323  1.00  0.00    -0.162 NA
HETATM    3  N3  LIG X 999      47.169 129.747  14.127  1.00  0.00     0.068 N 
ENDROOT
BRANCH   1   4
HETATM    4  C8  LIG X 999      45.464 130.610  17.009  1.00  0.00     0.104 A 
HETATM    5  C7  LIG X 999      44.513 131.057  16.051  1.00  0.00     0.038 A 
HETATM    6  C6  LIG X 999      43.315 131.695  16.443  1.00  0.00     0.035 A 
HETATM    7  C5  LIG X 999      43.089 131.884  17.804  1.00  0.00     0.073 A 
HETATM    8  C4  LIG X 999      44.020 131.476  18.713  1.00  0.00     0.021 A 
HETATM    9  N4  LIG X 999      41.977 132.532  18.433  1.00  0.00    -0.209 NA
HETATM   10  C3  LIG X 999      43.642 131.808  19.974  1.00  0.00     0.047 A 
HETATM   11  C9  LIG X 999      45.223 130.860  18.392  1.00  0.00     0.009 A 
HETATM   12  C2  LIG X 999      44.473 131.548  21.061  1.00  0.00     0.018 A 
HETATM   13  C11 LIG X 999      42.352 132.471  19.818  1.00  0.00     0.278 A 
HETATM   14  C1  LIG X 999      45.718 130.934  20.799  1.00  0.00     0.002 A 
HETATM   15  C10 LIG X 999      46.100 130.599  19.473  1.00  0.00     0.015 A 
HETATM   16  O1  LIG X 999      41.652 132.941  20.754  1.00  0.00    -0.265 OA
ENDBRANCH   1   4
TORSDOF 1
ENDMDL
MODEL 2
REMARK VINA RESULT:      -7.2      1.926      2.977
REMARK  1 active torsions:
REMARK  status: ('A' for Active; 'I' for Inactive)
REMARK    1  A    between atoms: C8_8  and  N1_9 
ROOT
HETATM    1  N1  LIG X 999      44.150 131.398  15.565  1.00  0.00    -0.072 NA
HETATM    2  N2  LIG X 999      44.941 131.216  14.639  1.00  0.00    -0.162 NA
HETATM    3  N3  LIG X 999      45.725 131.030  13.710  1.00  0.00     0.068 N 
ENDROOT
BRANCH   1   4
HETATM    4  C8  LIG X 999      44.508 131.208  16.942  1.00  0.00     0.104 A 
HETATM    5  C7  LIG X 999      45.731 130.539  17.218  1.00  0.00     0.038 A 
HETATM    6  C6  LIG X 999      46.187 130.351  18.542  1.00  0.00     0.035 A 
HETATM    7  C5  LIG X 999      45.398 130.837  19.581  1.00  0.00     0.073 A 
HETATM    8  C4  LIG X 999      44.213 131.454  19.307  1.00  0.00     0.021 A 
HETATM    9  N4  LIG X 999      45.632 130.734  20.990  1.00  0.00    -0.209 NA
HETATM   10  C3  LIG X 999      43.569 131.795  20.452  1.00  0.00     0.047 A 
HETATM   11  C9  LIG X 999      43.702 131.654  18.030  1.00  0.00     0.009 A 
HETATM   12  C2  LIG X 999      42.305 132.379  20.414  1.00  0.00     0.018 A 
HETATM   13  C11 LIG X 999      44.452 131.353  21.526  1.00  0.00     0.278 A 
HETATM   14  C1  LIG X 999      41.724 132.596  19.146  1.00  0.00     0.002 A 
HETATM   15  C10 LIG X 999      42.409 132.229  17.957  1.00  0.00     0.015 A 
HETATM   16  O1  LIG X 999      44.225 131.478  22.759  1.00  0.00    -0.265 OA
ENDBRANCH   1   4
TORSDOF 1
ENDMDL
MODEL 3
REMARK VINA RESULT:      -6.9      1.760      3.144
REMARK  1 active torsions:
REMARK  status: ('A' for Active; 'I' for Inactive)
REMARK    1  A    between atoms: C8_8  and  N1_9 
ROOT
HETATM    1  N1  LIG X 999      45.336 131.097  16.822  1.00  0.00    -0.072 NA
HETATM    2  N2  LIG X 999      45.289 130.093  16.111  1.00  0.00    -0.162 NA
HETATM    3  N3  LIG X 999      45.238 129.094  15.396  1.00  0.00     0.068 N 
ENDROOT
BRANCH   1   4
HETATM    4  C8  LIG X 999      45.087 131.062  18.235  1.00  0.00     0.104 A 
HETATM    5  C7  LIG X 999      46.062 130.436  19.060  1.00  0.00     0.038 A 
HETATM    6  C6  LIG X 999      45.925 130.397  20.465  1.00  0.00     0.035 A 
HETATM    7  C5  LIG X 999      44.797 130.988  21.029  1.00  0.00     0.073 A 
HETATM    8  C4  LIG X 999      43.855 131.562  20.228  1.00  0.00     0.021 A 
HETATM    9  N4  LIG X 999      44.427 131.041  22.411  1.00  0.00    -0.209 NA
HETATM   10  C3  LIG X 999      42.810 132.020  20.963  1.00  0.00     0.047 A 
HETATM   11  C9  LIG X 999      43.923 131.617  18.841  1.00  0.00     0.009 A 
HETATM   12  C2  LIG X 999      41.697 132.587  20.346  1.00  0.00     0.018 A 
HETATM   13  C11 LIG X 999      43.154 131.705  22.345  1.00  0.00     0.278 A 
HETATM   14  C1  LIG X 999      41.698 132.660  18.936  1.00  0.00     0.002 A 
HETATM   15  C10 LIG X 999      42.797 132.170  18.182  1.00  0.00     0.015 A 
HETATM   16  O1  LIG X 999      42.445 131.962  23.353  1.00  0.00    -0.265 OA
ENDBRANCH   1   4
TORSDOF 1
ENDMDL
MODEL 4
REMARK VINA RESULT:      -6.5      2.706      5.795
REMARK  1 active torsions:
REMARK  status: ('A' for Active; 'I' for Inactive)
REMARK    1  A    between atoms: C8_8  and  N1_9 
ROOT
HETATM    1  N1  LIG X 999      42.249 132.286  18.276  1.00  0.00    -0.072 NA
HETATM    2  N2  LIG X 999      42.037 132.648  19.433  1.00  0.00    -0.162 NA
HETATM    3  N3  LIG X 999      41.822 133.015  20.587  1.00  0.00     0.068 N 
ENDROOT
BRANCH   1   4
HETATM    4  C8  LIG X 999      43.483 131.681  17.864  1.00  0.00     0.104 A 
HETATM    5  C7  LIG X 999      44.393 131.283  18.882  1.00  0.00     0.038 A 
HETATM    6  C6  LIG X 999      45.610 130.635  18.572  1.00  0.00     0.035 A 
HETATM    7  C5  LIG X 999      45.903 130.399  17.231  1.00  0.00     0.073 A 
HETATM    8  C4  LIG X 999      45.036 130.809  16.261  1.00  0.00     0.021 A 
HETATM    9  N4  LIG X 999      47.078 129.798  16.677  1.00  0.00    -0.209 NA
HETATM   10  C3  LIG X 999      45.532 130.544  15.026  1.00  0.00     0.047 A 
HETATM   11  C9  LIG X 999      43.835 131.465  16.499  1.00  0.00     0.009 A 
HETATM   12  C2  LIG X 999      44.845 130.937  13.881  1.00  0.00     0.018 A 
HETATM   13  C11 LIG X 999      46.820 129.901  15.268  1.00  0.00     0.278 A 
HETATM   14  C1  LIG X 999      43.622 131.622  14.055  1.00  0.00     0.002 A 
HETATM   15  C10 LIG X 999      43.120 131.896  15.354  1.00  0.00     0.015 A 
HETATM   16  O1  LIG X 999      47.614 129.494  14.378  1.00  0.00    -0.265 OA
ENDBRANCH   1   4
TORSDOF 1
ENDMDL
MODEL 5
REMARK VINA RESULT:      -6.5      2.884      5.246
REMARK  1 active torsions:
REMARK  status: ('A' for Active; 'I' for Inactive)
REMARK    1  A    between atoms: C8_8  and  N1_9 
ROOT
HETATM    1  N1  LIG X 999      44.248 131.492  22.732  1.00  0.00    -0.072 NA
HETATM    2  N2  LIG X 999      43.524 130.699  23.334  1.00  0.00    -0.162 NA
HETATM    3  N3  LIG X 999      42.807 129.906  23.942  1.00  0.00     0.068 N 
ENDROOT
BRANCH   1   4
HETATM    4  C8  LIG X 999      44.536 131.372  21.331  1.00  0.00     0.104 A 
HETATM    5  C7  LIG X 999      45.811 130.861  20.963  1.00  0.00     0.038 A 
HETATM    6  C6  LIG X 999      46.163 130.661  19.609  1.00  0.00     0.035 A 
HETATM    7  C5  LIG X 999      45.224 130.987  18.634  1.00  0.00     0.073 A 
HETATM    8  C4  LIG X 999      44.014 131.502  18.996  1.00  0.00     0.021 A 
HETATM    9  N4  LIG X 999      45.365 130.907  17.211  1.00  0.00    -0.209 NA
HETATM   10  C3  LIG X 999      43.273 131.811  17.902  1.00  0.00     0.047 A 
HETATM   11  C9  LIG X 999      43.615 131.737  20.306  1.00  0.00     0.009 A 
HETATM   12  C2  LIG X 999      42.025 132.413  18.032  1.00  0.00     0.018 A 
HETATM   13  C11 LIG X 999      44.107 131.438  16.765  1.00  0.00     0.278 A 
HETATM   14  C1  LIG X 999      41.567 132.692  19.338  1.00  0.00     0.002 A 
HETATM   15  C10 LIG X 999      42.357 132.367  20.472  1.00  0.00     0.015 A 
HETATM   16  O1  LIG X 999      43.792 131.564  15.552  1.00  0.00    -0.265 OA
ENDBRANCH   1   4
TORSDOF 1
ENDMDL
MODEL 6
REMARK VINA RESULT:      -6.5      1.809      2.426
REMARK  1 active torsions:
REMARK  status: ('A' for Active; 'I' for Inactive)
REMARK    1  A    between atoms: C8_8  and  N1_9 
ROOT
HETATM    1  N1  LIG X 999      43.925 131.373  16.297  1.00  0.00    -0.072 NA
HETATM    2  N2  LIG X 999      45.016 131.746  15.867  1.00  0.00    -0.162 NA
HETATM    3  N3  LIG X 999      46.108 132.112  15.434  1.00  0.00     0.068 N 
ENDROOT
BRANCH   1   4
HETATM    4  C8  LIG X 999      43.480 131.651  17.633  1.00  0.00     0.104 A 
HETATM    5  C7  LIG X 999      42.221 132.293  17.788  1.00  0.00     0.038 A 
HETATM    6  C6  LIG X 999      41.682 132.561  19.066  1.00  0.00     0.035 A 
HETATM    7  C5  LIG X 999      42.423 132.183  20.182  1.00  0.00     0.073 A 
HETATM    8  C4  LIG X 999      43.642 131.592  20.023  1.00  0.00     0.021 A 
HETATM    9  N4  LIG X 999      42.103 132.381  21.563  1.00  0.00    -0.209 NA
HETATM   10  C3  LIG X 999      44.229 131.361  21.225  1.00  0.00     0.047 A 
HETATM   11  C9  LIG X 999      44.234 131.317  18.796  1.00  0.00     0.009 A 
HETATM   12  C2  LIG X 999      45.510 130.823  21.304  1.00  0.00     0.018 A 
HETATM   13  C11 LIG X 999      43.270 131.848  22.211  1.00  0.00     0.278 A 
HETATM   14  C1  LIG X 999      46.173 130.535  20.090  1.00  0.00     0.002 A 
HETATM   15  C10 LIG X 999      45.548 130.788  18.841  1.00  0.00     0.015 A 
HETATM   16  O1  LIG X 999      43.427 131.824  23.461  1.00  0.00    -0.265 OA
ENDBRANCH   1   4
TORSDOF 1
ENDMDL
MODEL 7
REMARK VINA RESULT:      -5.5      2.960      5.011
REMARK  1 active torsions:
REMARK  status: ('A' for Active; 'I' for Inactive)
REMARK    1  A    between atoms: C8_8  and  N1_9 
ROOT
HETATM    1  N1  LIG X 999      44.467 131.390  22.660  1.00  0.00    -0.072 NA
HETATM    2  N2  LIG X 999      44.076 132.024  23.640  1.00  0.00    -0.162 NA
HETATM    3  N3  LIG X 999      43.685 132.650  24.623  1.00  0.00     0.068 N 
ENDROOT
BRANCH   1   4
HETATM    4  C8  LIG X 999      43.933 131.588  21.342  1.00  0.00     0.104 A 
HETATM    5  C7  LIG X 999      42.650 132.192  21.235  1.00  0.00     0.038 A 
HETATM    6  C6  LIG X 999      42.068 132.471  19.978  1.00  0.00     0.035 A 
HETATM    7  C5  LIG X 999      42.786 132.130  18.835  1.00  0.00     0.073 A 
HETATM    8  C4  LIG X 999      44.004 131.527  18.948  1.00  0.00     0.021 A 
HETATM    9  N4  LIG X 999      42.390 132.280  17.467  1.00  0.00    -0.209 NA
HETATM   10  C3  LIG X 999      44.507 131.220  17.725  1.00  0.00     0.047 A 
HETATM   11  C9  LIG X 999      44.622 131.211  20.152  1.00  0.00     0.009 A 
HETATM   12  C2  LIG X 999      45.714 130.537  17.600  1.00  0.00     0.018 A 
HETATM   13  C11 LIG X 999      43.504 131.692  16.777  1.00  0.00     0.278 A 
HETATM   14  C1  LIG X 999      46.385 130.175  18.788  1.00  0.00     0.002 A 
HETATM   15  C10 LIG X 999      45.842 130.498  20.060  1.00  0.00     0.015 A 
HETATM   16  O1  LIG X 999      43.580 131.599  15.523  1.00  0.00    -0.265 OA
ENDBRANCH   1   4
TORSDOF 1
ENDMDL
MODEL 8
REMARK VINA RESULT:      -4.8      8.368      9.977
REMARK  1 active torsions:
REMARK  status: ('A' for Active; 'I' for Inactive)
REMARK    1  A    between atoms: C8_8  and  N1_9 
ROOT
HETATM    1  N1  LIG X 999      39.224 126.606  24.422  1.00  0.00    -0.072 NA
HETATM    2  N2  LIG X 999      38.088 126.939  24.085  1.00  0.00    -0.162 NA
HETATM    3  N3  LIG X 999      36.950 127.272  23.756  1.00  0.00     0.068 N 
ENDROOT
BRANCH   1   4
HETATM    4  C8  LIG X 999      39.935 125.527  23.797  1.00  0.00     0.104 A 
HETATM    5  C7  LIG X 999      39.212 124.334  23.523  1.00  0.00     0.038 A 
HETATM    6  C6  LIG X 999      39.818 123.238  22.867  1.00  0.00     0.035 A 
HETATM    7  C5  LIG X 999      41.154 123.355  22.497  1.00  0.00     0.073 A 
HETATM    8  C4  LIG X 999      41.847 124.493  22.789  1.00  0.00     0.021 A 
HETATM    9  N4  LIG X 999      41.983 122.375  21.862  1.00  0.00    -0.209 NA
HETATM   10  C3  LIG X 999      43.144 124.383  22.405  1.00  0.00     0.047 A 
HETATM   11  C9  LIG X 999      41.315 125.596  23.446  1.00  0.00     0.009 A 
HETATM   12  C2  LIG X 999      44.055 125.402  22.664  1.00  0.00     0.018 A 
HETATM   13  C11 LIG X 999      43.249 123.053  21.813  1.00  0.00     0.278 A 
HETATM   14  C1  LIG X 999      43.580 126.546  23.343  1.00  0.00     0.002 A 
HETATM   15  C10 LIG X 999      42.221 126.644  23.743  1.00  0.00     0.015 A 
HETATM   16  O1  LIG X 999      44.296 122.548  21.328  1.00  0.00    -0.265 OA
ENDBRANCH   1   4
TORSDOF 1
ENDMDL
