REMARK VINA RESULT:      -5.8      3.042      7.784
REMARK  3 active torsions:
REMARK  status: ('A' for Active; 'I' for Inactive)
REMARK    1  A    between atoms: C1_2  and  C2_4 
REMARK       I    between atoms: N1_6  and  C4_7 
REMARK    2  A    between atoms: C4_7  and  C5_9 
REMARK    3  A    between atoms: C6_10  and  C7_11 
ROOT
HETATM    1  C5  LIG X 999      44.484 128.598  22.871  1.00  0.00     0.000 C 
HETATM    2  C6  LIG X 999      45.139 127.597  23.014  1.00  0.00    -0.057 C 
ENDROOT
BRANCH   1   3
HETATM    3  C4  LIG X 999      43.705 129.794  22.691  1.00  0.00     0.300 C 
HETATM    4  N1  LIG X 999      43.945 130.666  21.576  1.00  0.00    -0.317 N 
HETATM    5  C3  LIG X 999      44.944 130.460  20.566  1.00  0.00     0.172 C 
HETATM    6  C17 LIG X 999      43.201 131.875  21.305  1.00  0.00     0.298 C 
HETATM    7  C2  LIG X 999      44.833 131.720  19.719  1.00  0.00     0.242 C 
HETATM    8  O4  LIG X 999      43.654 132.414  20.082  1.00  0.00    -0.354 OA
HETATM    9  O3  LIG X 999      42.804 130.070  23.526  1.00  0.00    -0.258 OA
BRANCH   7  10
HETATM   10  C1  LIG X 999      44.803 131.397  18.255  1.00  0.00     0.204 C 
HETATM   11  O1  LIG X 999      45.741 130.741  17.733  1.00  0.00    -0.646 OA
HETATM   12  O2  LIG X 999      43.714 131.777  17.479  1.00  0.00    -0.646 OA
ENDBRANCH   7  10
ENDBRANCH   1   3
BRANCH   2  13
HETATM   13  C7  LIG X 999      45.923 126.401  23.179  1.00  0.00     0.019 A 
HETATM   14  C8  LIG X 999      45.943 125.744  24.415  1.00  0.00     0.021 A 
HETATM   15  C9  LIG X 999      46.702 124.582  24.582  1.00  0.00     0.013 A 
HETATM   16  C10 LIG X 999      47.448 124.066  23.512  1.00  0.00    -0.026 A 
HETATM   17  C11 LIG X 999      48.214 122.901  23.669  1.00  0.00     0.012 A 
HETATM   18  C15 LIG X 999      47.430 124.729  22.260  1.00  0.00    -0.025 A 
HETATM   19  C12 LIG X 999      48.954 122.398  22.595  1.00  0.00     0.001 A 
HETATM   20  C13 LIG X 999      48.935 123.051  21.360  1.00  0.00     0.001 A 
HETATM   21  C14 LIG X 999      48.176 124.213  21.190  1.00  0.00     0.012 A 
HETATM   22  C16 LIG X 999      46.664 125.895  22.103  1.00  0.00     0.032 A 
ENDBRANCH   2  13
TORSDOF 3
