REMARK VINA RESULT:      -6.9      1.954      2.430
REMARK  1 active torsions:
REMARK  status: ('A' for Active; 'I' for Inactive)
REMARK    1  A    between atoms: C8_8  and  N1_9 
ROOT
HETATM    1  N1  LIG X 999      44.521 131.331  16.489  1.00  0.00    -0.072 NA
HETATM    2  N2  LIG X 999      44.040 131.485  15.366  1.00  0.00    -0.162 NA
HETATM    3  N3  LIG X 999      43.560 131.638  14.244  1.00  0.00     0.068 N 
ENDROOT
BRANCH   1   4
HETATM    4  C8  LIG X 999      43.786 131.631  17.686  1.00  0.00     0.104 A 
HETATM    5  C7  LIG X 999      42.487 132.223  17.634  1.00  0.00     0.038 A 
HETATM    6  C6  LIG X 999      41.767 132.515  18.816  1.00  0.00     0.033 A 
HETATM    7  C5  LIG X 999      42.365 132.208  20.037  1.00  0.00     0.047 A 
HETATM    8  C4  LIG X 999      43.606 131.642  20.070  1.00  0.00     0.019 A 
HETATM    9  N4  LIG X 999      41.861 132.398  21.360  1.00  0.00    -0.322 N 
HETATM   10  C3  LIG X 999      44.017 131.418  21.349  1.00  0.00     0.045 A 
HETATM   11  C9  LIG X 999      44.356 131.335  18.947  1.00  0.00     0.009 A 
HETATM   12  C2  LIG X 999      45.261 130.844  21.604  1.00  0.00     0.018 A 
HETATM   13  C11 LIG X 999      42.919 131.893  22.189  1.00  0.00     0.257 A 
HETATM   14  C1  LIG X 999      46.071 130.510  20.493  1.00  0.00     0.002 A 
HETATM   15  C10 LIG X 999      45.623 130.752  19.167  1.00  0.00     0.015 A 
HETATM   16  O1  LIG X 999      42.885 131.872  23.447  1.00  0.00    -0.267 OA
HETATM   17  H6  LIG X 999      40.946 132.805  21.653  1.00  0.00     0.169 HD
ENDBRANCH   1   4
TORSDOF 1
