REMARK VINA RESULT:      -5.1      1.993      4.472
REMARK  4 active torsions:
REMARK  status: ('A' for Active; 'I' for Inactive)
REMARK    1  A    between atoms: C3_3  and  O1_4 
REMARK    2  A    between atoms: O1_4  and  C4_5 
REMARK    3  A    between atoms: C9_12  and  N2_13 
REMARK    4  A    between atoms: C11_17  and  C12_18 
ROOT
HETATM    1  C1  LIG X 999      43.420 131.282  21.821  1.00  0.00     0.014 C 
HETATM    2  C2  LIG X 999      43.117 130.465  22.655  1.00  0.00    -0.091 C 
HETATM    3  C3  LIG X 999      42.747 129.469  23.666  1.00  0.00     0.268 C 
ENDROOT
BRANCH   3   4
HETATM    4  O1  LIG X 999      43.602 128.331  23.580  1.00  0.00    -0.339 OA
BRANCH   4   5
HETATM    5  C4  LIG X 999      43.192 127.009  23.325  1.00  0.00     0.085 A 
HETATM    6  C5  LIG X 999      41.820 126.626  23.457  1.00  0.00     0.052 A 
HETATM    7  C6  LIG X 999      41.426 125.302  23.201  1.00  0.00     0.008 A 
HETATM    8  C7  LIG X 999      42.408 124.417  22.829  1.00  0.00     0.018 A 
HETATM    9  C15 LIG X 999      40.045 124.756  23.290  1.00  0.00     0.059 A 
HETATM   10  C8  LIG X 999      42.210 123.108  22.542  1.00  0.00     0.046 A 
HETATM   11  C10 LIG X 999      43.723 124.726  22.690  1.00  0.00     0.042 A 
HETATM   12  N1  LIG X 999      43.382 122.532  22.209  1.00  0.00    -0.337 N 
HETATM   13  C13 LIG X 999      40.865 122.510  22.611  1.00  0.00     0.033 A 
HETATM   14  H5  LIG X 999      43.534 121.535  21.938  1.00  0.00     0.167 HD
HETATM   15  C9  LIG X 999      44.316 123.520  22.298  1.00  0.00     0.176 A 
HETATM   16  C14 LIG X 999      39.830 123.303  22.970  1.00  0.00     0.034 A 
HETATM   17  C11 LIG X 999      44.175 126.039  22.933  1.00  0.00     0.050 A 
HETATM   18  N5  LIG X 999      39.054 125.515  23.632  1.00  0.00    -0.300 NA
HETATM   19  H9  LIG X 999      38.078 125.150  23.699  1.00  0.00     0.187 HD
BRANCH  15  20
HETATM   20  N2  LIG X 999      45.703 123.326  22.017  1.00  0.00    -0.053 NA
HETATM   21  N3  LIG X 999      46.467 122.851  22.858  1.00  0.00    -0.160 NA
HETATM   22  N4  LIG X 999      47.230 122.375  23.697  1.00  0.00     0.068 N 
ENDBRANCH  15  20
BRANCH  17  23
HETATM   23  C12 LIG X 999      45.608 126.393  22.788  1.00  0.00     0.273 C 
HETATM   24  O2  LIG X 999      46.418 126.268  23.742  1.00  0.00    -0.301 OA
ENDBRANCH  17  23
ENDBRANCH   4   5
ENDBRANCH   3   4
TORSDOF 4
