REMARK VINA RESULT:      -6.6      2.484      5.600
REMARK  2 active torsions:
REMARK  status: ('A' for Active; 'I' for Inactive)
REMARK    1  A    between atoms: N1_1  and  C1_2 
REMARK    2  A    between atoms: C2_5  and  C3_6 
ROOT
HETATM    1  C3  LIG X 999      44.831 131.106  16.916  1.00  0.00     0.030 A 
HETATM    2  C4  LIG X 999      43.582 131.679  16.624  1.00  0.00     0.017 A 
HETATM    3  C5  LIG X 999      43.201 131.942  15.310  1.00  0.00     0.002 A 
HETATM    4  C6  LIG X 999      44.058 131.636  14.257  1.00  0.00     0.012 A 
HETATM    5  C7  LIG X 999      45.301 131.039  14.507  1.00  0.00    -0.025 A 
HETATM    6  C8  LIG X 999      46.144 130.712  13.434  1.00  0.00     0.012 A 
HETATM    7  C9  LIG X 999      47.367 130.083  13.665  1.00  0.00     0.001 A 
HETATM    8  C10 LIG X 999      47.752 129.762  14.966  1.00  0.00     0.001 A 
HETATM    9  C11 LIG X 999      46.926 130.083  16.047  1.00  0.00     0.013 A 
HETATM   10  C12 LIG X 999      45.697 130.750  15.843  1.00  0.00    -0.011 A 
ENDROOT
BRANCH   1  11
HETATM   11  C2  LIG X 999      45.194 130.939  18.344  1.00  0.00     0.203 A 
HETATM   12  N3  LIG X 999      46.061 130.005  18.795  1.00  0.00    -0.145 NA
HETATM   13  N2  LIG X 999      46.093 130.151  20.109  1.00  0.00    -0.240 N 
HETATM   14  C1  LIG X 999      45.251 131.149  20.414  1.00  0.00     0.240 A 
HETATM   15  H3  LIG X 999      46.670 129.581  20.765  1.00  0.00     0.193 HD
HETATM   16  O1  LIG X 999      44.689 131.640  19.338  1.00  0.00    -0.257 OA
BRANCH  14  17
HETATM   17  N1  LIG X 999      44.999 131.614  21.737  1.00  0.00    -0.364 N 
HETATM   18  H1  LIG X 999      44.137 132.163  21.944  1.00  0.00     0.159 HD
HETATM   19  H2  LIG X 999      45.675 131.410  22.506  1.00  0.00     0.159 HD
ENDBRANCH  14  17
ENDBRANCH   1  11
TORSDOF 2
