MODEL 1
REMARK VINA RESULT:      -7.9      0.000      0.000
REMARK  1 active torsions:
REMARK  status: ('A' for Active; 'I' for Inactive)
REMARK    1  A    between atoms: C3_3  and  N1_4 
ROOT
HETATM    1  N1  LIG X 999      47.340 129.664  15.238  1.00  0.00    -0.072 NA
HETATM    2  N2  LIG X 999      47.954 129.568  14.173  1.00  0.00    -0.162 NA
HETATM    3  N3  LIG X 999      48.565 129.468  13.110  1.00  0.00     0.068 N 
ENDROOT
BRANCH   1   4
HETATM    4  C3  LIG X 999      46.073 130.329  15.332  1.00  0.00     0.104 A 
HETATM    5  C2  LIG X 999      45.410 130.626  14.134  1.00  0.00     0.035 A 
HETATM    6  C1  LIG X 999      44.210 131.336  14.135  1.00  0.00     0.003 A 
HETATM    7  C10 LIG X 999      43.641 131.754  15.336  1.00  0.00     0.012 A 
HETATM    8  C9  LIG X 999      44.252 131.437  16.556  1.00  0.00    -0.023 A 
HETATM    9  C4  LIG X 999      45.476 130.696  16.570  1.00  0.00     0.006 A 
HETATM   10  C8  LIG X 999      43.647 131.827  17.766  1.00  0.00     0.021 A 
HETATM   11  C5  LIG X 999      46.023 130.311  17.818  1.00  0.00     0.024 A 
HETATM   12  C6  LIG X 999      45.393 130.725  18.991  1.00  0.00    -0.023 A 
HETATM   13  C7  LIG X 999      44.252 131.464  18.966  1.00  0.00    -0.024 A 
HETATM   14  C14 LIG X 999      45.779 130.416  20.385  1.00  0.00     0.276 C 
HETATM   15  C11 LIG X 999      43.770 131.723  20.341  1.00  0.00     0.276 C 
HETATM   16  N4  LIG X 999      44.840 131.200  21.248  1.00  0.00    -0.067 N 
HETATM   17  C12 LIG X 999      44.259 130.343  22.304  1.00  0.00     0.272 C 
HETATM   18  C13 LIG X 999      45.560 132.330  21.884  1.00  0.00     0.272 C 
ENDBRANCH   1   4
TORSDOF 1
ENDMDL
MODEL 2
REMARK VINA RESULT:      -7.7      1.585      6.060
REMARK  1 active torsions:
REMARK  status: ('A' for Active; 'I' for Inactive)
REMARK    1  A    between atoms: C3_3  and  N1_4 
ROOT
HETATM    1  N1  LIG X 999      44.804 130.810  22.002  1.00  0.00    -0.072 NA
HETATM    2  N2  LIG X 999      44.591 129.708  22.508  1.00  0.00    -0.162 NA
HETATM    3  N3  LIG X 999      44.378 128.608  23.018  1.00  0.00     0.068 N 
ENDROOT
BRANCH   1   4
HETATM    4  C3  LIG X 999      43.866 131.441  21.119  1.00  0.00     0.104 A 
HETATM    5  C2  LIG X 999      42.764 132.083  21.700  1.00  0.00     0.035 A 
HETATM    6  C1  LIG X 999      41.768 132.655  20.910  1.00  0.00     0.003 A 
HETATM    7  C10 LIG X 999      41.858 132.608  19.521  1.00  0.00     0.012 A 
HETATM    8  C9  LIG X 999      42.966 132.013  18.904  1.00  0.00    -0.023 A 
HETATM    9  C4  LIG X 999      44.003 131.435  19.703  1.00  0.00     0.006 A 
HETATM   10  C8  LIG X 999      43.068 132.008  17.500  1.00  0.00     0.021 A 
HETATM   11  C5  LIG X 999      45.153 130.923  19.056  1.00  0.00     0.024 A 
HETATM   12  C6  LIG X 999      45.209 130.933  17.663  1.00  0.00    -0.023 A 
HETATM   13  C7  LIG X 999      44.199 131.448  16.912  1.00  0.00    -0.024 A 
HETATM   14  C14 LIG X 999      46.316 130.475  16.796  1.00  0.00     0.276 C 
HETATM   15  C11 LIG X 999      44.534 131.379  15.472  1.00  0.00     0.276 C 
HETATM   16  N4  LIG X 999      45.810 130.600  15.393  1.00  0.00    -0.067 N 
HETATM   17  C12 LIG X 999      46.797 131.297  14.539  1.00  0.00     0.272 C 
HETATM   18  C13 LIG X 999      45.547 129.255  14.827  1.00  0.00     0.272 C 
ENDBRANCH   1   4
TORSDOF 1
ENDMDL
MODEL 3
REMARK VINA RESULT:      -6.2      2.126      6.701
REMARK  1 active torsions:
REMARK  status: ('A' for Active; 'I' for Inactive)
REMARK    1  A    between atoms: C3_3  and  N1_4 
ROOT
HETATM    1  N1  LIG X 999      41.729 132.967  20.165  1.00  0.00    -0.072 NA
HETATM    2  N2  LIG X 999      40.944 133.383  21.018  1.00  0.00    -0.162 NA
HETATM    3  N3  LIG X 999      40.156 133.796  21.868  1.00  0.00     0.068 N 
ENDROOT
BRANCH   1   4
HETATM    4  C3  LIG X 999      42.857 132.146  20.499  1.00  0.00     0.104 A 
HETATM    5  C2  LIG X 999      43.047 131.833  21.852  1.00  0.00     0.035 A 
HETATM    6  C1  LIG X 999      44.159 131.102  22.269  1.00  0.00     0.003 A 
HETATM    7  C10 LIG X 999      45.099 130.660  21.341  1.00  0.00     0.012 A 
HETATM    8  C9  LIG X 999      44.920 130.916  19.976  1.00  0.00    -0.023 A 
HETATM    9  C4  LIG X 999      43.775 131.652  19.532  1.00  0.00     0.006 A 
HETATM   10  C8  LIG X 999      45.854 130.428  19.042  1.00  0.00     0.021 A 
HETATM   11  C5  LIG X 999      43.572 131.817  18.141  1.00  0.00     0.024 A 
HETATM   12  C6  LIG X 999      44.526 131.322  17.252  1.00  0.00    -0.023 A 
HETATM   13  C7  LIG X 999      45.631 130.660  17.687  1.00  0.00    -0.024 A 
HETATM   14  C14 LIG X 999      44.496 131.365  15.775  1.00  0.00     0.276 C 
HETATM   15  C11 LIG X 999      46.447 130.202  16.542  1.00  0.00     0.276 C 
HETATM   16  N4  LIG X 999      45.810 130.803  15.328  1.00  0.00    -0.067 N 
HETATM   17  C12 LIG X 999      45.613 129.779  14.278  1.00  0.00     0.272 C 
HETATM   18  C13 LIG X 999      46.668 131.886  14.790  1.00  0.00     0.272 C 
ENDBRANCH   1   4
TORSDOF 1
ENDMDL
MODEL 4
REMARK VINA RESULT:      -5.6      1.698      2.697
REMARK  1 active torsions:
REMARK  status: ('A' for Active; 'I' for Inactive)
REMARK    1  A    between atoms: C3_3  and  N1_4 
ROOT
HETATM    1  N1  LIG X 999      46.132 130.615  17.364  1.00  0.00    -0.072 NA
HETATM    2  N2  LIG X 999      46.503 130.244  16.249  1.00  0.00    -0.162 NA
HETATM    3  N3  LIG X 999      46.875 129.869  15.138  1.00  0.00     0.068 N 
ENDROOT
BRANCH   1   4
HETATM    4  C3  LIG X 999      44.809 131.115  17.601  1.00  0.00     0.104 A 
HETATM    5  C2  LIG X 999      44.037 131.453  16.481  1.00  0.00     0.035 A 
HETATM    6  C1  LIG X 999      42.769 132.016  16.627  1.00  0.00     0.003 A 
HETATM    7  C10 LIG X 999      42.241 132.241  17.896  1.00  0.00     0.012 A 
HETATM    8  C9  LIG X 999      42.965 131.876  19.038  1.00  0.00    -0.023 A 
HETATM    9  C4  LIG X 999      44.261 131.284  18.903  1.00  0.00     0.006 A 
HETATM   10  C8  LIG X 999      42.405 132.069  20.315  1.00  0.00     0.021 A 
HETATM   11  C5  LIG X 999      44.930 130.841  20.069  1.00  0.00     0.024 A 
HETATM   12  C6  LIG X 999      44.340 131.058  21.314  1.00  0.00    -0.023 A 
HETATM   13  C7  LIG X 999      43.126 131.659  21.433  1.00  0.00    -0.024 A 
HETATM   14  C14 LIG X 999      44.852 130.657  22.642  1.00  0.00     0.276 C 
HETATM   15  C11 LIG X 999      42.714 131.720  22.852  1.00  0.00     0.276 C 
HETATM   16  N4  LIG X 999      43.894 131.237  23.636  1.00  0.00    -0.067 N 
HETATM   17  C12 LIG X 999      43.484 130.216  24.625  1.00  0.00     0.272 C 
HETATM   18  C13 LIG X 999      44.528 132.372  24.349  1.00  0.00     0.272 C 
ENDBRANCH   1   4
TORSDOF 1
ENDMDL
MODEL 5
REMARK VINA RESULT:      -5.3      5.286      7.244
REMARK  1 active torsions:
REMARK  status: ('A' for Active; 'I' for Inactive)
REMARK    1  A    between atoms: C3_3  and  N1_4 
ROOT
HETATM    1  N1  LIG X 999      45.108 131.254  21.214  1.00  0.00    -0.072 NA
HETATM    2  N2  LIG X 999      44.752 131.504  20.061  1.00  0.00    -0.162 NA
HETATM    3  N3  LIG X 999      44.400 131.751  18.908  1.00  0.00     0.068 N 
ENDROOT
BRANCH   1   4
HETATM    4  C3  LIG X 999      44.186 130.809  22.218  1.00  0.00     0.104 A 
HETATM    5  C2  LIG X 999      43.257 131.741  22.698  1.00  0.00     0.035 A 
HETATM    6  C1  LIG X 999      42.375 131.411  23.727  1.00  0.00     0.003 A 
HETATM    7  C10 LIG X 999      42.396 130.136  24.290  1.00  0.00     0.012 A 
HETATM    8  C9  LIG X 999      43.282 129.165  23.806  1.00  0.00    -0.023 A 
HETATM    9  C4  LIG X 999      44.181 129.486  22.740  1.00  0.00     0.006 A 
HETATM   10  C8  LIG X 999      43.266 127.867  24.352  1.00  0.00     0.021 A 
HETATM   11  C5  LIG X 999      45.000 128.460  22.210  1.00  0.00     0.024 A 
HETATM   12  C6  LIG X 999      44.956 127.191  22.786  1.00  0.00    -0.023 A 
HETATM   13  C7  LIG X 999      44.126 126.907  23.826  1.00  0.00    -0.024 A 
HETATM   14  C14 LIG X 999      45.702 125.982  22.375  1.00  0.00     0.276 C 
HETATM   15  C11 LIG X 999      44.242 125.484  24.211  1.00  0.00     0.276 C 
HETATM   16  N4  LIG X 999      45.374 124.938  23.397  1.00  0.00    -0.067 N 
HETATM   17  C12 LIG X 999      44.986 123.669  22.744  1.00  0.00     0.272 C 
HETATM   18  C13 LIG X 999      46.550 124.693  24.267  1.00  0.00     0.272 C 
ENDBRANCH   1   4
TORSDOF 1
ENDMDL
MODEL 6
REMARK VINA RESULT:      -5.0      4.305      6.404
REMARK  1 active torsions:
REMARK  status: ('A' for Active; 'I' for Inactive)
REMARK    1  A    between atoms: C3_3  and  N1_4 
ROOT
HETATM    1  N1  LIG X 999      45.405 130.839  19.817  1.00  0.00    -0.072 NA
HETATM    2  N2  LIG X 999      44.949 131.164  18.720  1.00  0.00    -0.162 NA
HETATM    3  N3  LIG X 999      44.495 131.484  17.622  1.00  0.00     0.068 N 
ENDROOT
BRANCH   1   4
HETATM    4  C3  LIG X 999      44.584 130.752  20.990  1.00  0.00     0.104 A 
HETATM    5  C2  LIG X 999      43.699 131.810  21.238  1.00  0.00     0.035 A 
HETATM    6  C1  LIG X 999      42.920 131.838  22.395  1.00  0.00     0.003 A 
HETATM    7  C10 LIG X 999      43.000 130.801  23.322  1.00  0.00     0.012 A 
HETATM    8  C9  LIG X 999      43.841 129.705  23.087  1.00  0.00    -0.023 A 
HETATM    9  C4  LIG X 999      44.634 129.657  21.897  1.00  0.00     0.006 A 
HETATM   10  C8  LIG X 999      43.882 128.643  24.010  1.00  0.00     0.021 A 
HETATM   11  C5  LIG X 999      45.404 128.497  21.641  1.00  0.00     0.024 A 
HETATM   12  C6  LIG X 999      45.420 127.471  22.586  1.00  0.00    -0.023 A 
HETATM   13  C7  LIG X 999      44.693 127.546  23.733  1.00  0.00    -0.024 A 
HETATM   14  C14 LIG X 999      46.130 126.176  22.506  1.00  0.00     0.276 C 
HETATM   15  C11 LIG X 999      44.852 126.310  24.530  1.00  0.00     0.276 C 
HETATM   16  N4  LIG X 999      45.905 125.510  23.828  1.00  0.00    -0.067 N 
HETATM   17  C12 LIG X 999      45.462 124.111  23.641  1.00  0.00     0.272 C 
HETATM   18  C13 LIG X 999      47.158 125.518  24.620  1.00  0.00     0.272 C 
ENDBRANCH   1   4
TORSDOF 1
ENDMDL
MODEL 7
REMARK VINA RESULT:      -5.0      6.687      8.425
REMARK  1 active torsions:
REMARK  status: ('A' for Active; 'I' for Inactive)
REMARK    1  A    between atoms: C3_3  and  N1_4 
ROOT
HETATM    1  N1  LIG X 999      44.258 129.992  23.188  1.00  0.00    -0.072 NA
HETATM    2  N2  LIG X 999      44.154 130.719  22.199  1.00  0.00    -0.162 NA
HETATM    3  N3  LIG X 999      44.055 131.444  21.209  1.00  0.00     0.068 N 
ENDROOT
BRANCH   1   4
HETATM    4  C3  LIG X 999      43.493 128.787  23.335  1.00  0.00     0.104 A 
HETATM    5  C2  LIG X 999      42.140 128.920  23.673  1.00  0.00     0.035 A 
HETATM    6  C1  LIG X 999      41.345 127.798  23.907  1.00  0.00     0.003 A 
HETATM    7  C10 LIG X 999      41.885 126.519  23.796  1.00  0.00     0.012 A 
HETATM    8  C9  LIG X 999      43.222 126.346  23.417  1.00  0.00    -0.023 A 
HETATM    9  C4  LIG X 999      44.045 127.488  23.159  1.00  0.00     0.006 A 
HETATM   10  C8  LIG X 999      43.746 125.047  23.266  1.00  0.00     0.021 A 
HETATM   11  C5  LIG X 999      45.364 127.283  22.689  1.00  0.00     0.024 A 
HETATM   12  C6  LIG X 999      45.843 125.979  22.560  1.00  0.00    -0.023 A 
HETATM   13  C7  LIG X 999      45.066 124.901  22.847  1.00  0.00    -0.024 A 
HETATM   14  C14 LIG X 999      47.169 125.545  22.069  1.00  0.00     0.276 C 
HETATM   15  C11 LIG X 999      45.799 123.645  22.579  1.00  0.00     0.276 C 
HETATM   16  N4  LIG X 999      47.199 124.059  22.248  1.00  0.00    -0.067 N 
HETATM   17  C12 LIG X 999      47.664 123.392  21.012  1.00  0.00     0.272 C 
HETATM   18  C13 LIG X 999      48.110 123.700  23.361  1.00  0.00     0.272 C 
ENDBRANCH   1   4
TORSDOF 1
ENDMDL
