MODEL 1
REMARK VINA RESULT:      -8.2      0.000      0.000
REMARK  2 active torsions:
REMARK  status: ('A' for Active; 'I' for Inactive)
REMARK    1  A    between atoms: N1_1  and  C1_2 
REMARK    2  A    between atoms: C2_5  and  C3_6 
ROOT
HETATM    1  C3  LIG X 999      44.330 131.412  17.358  1.00  0.00     0.030 A 
HETATM    2  C4  LIG X 999      43.060 131.839  16.930  1.00  0.00     0.017 A 
HETATM    3  C5  LIG X 999      42.074 132.189  17.851  1.00  0.00     0.002 A 
HETATM    4  C6  LIG X 999      42.331 132.118  19.217  1.00  0.00     0.012 A 
HETATM    5  C7  LIG X 999      43.575 131.671  19.680  1.00  0.00    -0.025 A 
HETATM    6  C8  LIG X 999      43.812 131.580  21.060  1.00  0.00     0.012 A 
HETATM    7  C9  LIG X 999      45.032 131.101  21.535  1.00  0.00     0.001 A 
HETATM    8  C10 LIG X 999      46.020 130.696  20.639  1.00  0.00     0.001 A 
HETATM    9  C11 LIG X 999      45.803 130.782  19.262  1.00  0.00     0.013 A 
HETATM   10  C12 LIG X 999      44.589 131.295  18.754  1.00  0.00    -0.011 A 
ENDROOT
BRANCH   1  11
HETATM   11  C2  LIG X 999      45.348 131.142  16.316  1.00  0.00     0.203 A 
HETATM   12  N3  LIG X 999      45.928 132.103  15.561  1.00  0.00    -0.145 NA
HETATM   13  N2  LIG X 999      46.794 131.475  14.785  1.00  0.00    -0.240 N 
HETATM   14  C1  LIG X 999      46.723 130.171  15.090  1.00  0.00     0.240 A 
HETATM   15  H3  LIG X 999      47.410 131.933  14.078  1.00  0.00     0.193 HD
HETATM   16  O1  LIG X 999      45.840 129.952  16.032  1.00  0.00    -0.257 OA
BRANCH  14  17
HETATM   17  N1  LIG X 999      47.506 129.156  14.469  1.00  0.00    -0.364 N 
HETATM   18  H1  LIG X 999      47.127 128.631  13.649  1.00  0.00     0.159 HD
HETATM   19  H2  LIG X 999      48.460 128.932  14.826  1.00  0.00     0.159 HD
ENDBRANCH  14  17
ENDBRANCH   1  11
TORSDOF 2
ENDMDL
MODEL 2
REMARK VINA RESULT:      -8.1      0.965      1.128
REMARK  2 active torsions:
REMARK  status: ('A' for Active; 'I' for Inactive)
REMARK    1  A    between atoms: N1_1  and  C1_2 
REMARK    2  A    between atoms: C2_5  and  C3_6 
ROOT
HETATM    1  C3  LIG X 999      44.313 131.383  17.552  1.00  0.00     0.030 A 
HETATM    2  C4  LIG X 999      43.078 131.806  17.028  1.00  0.00     0.017 A 
HETATM    3  C5  LIG X 999      42.045 132.213  17.869  1.00  0.00     0.002 A 
HETATM    4  C6  LIG X 999      42.217 132.204  19.250  1.00  0.00     0.012 A 
HETATM    5  C7  LIG X 999      43.424 131.763  19.809  1.00  0.00    -0.025 A 
HETATM    6  C8  LIG X 999      43.575 131.734  21.204  1.00  0.00     0.012 A 
HETATM    7  C9  LIG X 999      44.756 131.262  21.775  1.00  0.00     0.001 A 
HETATM    8  C10 LIG X 999      45.790 130.801  20.961  1.00  0.00     0.001 A 
HETATM    9  C11 LIG X 999      45.657 130.824  19.570  1.00  0.00     0.013 A 
HETATM   10  C12 LIG X 999      44.485 131.329  18.965  1.00  0.00    -0.011 A 
ENDROOT
BRANCH   1  11
HETATM   11  C2  LIG X 999      45.388 131.049  16.588  1.00  0.00     0.203 A 
HETATM   12  N3  LIG X 999      46.137 129.925  16.655  1.00  0.00    -0.145 NA
HETATM   13  N2  LIG X 999      46.950 129.975  15.615  1.00  0.00    -0.240 N 
HETATM   14  C1  LIG X 999      46.671 131.106  14.950  1.00  0.00     0.240 A 
HETATM   15  H3  LIG X 999      47.664 129.252  15.374  1.00  0.00     0.193 HD
HETATM   16  O1  LIG X 999      45.709 131.775  15.536  1.00  0.00    -0.257 OA
BRANCH  14  17
HETATM   17  N1  LIG X 999      47.335 131.524  13.761  1.00  0.00    -0.364 N 
HETATM   18  H1  LIG X 999      47.415 132.542  13.537  1.00  0.00     0.159 HD
HETATM   19  H2  LIG X 999      47.743 130.821  13.108  1.00  0.00     0.159 HD
ENDBRANCH  14  17
ENDBRANCH   1  11
TORSDOF 2
ENDMDL
MODEL 3
REMARK VINA RESULT:      -7.8      1.589      3.069
REMARK  2 active torsions:
REMARK  status: ('A' for Active; 'I' for Inactive)
REMARK    1  A    between atoms: N1_1  and  C1_2 
REMARK    2  A    between atoms: C2_5  and  C3_6 
ROOT
HETATM    1  C3  LIG X 999      44.811 131.352  18.488  1.00  0.00     0.030 A 
HETATM    2  C4  LIG X 999      45.925 130.645  18.975  1.00  0.00     0.017 A 
HETATM    3  C5  LIG X 999      46.032 130.315  20.324  1.00  0.00     0.002 A 
HETATM    4  C6  LIG X 999      45.032 130.685  21.219  1.00  0.00     0.012 A 
HETATM    5  C7  LIG X 999      43.921 131.414  20.776  1.00  0.00    -0.025 A 
HETATM    6  C8  LIG X 999      42.933 131.803  21.694  1.00  0.00     0.012 A 
HETATM    7  C9  LIG X 999      41.841 132.561  21.274  1.00  0.00     0.001 A 
HETATM    8  C10 LIG X 999      41.732 132.950  19.939  1.00  0.00     0.001 A 
HETATM    9  C11 LIG X 999      42.705 132.569  19.011  1.00  0.00     0.013 A 
HETATM   10  C12 LIG X 999      43.803 131.773  19.403  1.00  0.00    -0.011 A 
ENDROOT
BRANCH   1  11
HETATM   11  C2  LIG X 999      44.734 131.588  17.027  1.00  0.00     0.203 A 
HETATM   12  N3  LIG X 999      45.741 132.114  16.295  1.00  0.00    -0.145 NA
HETATM   13  N2  LIG X 999      45.305 132.132  15.048  1.00  0.00    -0.240 N 
HETATM   14  C1  LIG X 999      44.067 131.618  15.056  1.00  0.00     0.240 A 
HETATM   15  H3  LIG X 999      45.846 132.483  14.226  1.00  0.00     0.193 HD
HETATM   16  O1  LIG X 999      43.704 131.275  16.267  1.00  0.00    -0.257 OA
BRANCH  14  17
HETATM   17  N1  LIG X 999      43.252 131.464  13.897  1.00  0.00    -0.364 N 
HETATM   18  H1  LIG X 999      43.246 132.204  13.160  1.00  0.00     0.159 HD
HETATM   19  H2  LIG X 999      42.660 130.614  13.777  1.00  0.00     0.159 HD
ENDBRANCH  14  17
ENDBRANCH   1  11
TORSDOF 2
ENDMDL
MODEL 4
REMARK VINA RESULT:      -6.2      1.555      2.137
REMARK  2 active torsions:
REMARK  status: ('A' for Active; 'I' for Inactive)
REMARK    1  A    between atoms: N1_1  and  C1_2 
REMARK    2  A    between atoms: C2_5  and  C3_6 
ROOT
HETATM    1  C3  LIG X 999      43.451 131.713  19.216  1.00  0.00     0.030 A 
HETATM    2  C4  LIG X 999      42.376 132.584  18.966  1.00  0.00     0.017 A 
HETATM    3  C5  LIG X 999      41.589 133.069  20.009  1.00  0.00     0.002 A 
HETATM    4  C6  LIG X 999      41.854 132.693  21.323  1.00  0.00     0.012 A 
HETATM    5  C7  LIG X 999      42.899 131.805  21.607  1.00  0.00    -0.025 A 
HETATM    6  C8  LIG X 999      43.139 131.414  22.933  1.00  0.00     0.012 A 
HETATM    7  C9  LIG X 999      44.151 130.502  23.227  1.00  0.00     0.001 A 
HETATM    8  C10 LIG X 999      44.923 129.960  22.200  1.00  0.00     0.001 A 
HETATM    9  C11 LIG X 999      44.701 130.340  20.874  1.00  0.00     0.013 A 
HETATM   10  C12 LIG X 999      43.704 131.288  20.552  1.00  0.00    -0.011 A 
ENDROOT
BRANCH   1  11
HETATM   11  C2  LIG X 999      44.291 131.313  18.062  1.00  0.00     0.203 A 
HETATM   12  N3  LIG X 999      44.039 131.678  16.785  1.00  0.00    -0.145 NA
HETATM   13  N2  LIG X 999      45.018 131.160  16.065  1.00  0.00    -0.240 N 
HETATM   14  C1  LIG X 999      45.830 130.511  16.913  1.00  0.00     0.240 A 
HETATM   15  H3  LIG X 999      45.121 131.256  15.030  1.00  0.00     0.193 HD
HETATM   16  O1  LIG X 999      45.397 130.600  18.146  1.00  0.00    -0.257 OA
BRANCH  14  17
HETATM   17  N1  LIG X 999      47.011 129.816  16.523  1.00  0.00    -0.364 N 
HETATM   18  H1  LIG X 999      47.659 129.437  17.249  1.00  0.00     0.159 HD
HETATM   19  H2  LIG X 999      47.236 129.682  15.513  1.00  0.00     0.159 HD
ENDBRANCH  14  17
ENDBRANCH   1  11
TORSDOF 2
ENDMDL
MODEL 5
REMARK VINA RESULT:      -6.0      2.707      5.104
REMARK  2 active torsions:
REMARK  status: ('A' for Active; 'I' for Inactive)
REMARK    1  A    between atoms: N1_1  and  C1_2 
REMARK    2  A    between atoms: C2_5  and  C3_6 
ROOT
HETATM    1  C3  LIG X 999      44.827 131.170  16.946  1.00  0.00     0.030 A 
HETATM    2  C4  LIG X 999      43.597 131.787  16.656  1.00  0.00     0.017 A 
HETATM    3  C5  LIG X 999      43.183 131.978  15.339  1.00  0.00     0.002 A 
HETATM    4  C6  LIG X 999      43.988 131.562  14.282  1.00  0.00     0.012 A 
HETATM    5  C7  LIG X 999      45.232 130.968  14.533  1.00  0.00    -0.025 A 
HETATM    6  C8  LIG X 999      46.045 130.576  13.458  1.00  0.00     0.012 A 
HETATM    7  C9  LIG X 999      47.301 130.019  13.691  1.00  0.00     0.001 A 
HETATM    8  C10 LIG X 999      47.764 129.862  14.997  1.00  0.00     0.001 A 
HETATM    9  C11 LIG X 999      46.967 130.243  16.079  1.00  0.00     0.013 A 
HETATM   10  C12 LIG X 999      45.677 130.779  15.872  1.00  0.00    -0.011 A 
ENDROOT
BRANCH   1  11
HETATM   11  C2  LIG X 999      45.152 130.927  18.371  1.00  0.00     0.203 A 
HETATM   12  N3  LIG X 999      46.045 130.003  18.793  1.00  0.00    -0.145 NA
HETATM   13  N2  LIG X 999      46.080 130.114  20.109  1.00  0.00    -0.240 N 
HETATM   14  C1  LIG X 999      45.227 131.093  20.445  1.00  0.00     0.240 A 
HETATM   15  H3  LIG X 999      46.674 129.539  20.746  1.00  0.00     0.193 HD
HETATM   16  O1  LIG X 999      44.652 131.604  19.385  1.00  0.00    -0.257 OA
BRANCH  14  17
HETATM   17  N1  LIG X 999      44.979 131.521  21.781  1.00  0.00    -0.364 N 
HETATM   18  H1  LIG X 999      44.777 130.818  22.527  1.00  0.00     0.159 HD
HETATM   19  H2  LIG X 999      44.998 132.535  22.023  1.00  0.00     0.159 HD
ENDBRANCH  14  17
ENDBRANCH   1  11
TORSDOF 2
ENDMDL
MODEL 6
REMARK VINA RESULT:      -5.9      7.711      8.871
REMARK  2 active torsions:
REMARK  status: ('A' for Active; 'I' for Inactive)
REMARK    1  A    between atoms: N1_1  and  C1_2 
REMARK    2  A    between atoms: C2_5  and  C3_6 
ROOT
HETATM    1  C3  LIG X 999      49.574 136.200  21.487  1.00  0.00     0.030 A 
HETATM    2  C4  LIG X 999      48.454 135.354  21.572  1.00  0.00     0.017 A 
HETATM    3  C5  LIG X 999      48.369 134.375  22.560  1.00  0.00     0.002 A 
HETATM    4  C6  LIG X 999      49.400 134.214  23.481  1.00  0.00     0.012 A 
HETATM    5  C7  LIG X 999      50.544 135.021  23.409  1.00  0.00    -0.025 A 
HETATM    6  C8  LIG X 999      51.587 134.831  24.329  1.00  0.00     0.012 A 
HETATM    7  C9  LIG X 999      52.747 135.600  24.246  1.00  0.00     0.001 A 
HETATM    8  C10 LIG X 999      52.883 136.554  23.238  1.00  0.00     0.001 A 
HETATM    9  C11 LIG X 999      51.853 136.758  22.316  1.00  0.00     0.013 A 
HETATM   10  C12 LIG X 999      50.653 136.016  22.398  1.00  0.00    -0.011 A 
ENDROOT
BRANCH   1  11
HETATM   11  C2  LIG X 999      49.547 137.271  20.463  1.00  0.00     0.203 A 
HETATM   12  N3  LIG X 999      49.658 138.589  20.747  1.00  0.00    -0.145 NA
HETATM   13  N2  LIG X 999      49.624 139.211  19.582  1.00  0.00    -0.240 N 
HETATM   14  C1  LIG X 999      49.503 138.268  18.636  1.00  0.00     0.240 A 
HETATM   15  H3  LIG X 999      49.687 140.245  19.450  1.00  0.00     0.193 HD
HETATM   16  O1  LIG X 999      49.458 137.070  19.163  1.00  0.00    -0.257 OA
BRANCH  14  17
HETATM   17  N1  LIG X 999      49.434 138.536  17.238  1.00  0.00    -0.364 N 
HETATM   18  H1  LIG X 999      49.018 137.830  16.590  1.00  0.00     0.159 HD
HETATM   19  H2  LIG X 999      49.796 139.435  16.854  1.00  0.00     0.159 HD
ENDBRANCH  14  17
ENDBRANCH   1  11
TORSDOF 2
ENDMDL
MODEL 7
REMARK VINA RESULT:      -5.7      9.150     10.400
REMARK  2 active torsions:
REMARK  status: ('A' for Active; 'I' for Inactive)
REMARK    1  A    between atoms: N1_1  and  C1_2 
REMARK    2  A    between atoms: C2_5  and  C3_6 
ROOT
HETATM    1  C3  LIG X 999      51.510 136.846  22.894  1.00  0.00     0.030 A 
HETATM    2  C4  LIG X 999      52.376 137.711  23.586  1.00  0.00     0.017 A 
HETATM    3  C5  LIG X 999      52.357 139.084  23.350  1.00  0.00     0.002 A 
HETATM    4  C6  LIG X 999      51.478 139.625  22.416  1.00  0.00     0.012 A 
HETATM    5  C7  LIG X 999      50.619 138.791  21.688  1.00  0.00    -0.025 A 
HETATM    6  C8  LIG X 999      49.756 139.346  20.731  1.00  0.00     0.012 A 
HETATM    7  C9  LIG X 999      48.924 138.525  19.973  1.00  0.00     0.001 A 
HETATM    8  C10 LIG X 999      48.956 137.142  20.150  1.00  0.00     0.001 A 
HETATM    9  C11 LIG X 999      49.807 136.572  21.100  1.00  0.00     0.013 A 
HETATM   10  C12 LIG X 999      50.636 137.384  21.906  1.00  0.00    -0.011 A 
ENDROOT
BRANCH   1  11
HETATM   11  C2  LIG X 999      51.533 135.412  23.266  1.00  0.00     0.203 A 
HETATM   12  N3  LIG X 999      52.616 134.614  23.124  1.00  0.00    -0.145 NA
HETATM   13  N2  LIG X 999      52.254 133.433  23.593  1.00  0.00    -0.240 N 
HETATM   14  C1  LIG X 999      50.984 133.546  24.008  1.00  0.00     0.240 A 
HETATM   15  H3  LIG X 999      52.864 132.586  23.628  1.00  0.00     0.193 HD
HETATM   16  O1  LIG X 999      50.529 134.759  23.816  1.00  0.00    -0.257 OA
BRANCH  14  17
HETATM   17  N1  LIG X 999      50.228 132.484  24.583  1.00  0.00    -0.364 N 
HETATM   18  H1  LIG X 999      49.976 132.510  25.596  1.00  0.00     0.159 HD
HETATM   19  H2  LIG X 999      49.922 131.676  23.998  1.00  0.00     0.159 HD
ENDBRANCH  14  17
ENDBRANCH   1  11
TORSDOF 2
ENDMDL
MODEL 8
REMARK VINA RESULT:      -5.3      4.975      6.263
REMARK  2 active torsions:
REMARK  status: ('A' for Active; 'I' for Inactive)
REMARK    1  A    between atoms: N1_1  and  C1_2 
REMARK    2  A    between atoms: C2_5  and  C3_6 
ROOT
HETATM    1  C3  LIG X 999      44.268 129.400  22.898  1.00  0.00     0.030 A 
HETATM    2  C4  LIG X 999      43.307 129.824  23.833  1.00  0.00     0.017 A 
HETATM    3  C5  LIG X 999      42.566 130.985  23.623  1.00  0.00     0.002 A 
HETATM    4  C6  LIG X 999      42.769 131.751  22.478  1.00  0.00     0.012 A 
HETATM    5  C7  LIG X 999      43.737 131.374  21.538  1.00  0.00    -0.025 A 
HETATM    6  C8  LIG X 999      43.949 132.168  20.401  1.00  0.00     0.012 A 
HETATM    7  C9  LIG X 999      44.935 131.826  19.476  1.00  0.00     0.001 A 
HETATM    8  C10 LIG X 999      45.727 130.698  19.685  1.00  0.00     0.001 A 
HETATM    9  C11 LIG X 999      45.528 129.893  20.810  1.00  0.00     0.013 A 
HETATM   10  C12 LIG X 999      44.514 130.199  21.745  1.00  0.00    -0.011 A 
ENDROOT
BRANCH   1  11
HETATM   11  C2  LIG X 999      44.951 128.109  23.155  1.00  0.00     0.203 A 
HETATM   12  N3  LIG X 999      45.301 127.675  24.387  1.00  0.00    -0.145 NA
HETATM   13  N2  LIG X 999      45.846 126.485  24.205  1.00  0.00    -0.240 N 
HETATM   14  C1  LIG X 999      45.806 126.231  22.889  1.00  0.00     0.240 A 
HETATM   15  H3  LIG X 999      46.226 125.875  24.962  1.00  0.00     0.193 HD
HETATM   16  O1  LIG X 999      45.254 127.220  22.232  1.00  0.00    -0.257 OA
BRANCH  14  17
HETATM   17  N1  LIG X 999      46.299 125.038  22.285  1.00  0.00    -0.364 N 
HETATM   18  H1  LIG X 999      45.970 124.759  21.333  1.00  0.00     0.159 HD
HETATM   19  H2  LIG X 999      46.989 124.438  22.787  1.00  0.00     0.159 HD
ENDBRANCH  14  17
ENDBRANCH   1  11
TORSDOF 2
ENDMDL
MODEL 9
REMARK VINA RESULT:      -5.3      3.133      5.693
REMARK  2 active torsions:
REMARK  status: ('A' for Active; 'I' for Inactive)
REMARK    1  A    between atoms: N1_1  and  C1_2 
REMARK    2  A    between atoms: C2_5  and  C3_6 
ROOT
HETATM    1  C3  LIG X 999      44.355 131.222  17.907  1.00  0.00     0.030 A 
HETATM    2  C4  LIG X 999      45.290 130.619  18.767  1.00  0.00     0.017 A 
HETATM    3  C5  LIG X 999      46.441 130.015  18.264  1.00  0.00     0.002 A 
HETATM    4  C6  LIG X 999      46.682 129.995  16.893  1.00  0.00     0.012 A 
HETATM    5  C7  LIG X 999      45.759 130.561  16.004  1.00  0.00    -0.025 A 
HETATM    6  C8  LIG X 999      46.003 130.511  14.623  1.00  0.00     0.012 A 
HETATM    7  C9  LIG X 999      45.075 131.037  13.725  1.00  0.00     0.001 A 
HETATM    8  C10 LIG X 999      43.891 131.603  14.195  1.00  0.00     0.001 A 
HETATM    9  C11 LIG X 999      43.633 131.664  15.567  1.00  0.00     0.013 A 
HETATM   10  C12 LIG X 999      44.571 131.169  16.500  1.00  0.00    -0.011 A 
ENDROOT
BRANCH   1  11
HETATM   11  C2  LIG X 999      43.202 131.917  18.528  1.00  0.00     0.203 A 
HETATM   12  N3  LIG X 999      42.123 132.349  17.838  1.00  0.00    -0.145 NA
HETATM   13  N2  LIG X 999      41.312 132.878  18.736  1.00  0.00    -0.240 N 
HETATM   14  C1  LIG X 999      41.908 132.748  19.930  1.00  0.00     0.240 A 
HETATM   15  H3  LIG X 999      40.382 133.307  18.531  1.00  0.00     0.193 HD
HETATM   16  O1  LIG X 999      43.071 132.155  19.817  1.00  0.00    -0.257 OA
BRANCH  14  17
HETATM   17  N1  LIG X 999      41.350 133.197  21.162  1.00  0.00    -0.364 N 
HETATM   18  H1  LIG X 999      40.367 133.550  21.193  1.00  0.00     0.159 HD
HETATM   19  H2  LIG X 999      41.916 133.174  22.038  1.00  0.00     0.159 HD
ENDBRANCH  14  17
ENDBRANCH   1  11
TORSDOF 2
ENDMDL
