REMARK VINA RESULT:      -6.6      2.390      6.403
REMARK  2 active torsions:
REMARK  status: ('A' for Active; 'I' for Inactive)
REMARK    1  A    between atoms: O1_2  and  C2_3 
REMARK    2  A    between atoms: C11_12  and  N1_13 
ROOT
HETATM    1  C2  LIG X 999      43.145 131.390  22.443  1.00  0.00     0.095 A 
HETATM    2  C3  LIG X 999      42.853 131.773  21.120  1.00  0.00     0.051 A 
HETATM    3  C4  LIG X 999      43.704 131.409  20.067  1.00  0.00    -0.023 A 
HETATM    4  C5  LIG X 999      43.411 131.791  18.743  1.00  0.00     0.021 A 
HETATM    5  C6  LIG X 999      44.289 131.410  17.726  1.00  0.00    -0.024 A 
HETATM    6  C7  LIG X 999      45.407 130.679  17.988  1.00  0.00    -0.024 A 
HETATM    7  C8  LIG X 999      45.730 130.275  19.285  1.00  0.00     0.021 A 
HETATM    8  C9  LIG X 999      44.873 130.646  20.339  1.00  0.00    -0.023 A 
HETATM    9  C10 LIG X 999      45.158 130.267  21.657  1.00  0.00     0.044 A 
HETATM   10  C11 LIG X 999      44.304 130.633  22.707  1.00  0.00     0.060 A 
HETATM   11  C12 LIG X 999      46.141 130.389  16.739  1.00  0.00     0.276 C 
HETATM   12  N2  LIG X 999      45.438 131.164  15.668  1.00  0.00    -0.067 N 
HETATM   13  C13 LIG X 999      46.283 132.298  15.225  1.00  0.00     0.272 C 
HETATM   14  C14 LIG X 999      45.144 130.298  14.503  1.00  0.00     0.272 C 
HETATM   15  C15 LIG X 999      44.170 131.677  16.278  1.00  0.00     0.276 C 
ENDROOT
BRANCH  10  16
HETATM   16  N1  LIG X 999      44.623 130.232  24.044  1.00  0.00    -0.397 N 
HETATM   17  H8  LIG X 999      45.204 129.386  24.237  1.00  0.00     0.156 HD
HETATM   18  H9  LIG X 999      44.281 130.785  24.862  1.00  0.00     0.156 HD
ENDBRANCH  10  16
BRANCH   1  19
HETATM   19  O1  LIG X 999      42.310 131.742  23.516  1.00  0.00    -0.354 OA
HETATM   20  C1  LIG X 999      42.708 132.542  24.625  1.00  0.00     0.210 C 
ENDBRANCH   1  19
TORSDOF 2
