REMARK VINA RESULT:      -7.0      0.000      0.000
REMARK  3 active torsions:
REMARK  status: ('A' for Active; 'I' for Inactive)
REMARK    1  A    between atoms: C6_6  and  C7_7 
REMARK    2  A    between atoms: C8_8  and  C9_9 
REMARK    3  A    between atoms: C10_12  and  N1_13 
ROOT
HETATM    1  N1  LIG X 999      46.499 129.982  16.374  1.00  0.00    -0.105 NA
HETATM    2  N2  LIG X 999      47.048 129.498  15.383  1.00  0.00    -0.167 NA
HETATM    3  N3  LIG X 999      47.596 129.015  14.394  1.00  0.00     0.068 N 
ENDROOT
BRANCH   1   4
HETATM    4  C10 LIG X 999      46.139 131.396  16.425  1.00  0.00     0.179 C 
HETATM    5  C4  LIG X 999      44.906 131.554  17.290  1.00  0.00    -0.023 A 
HETATM    6  C3  LIG X 999      43.617 131.716  16.727  1.00  0.00    -0.050 A 
HETATM    7  C5  LIG X 999      45.040 131.444  18.686  1.00  0.00     0.030 A 
HETATM    8  C2  LIG X 999      42.500 131.805  17.573  1.00  0.00     0.009 A 
HETATM    9  C13 LIG X 999      43.418 131.914  15.242  1.00  0.00     0.039 C 
HETATM   10  C1  LIG X 999      42.648 131.701  18.957  1.00  0.00     0.021 A 
HETATM   11  C6  LIG X 999      43.917 131.520  19.516  1.00  0.00     0.018 A 
HETATM   12  C12 LIG X 999      44.611 131.430  14.414  1.00  0.00     0.007 C 
HETATM   13  C11 LIG X 999      45.920 131.953  15.007  1.00  0.00     0.035 C 
BRANCH  11  14
HETATM   14  C7  LIG X 999      44.066 131.410  20.943  1.00  0.00    -0.056 C 
HETATM   15  C8  LIG X 999      44.189 131.318  22.139  1.00  0.00     0.010 C 
BRANCH  15  16
HETATM   16  C9  LIG X 999      44.336 131.208  23.562  1.00  0.00     0.258 C 
HETATM   17  O1  LIG X 999      44.378 130.073  24.104  1.00  0.00    -0.637 OA
HETATM   18  O2  LIG X 999      44.435 132.352  24.340  1.00  0.00    -0.637 OA
ENDBRANCH  15  16
ENDBRANCH  11  14
ENDBRANCH   1   4
TORSDOF 3
