REMARK VINA RESULT:      -6.8      0.922      2.414
REMARK  7 active torsions:
REMARK  status: ('A' for Active; 'I' for Inactive)
REMARK    1  A    between atoms: N1_2  and  C2_3 
REMARK    2  A    between atoms: C2_3  and  C4_5 
REMARK    3  A    between atoms: C4_5  and  C5_6 
REMARK    4  A    between atoms: C5_6  and  C6_7 
REMARK    5  A    between atoms: C6_7  and  C7_8 
REMARK    6  A    between atoms: C7_8  and  N2_9 
REMARK    7  A    between atoms: N2_9  and  C8_10 
ROOT
HETATM    1  C8  LIG X 999      44.037 129.867  23.063  1.00  0.00     0.226 C 
HETATM    2  C9  LIG X 999      42.745 129.527  23.470  1.00  0.00     0.065 C 
HETATM    3  C10 LIG X 999      42.359 128.179  23.557  1.00  0.00    -0.045 C 
HETATM    4  C11 LIG X 999      40.880 127.924  23.707  1.00  0.00     0.049 C 
HETATM    5  C12 LIG X 999      43.342 127.155  23.364  1.00  0.00     0.010 C 
HETATM    6  C13 LIG X 999      44.599 127.567  22.836  1.00  0.00     0.070 C 
HETATM    7  C14 LIG X 999      45.535 126.629  22.401  1.00  0.00     0.033 C 
HETATM    8  C15 LIG X 999      45.266 125.271  22.487  1.00  0.00     0.014 C 
HETATM    9  C16 LIG X 999      44.099 124.822  23.113  1.00  0.00    -0.025 C 
HETATM   10  C17 LIG X 999      43.902 123.442  23.283  1.00  0.00     0.012 C 
HETATM   11  C18 LIG X 999      42.817 122.972  24.020  1.00  0.00     0.001 C 
HETATM   12  C19 LIG X 999      41.946 123.873  24.624  1.00  0.00     0.001 C 
HETATM   13  C20 LIG X 999      42.122 125.248  24.452  1.00  0.00     0.013 C 
HETATM   14  C21 LIG X 999      43.150 125.756  23.622  1.00  0.00    -0.013 C 
HETATM   15  N3  LIG X 999      44.907 128.885  22.725  1.00  0.00    -0.224 NA
ENDROOT
BRANCH   1  16
HETATM   16  N2  LIG X 999      44.443 131.247  22.971  1.00  0.00    -0.028 N 
HETATM   17  H17 LIG X 999      45.179 131.435  23.690  1.00  0.00     0.285 HD
HETATM   18  H18 LIG X 999      43.630 131.873  23.181  1.00  0.00     0.285 HD
BRANCH  16  19
HETATM   19  C7  LIG X 999      44.984 131.559  21.639  1.00  0.00     0.240 C 
BRANCH  19  20
HETATM   20  C6  LIG X 999      43.934 131.376  20.528  1.00  0.00     0.028 C 
BRANCH  20  21
HETATM   21  C5  LIG X 999      44.506 131.760  19.159  1.00  0.00     0.004 C 
BRANCH  21  22
HETATM   22  C4  LIG X 999      45.503 130.698  18.662  1.00  0.00     0.035 C 
BRANCH  22  23
HETATM   23  C2  LIG X 999      45.504 130.521  17.125  1.00  0.00     0.216 C 
HETATM   24  C3  LIG X 999      45.282 131.867  16.413  1.00  0.00     0.042 C 
BRANCH  23  25
HETATM   25  N1  LIG X 999      46.761 129.885  16.677  1.00  0.00     0.083 N 
HETATM   26  C1  LIG X 999      46.894 129.900  15.217  1.00  0.00     0.307 C 
HETATM   27  H4  LIG X 999      46.739 128.877  16.959  1.00  0.00     0.315 HD
ENDBRANCH  23  25
ENDBRANCH  22  23
ENDBRANCH  21  22
ENDBRANCH  20  21
ENDBRANCH  19  20
ENDBRANCH  16  19
ENDBRANCH   1  16
TORSDOF 7
