REMARK VINA RESULT:      -8.3      1.453      2.647
REMARK  4 active torsions:
REMARK  status: ('A' for Active; 'I' for Inactive)
REMARK    1  A    between atoms: O1_2  and  C1_3 
REMARK    2  A    between atoms: C1_3  and  N1_6 
REMARK    3  A    between atoms: N1_6  and  C4_8 
REMARK    4  A    between atoms: C4_8  and  C5_9 
ROOT
HETATM    1  C5  LIG X 999      44.979 131.221  18.264  1.00  0.00    -0.035 A 
HETATM    2  C6  LIG X 999      43.695 131.735  18.008  1.00  0.00     0.010 A 
HETATM    3  C7  LIG X 999      42.822 132.023  19.060  1.00  0.00     0.013 A 
HETATM    4  C8  LIG X 999      43.214 131.791  20.386  1.00  0.00    -0.026 A 
HETATM    5  C9  LIG X 999      42.345 132.078  21.449  1.00  0.00     0.012 A 
HETATM    6  C10 LIG X 999      42.746 131.839  22.766  1.00  0.00     0.001 A 
HETATM    7  C11 LIG X 999      44.013 131.313  23.032  1.00  0.00     0.001 A 
HETATM    8  C12 LIG X 999      44.888 131.023  21.980  1.00  0.00     0.012 A 
HETATM    9  C13 LIG X 999      44.499 131.260  20.653  1.00  0.00    -0.025 A 
HETATM   10  C14 LIG X 999      45.368 130.973  19.591  1.00  0.00     0.021 A 
ENDROOT
BRANCH   1  11
HETATM   11  C4  LIG X 999      45.918 130.888  17.123  1.00  0.00     0.113 C 
HETATM   12  C15 LIG X 999      45.684 129.446  16.661  1.00  0.00     0.037 C 
BRANCH  11  13
HETATM   13  N1  LIG X 999      45.732 131.824  16.007  1.00  0.00    -0.363 N 
HETATM   14  H6  LIG X 999      45.462 132.811  16.224  1.00  0.00     0.162 HD
BRANCH  13  15
HETATM   15  C1  LIG X 999      45.930 131.458  14.627  1.00  0.00     0.131 C 
HETATM   16  C2  LIG X 999      47.172 131.390  14.134  1.00  0.00     0.024 C 
HETATM   17  C3  LIG X 999      47.440 131.014  12.711  1.00  0.00     0.040 C 
BRANCH  15  18
HETATM   18  O1  LIG X 999      44.847 131.171  13.791  1.00  0.00    -0.347 OA
HETATM   19  H1  LIG X 999      44.891 130.488  13.048  1.00  0.00     0.219 HD
ENDBRANCH  15  18
ENDBRANCH  13  15
ENDBRANCH  11  13
ENDBRANCH   1  11
TORSDOF 4
