REMARK VINA RESULT:      -5.2      2.191      5.281
REMARK  4 active torsions:
REMARK  status: ('A' for Active; 'I' for Inactive)
REMARK    1  A    between atoms: C3_4  and  O1_5 
REMARK    2  A    between atoms: C3_4  and  O2_6 
REMARK    3  A    between atoms: O2_6  and  C4_7 
REMARK    4  A    between atoms: C7_10  and  N2_11 
ROOT
HETATM    1  C4  LIG X 999      44.950 131.004  17.441  1.00  0.00     0.091 A 
HETATM    2  C5  LIG X 999      43.676 131.588  17.406  1.00  0.00     0.040 A 
HETATM    3  C6  LIG X 999      43.055 131.864  16.192  1.00  0.00     0.033 A 
HETATM    4  C7  LIG X 999      43.688 131.582  14.975  1.00  0.00     0.037 A 
HETATM    5  C8  LIG X 999      44.981 130.990  14.983  1.00  0.00     0.003 A 
HETATM    6  C9  LIG X 999      45.661 130.649  13.792  1.00  0.00     0.014 A 
HETATM    7  C10 LIG X 999      46.935 130.079  13.836  1.00  0.00     0.001 A 
HETATM    8  C11 LIG X 999      47.554 129.832  15.058  1.00  0.00     0.001 A 
HETATM    9  C12 LIG X 999      46.900 130.143  16.249  1.00  0.00     0.015 A 
HETATM   10  C13 LIG X 999      45.614 130.717  16.231  1.00  0.00     0.010 A 
ENDROOT
BRANCH   1  11
HETATM   11  O2  LIG X 999      45.591 130.740  18.663  1.00  0.00    -0.273 OA
BRANCH  11  12
HETATM   12  C3  LIG X 999      45.287 131.360  19.885  1.00  0.00     0.265 C 
HETATM   13  N1  LIG X 999      45.197 130.632  20.974  1.00  0.00    -0.350 N 
HETATM   14  C1  LIG X 999      45.439 129.183  20.894  1.00  0.00     0.153 C 
HETATM   15  C2  LIG X 999      44.864 131.232  22.273  1.00  0.00     0.153 C 
BRANCH  12  16
HETATM   16  O1  LIG X 999      45.047 132.741  19.901  1.00  0.00    -0.327 OA
HETATM   17  H7  LIG X 999      44.188 133.164  20.227  1.00  0.00     0.221 HD
ENDBRANCH  12  16
ENDBRANCH  11  12
ENDBRANCH   1  11
BRANCH   4  18
HETATM   18  N2  LIG X 999      43.000 131.926  13.761  1.00  0.00    -0.398 N 
HETATM   19  H10 LIG X 999      42.007 132.235  13.731  1.00  0.00     0.156 HD
HETATM   20  H11 LIG X 999      43.465 131.781  12.837  1.00  0.00     0.156 HD
ENDBRANCH   4  18
TORSDOF 4
