REMARK VINA RESULT:      -5.9      3.982      6.557
REMARK  4 active torsions:
REMARK  status: ('A' for Active; 'I' for Inactive)
REMARK    1  A    between atoms: C3_3  and  O1_4 
REMARK    2  A    between atoms: O1_4  and  C4_5 
REMARK    3  A    between atoms: C4_5  and  C5_7 
REMARK    4  A    between atoms: C5_7  and  C6_8 
ROOT
HETATM    1  C1  LIG X 999      45.431 126.828  22.110  1.00  0.00     0.014 C 
HETATM    2  C2  LIG X 999      44.999 127.377  23.093  1.00  0.00    -0.091 C 
HETATM    3  C3  LIG X 999      44.475 128.043  24.285  1.00  0.00     0.271 C 
ENDROOT
BRANCH   3   4
HETATM    4  O1  LIG X 999      44.614 129.451  24.133  1.00  0.00    -0.309 OA
BRANCH   4   5
HETATM    5  C4  LIG X 999      43.740 130.215  23.356  1.00  0.00     0.263 C 
HETATM    6  O2  LIG X 999      42.547 129.845  23.177  1.00  0.00    -0.265 OA
BRANCH   5   7
HETATM    7  C5  LIG X 999      44.214 131.503  22.762  1.00  0.00     0.150 C 
BRANCH   7   8
HETATM    8  C6  LIG X 999      44.544 131.317  21.296  1.00  0.00    -0.038 A 
HETATM    9  C7  LIG X 999      45.758 130.688  20.969  1.00  0.00     0.008 A 
HETATM   10  C8  LIG X 999      46.116 130.464  19.641  1.00  0.00     0.001 A 
HETATM   11  C9  LIG X 999      45.266 130.855  18.610  1.00  0.00     0.012 A 
HETATM   12  C10 LIG X 999      44.041 131.471  18.898  1.00  0.00    -0.025 A 
HETATM   13  C11 LIG X 999      43.187 131.850  17.850  1.00  0.00     0.012 A 
HETATM   14  C15 LIG X 999      43.662 131.707  20.249  1.00  0.00    -0.019 A 
HETATM   15  C12 LIG X 999      41.961 132.455  18.125  1.00  0.00     0.001 A 
HETATM   16  C13 LIG X 999      41.576 132.688  19.444  1.00  0.00     0.001 A 
HETATM   17  C14 LIG X 999      42.414 132.321  20.499  1.00  0.00     0.013 A 
ENDBRANCH   7   8
ENDBRANCH   5   7
ENDBRANCH   4   5
ENDBRANCH   3   4
TORSDOF 4
