REMARK VINA RESULT:      -6.6      1.579      2.296
REMARK  1 active torsions:
REMARK  status: ('A' for Active; 'I' for Inactive)
REMARK    1  A    between atoms: C2_2  and  N1_3 
ROOT
HETATM    1  N1  LIG X 999      45.541 131.219  15.431  1.00  0.00    -0.073 NA
HETATM    2  N2  LIG X 999      46.420 130.361  15.330  1.00  0.00    -0.162 NA
HETATM    3  N3  LIG X 999      47.296 129.505  15.228  1.00  0.00     0.068 N 
ENDROOT
BRANCH   1   4
HETATM    4  C2  LIG X 999      44.775 131.396  16.631  1.00  0.00     0.094 A 
HETATM    5  C1  LIG X 999      43.428 131.798  16.596  1.00  0.00     0.035 A 
HETATM    6  C10 LIG X 999      42.704 131.962  17.780  1.00  0.00     0.014 A 
HETATM    7  C9  LIG X 999      43.316 131.727  19.019  1.00  0.00    -0.025 A 
HETATM    8  C4  LIG X 999      44.681 131.319  19.062  1.00  0.00    -0.023 A 
HETATM    9  C8  LIG X 999      42.594 131.890  20.218  1.00  0.00     0.030 A 
HETATM   10  C3  LIG X 999      45.394 131.159  17.865  1.00  0.00     0.046 A 
HETATM   11  C5  LIG X 999      45.305 131.081  20.304  1.00  0.00     0.022 A 
HETATM   12  C6  LIG X 999      44.558 131.252  21.471  1.00  0.00    -0.015 A 
HETATM   13  C7  LIG X 999      43.253 131.642  21.420  1.00  0.00     0.049 A 
HETATM   14  C14 LIG X 999      45.000 131.060  22.888  1.00  0.00     0.286 A 
HETATM   15  C11 LIG X 999      42.783 131.724  22.777  1.00  0.00     0.351 A 
HETATM   16  O1  LIG X 999      41.608 132.059  23.095  1.00  0.00    -0.259 OA
HETATM   17  N4  LIG X 999      43.805 131.379  23.736  1.00  0.00    -0.005 N 
HETATM   18  C12 LIG X 999      43.379 130.203  24.526  1.00  0.00     0.283 C 
HETATM   19  C13 LIG X 999      44.070 132.530  24.625  1.00  0.00     0.283 C 
ENDBRANCH   1   4
TORSDOF 1
