MODEL 1
REMARK VINA RESULT:      -7.9      0.000      0.000
REMARK  7 active torsions:
REMARK  status: ('A' for Active; 'I' for Inactive)
REMARK    1  A    between atoms: N1_2  and  C2_3 
REMARK    2  A    between atoms: C2_3  and  C4_5 
REMARK    3  A    between atoms: C4_5  and  C5_6 
REMARK    4  A    between atoms: C5_6  and  C6_7 
REMARK    5  A    between atoms: C6_7  and  C7_8 
REMARK    6  A    between atoms: C7_8  and  N2_9 
REMARK    7  A    between atoms: N2_9  and  C8_10 
ROOT
HETATM    1  C8  LIG X 999      43.635 131.852  17.663  1.00  0.00     0.101 C 
HETATM    2  C9  LIG X 999      44.757 131.232  18.222  1.00  0.00     0.056 C 
HETATM    3  C10 LIG X 999      44.870 131.081  19.611  1.00  0.00    -0.045 C 
HETATM    4  C11 LIG X 999      46.231 130.682  20.127  1.00  0.00     0.049 C 
HETATM    5  C12 LIG X 999      43.768 131.442  20.446  1.00  0.00     0.008 C 
HETATM    6  C13 LIG X 999      42.725 132.198  19.839  1.00  0.00     0.045 C 
HETATM    7  C14 LIG X 999      41.738 132.803  20.628  1.00  0.00     0.031 C 
HETATM    8  C15 LIG X 999      41.745 132.659  22.008  1.00  0.00     0.014 C 
HETATM    9  C16 LIG X 999      42.672 131.815  22.623  1.00  0.00    -0.025 C 
HETATM   10  C17 LIG X 999      42.587 131.598  24.009  1.00  0.00     0.012 C 
HETATM   11  C18 LIG X 999      43.411 130.660  24.625  1.00  0.00     0.001 C 
HETATM   12  C19 LIG X 999      44.295 129.904  23.861  1.00  0.00     0.001 C 
HETATM   13  C20 LIG X 999      44.400 130.121  22.484  1.00  0.00     0.013 C 
HETATM   14  C21 LIG X 999      43.656 131.141  21.845  1.00  0.00    -0.013 C 
HETATM   15  N3  LIG X 999      42.681 132.361  18.486  1.00  0.00    -0.342 N 
HETATM   16  H28 LIG X 999      41.884 132.886  18.058  1.00  0.00     0.167 HD
ENDROOT
BRANCH   1  17
HETATM   17  N2  LIG X 999      43.501 132.028  16.239  1.00  0.00    -0.376 N 
HETATM   18  H17 LIG X 999      43.096 132.926  15.889  1.00  0.00     0.161 HD
BRANCH  17  19
HETATM   19  C7  LIG X 999      43.829 131.012  15.234  1.00  0.00     0.121 C 
BRANCH  19  20
HETATM   20  C6  LIG X 999      44.743 131.579  14.138  1.00  0.00     0.020 C 
BRANCH  20  21
HETATM   21  C5  LIG X 999      46.129 131.951  14.682  1.00  0.00     0.004 C 
BRANCH  21  22
HETATM   22  C4  LIG X 999      47.241 131.337  13.818  1.00  0.00     0.035 C 
BRANCH  22  23
HETATM   23  C2  LIG X 999      47.333 129.811  14.002  1.00  0.00     0.216 C 
HETATM   24  C3  LIG X 999      48.670 129.296  13.439  1.00  0.00     0.042 C 
BRANCH  23  25
HETATM   25  N1  LIG X 999      47.184 129.481  15.433  1.00  0.00     0.083 N 
HETATM   26  C1  LIG X 999      45.933 128.771  15.710  1.00  0.00     0.307 C 
HETATM   27  H4  LIG X 999      47.986 128.887  15.754  1.00  0.00     0.315 HD
ENDBRANCH  23  25
ENDBRANCH  22  23
ENDBRANCH  21  22
ENDBRANCH  20  21
ENDBRANCH  19  20
ENDBRANCH  17  19
ENDBRANCH   1  17
TORSDOF 7
ENDMDL
MODEL 2
REMARK VINA RESULT:      -7.4      4.928      6.854
REMARK  7 active torsions:
REMARK  status: ('A' for Active; 'I' for Inactive)
REMARK    1  A    between atoms: N1_2  and  C2_3 
REMARK    2  A    between atoms: C2_3  and  C4_5 
REMARK    3  A    between atoms: C4_5  and  C5_6 
REMARK    4  A    between atoms: C5_6  and  C6_7 
REMARK    5  A    between atoms: C6_7  and  C7_8 
REMARK    6  A    between atoms: C7_8  and  N2_9 
REMARK    7  A    between atoms: N2_9  and  C8_10 
ROOT
HETATM    1  C8  LIG X 999      42.419 128.874  23.502  1.00  0.00     0.101 C 
HETATM    2  C9  LIG X 999      43.321 127.820  23.681  1.00  0.00     0.056 C 
HETATM    3  C10 LIG X 999      42.858 126.510  23.872  1.00  0.00    -0.045 C 
HETATM    4  C11 LIG X 999      43.880 125.508  24.352  1.00  0.00     0.049 C 
HETATM    5  C12 LIG X 999      41.461 126.237  23.748  1.00  0.00     0.008 C 
HETATM    6  C13 LIG X 999      40.588 127.361  23.716  1.00  0.00     0.045 C 
HETATM    7  C14 LIG X 999      39.205 127.188  23.846  1.00  0.00     0.031 C 
HETATM    8  C15 LIG X 999      38.658 125.920  23.987  1.00  0.00     0.014 C 
HETATM    9  C16 LIG X 999      39.471 124.788  23.886  1.00  0.00    -0.025 C 
HETATM   10  C17 LIG X 999      38.878 123.514  23.919  1.00  0.00     0.012 C 
HETATM   11  C18 LIG X 999      39.646 122.376  23.687  1.00  0.00     0.001 C 
HETATM   12  C19 LIG X 999      40.997 122.501  23.382  1.00  0.00     0.001 C 
HETATM   13  C20 LIG X 999      41.602 123.761  23.361  1.00  0.00     0.013 C 
HETATM   14  C21 LIG X 999      40.875 124.927  23.699  1.00  0.00    -0.013 C 
HETATM   15  N3  LIG X 999      41.085 128.624  23.577  1.00  0.00    -0.342 N 
HETATM   16  H28 LIG X 999      40.424 129.432  23.515  1.00  0.00     0.167 HD
ENDROOT
BRANCH   1  17
HETATM   17  N2  LIG X 999      42.870 130.230  23.314  1.00  0.00    -0.376 N 
HETATM   18  H17 LIG X 999      42.941 130.847  24.155  1.00  0.00     0.161 HD
BRANCH  17  19
HETATM   19  C7  LIG X 999      43.177 130.838  22.016  1.00  0.00     0.121 C 
BRANCH  19  20
HETATM   20  C6  LIG X 999      44.649 130.632  21.631  1.00  0.00     0.020 C 
BRANCH  20  21
HETATM   21  C5  LIG X 999      45.109 131.634  20.564  1.00  0.00     0.004 C 
BRANCH  21  22
HETATM   22  C4  LIG X 999      44.076 131.746  19.433  1.00  0.00     0.035 C 
BRANCH  22  23
HETATM   23  C2  LIG X 999      44.741 131.734  18.045  1.00  0.00     0.216 C 
HETATM   24  C3  LIG X 999      45.650 130.498  17.911  1.00  0.00     0.042 C 
BRANCH  23  25
HETATM   25  N1  LIG X 999      43.697 131.754  17.002  1.00  0.00     0.083 N 
HETATM   26  C1  LIG X 999      44.224 131.391  15.684  1.00  0.00     0.307 C 
HETATM   27  H4  LIG X 999      42.923 131.093  17.248  1.00  0.00     0.315 HD
ENDBRANCH  23  25
ENDBRANCH  22  23
ENDBRANCH  21  22
ENDBRANCH  20  21
ENDBRANCH  19  20
ENDBRANCH  17  19
ENDBRANCH   1  17
TORSDOF 7
ENDMDL
MODEL 3
REMARK VINA RESULT:      -7.1      3.845      8.284
REMARK  7 active torsions:
REMARK  status: ('A' for Active; 'I' for Inactive)
REMARK    1  A    between atoms: N1_2  and  C2_3 
REMARK    2  A    between atoms: C2_3  and  C4_5 
REMARK    3  A    between atoms: C4_5  and  C5_6 
REMARK    4  A    between atoms: C5_6  and  C6_7 
REMARK    5  A    between atoms: C6_7  and  C7_8 
REMARK    6  A    between atoms: C7_8  and  N2_9 
REMARK    7  A    between atoms: N2_9  and  C8_10 
ROOT
HETATM    1  C8  LIG X 999      43.437 131.064  22.705  1.00  0.00     0.101 C 
HETATM    2  C9  LIG X 999      42.519 131.805  21.952  1.00  0.00     0.056 C 
HETATM    3  C10 LIG X 999      42.757 132.069  20.596  1.00  0.00    -0.045 C 
HETATM    4  C11 LIG X 999      41.875 133.116  19.959  1.00  0.00     0.049 C 
HETATM    5  C12 LIG X 999      43.879 131.462  19.951  1.00  0.00     0.008 C 
HETATM    6  C13 LIG X 999      44.848 130.848  20.795  1.00  0.00     0.045 C 
HETATM    7  C14 LIG X 999      46.087 130.451  20.277  1.00  0.00     0.031 C 
HETATM    8  C15 LIG X 999      46.385 130.628  18.933  1.00  0.00     0.014 C 
HETATM    9  C16 LIG X 999      45.409 131.102  18.052  1.00  0.00    -0.025 C 
HETATM   10  C17 LIG X 999      45.699 131.165  16.679  1.00  0.00     0.012 C 
HETATM   11  C18 LIG X 999      44.704 131.505  15.766  1.00  0.00     0.001 C 
HETATM   12  C19 LIG X 999      43.407 131.742  16.210  1.00  0.00     0.001 C 
HETATM   13  C20 LIG X 999      43.109 131.697  17.574  1.00  0.00     0.013 C 
HETATM   14  C21 LIG X 999      44.119 131.462  18.537  1.00  0.00    -0.013 C 
HETATM   15  N3  LIG X 999      44.593 130.654  22.121  1.00  0.00    -0.342 N 
HETATM   16  H28 LIG X 999      45.302 130.165  22.713  1.00  0.00     0.167 HD
ENDROOT
BRANCH   1  17
HETATM   17  N2  LIG X 999      43.219 130.788  24.102  1.00  0.00    -0.376 N 
HETATM   18  H17 LIG X 999      43.825 131.274  24.801  1.00  0.00     0.161 HD
BRANCH  17  19
HETATM   19  C7  LIG X 999      42.249 129.820  24.624  1.00  0.00     0.121 C 
BRANCH  19  20
HETATM   20  C6  LIG X 999      42.130 128.592  23.710  1.00  0.00     0.020 C 
BRANCH  20  21
HETATM   21  C5  LIG X 999      40.914 127.727  24.067  1.00  0.00     0.004 C 
BRANCH  21  22
HETATM   22  C4  LIG X 999      41.139 126.265  23.652  1.00  0.00     0.035 C 
BRANCH  22  23
HETATM   23  C2  LIG X 999      39.862 125.420  23.816  1.00  0.00     0.216 C 
HETATM   24  C3  LIG X 999      38.627 126.339  23.850  1.00  0.00     0.042 C 
BRANCH  23  25
HETATM   25  N1  LIG X 999      39.779 124.441  22.715  1.00  0.00     0.083 N 
HETATM   26  C1  LIG X 999      39.535 123.080  23.200  1.00  0.00     0.307 C 
HETATM   27  H4  LIG X 999      39.011 124.704  22.052  1.00  0.00     0.315 HD
ENDBRANCH  23  25
ENDBRANCH  22  23
ENDBRANCH  21  22
ENDBRANCH  20  21
ENDBRANCH  19  20
ENDBRANCH  17  19
ENDBRANCH   1  17
TORSDOF 7
ENDMDL
MODEL 4
REMARK VINA RESULT:      -7.1      3.678      5.316
REMARK  7 active torsions:
REMARK  status: ('A' for Active; 'I' for Inactive)
REMARK    1  A    between atoms: N1_2  and  C2_3 
REMARK    2  A    between atoms: C2_3  and  C4_5 
REMARK    3  A    between atoms: C4_5  and  C5_6 
REMARK    4  A    between atoms: C5_6  and  C6_7 
REMARK    5  A    between atoms: C6_7  and  C7_8 
REMARK    6  A    between atoms: C7_8  and  N2_9 
REMARK    7  A    between atoms: N2_9  and  C8_10 
ROOT
HETATM    1  C8  LIG X 999      44.172 130.000  22.684  1.00  0.00     0.101 C 
HETATM    2  C9  LIG X 999      45.001 128.884  22.522  1.00  0.00     0.056 C 
HETATM    3  C10 LIG X 999      44.560 127.608  22.900  1.00  0.00    -0.045 C 
HETATM    4  C11 LIG X 999      45.618 126.534  22.970  1.00  0.00     0.049 C 
HETATM    5  C12 LIG X 999      43.207 127.432  23.326  1.00  0.00     0.008 C 
HETATM    6  C13 LIG X 999      42.466 128.615  23.610  1.00  0.00     0.045 C 
HETATM    7  C14 LIG X 999      41.230 128.536  24.263  1.00  0.00     0.031 C 
HETATM    8  C15 LIG X 999      40.695 127.307  24.625  1.00  0.00     0.014 C 
HETATM    9  C16 LIG X 999      41.330 126.123  24.242  1.00  0.00    -0.025 C 
HETATM   10  C17 LIG X 999      40.711 124.893  24.522  1.00  0.00     0.012 C 
HETATM   11  C18 LIG X 999      41.253 123.707  24.035  1.00  0.00     0.001 C 
HETATM   12  C19 LIG X 999      42.390 123.741  23.233  1.00  0.00     0.001 C 
HETATM   13  C20 LIG X 999      43.023 124.956  22.959  1.00  0.00     0.013 C 
HETATM   14  C21 LIG X 999      42.561 126.167  23.528  1.00  0.00    -0.013 C 
HETATM   15  N3  LIG X 999      42.956 129.841  23.268  1.00  0.00    -0.342 N 
HETATM   16  H28 LIG X 999      42.377 130.693  23.449  1.00  0.00     0.167 HD
ENDROOT
BRANCH   1  17
HETATM   17  N2  LIG X 999      44.606 131.323  22.312  1.00  0.00    -0.376 N 
HETATM   18  H17 LIG X 999      44.301 132.126  22.907  1.00  0.00     0.161 HD
BRANCH  17  19
HETATM   19  C7  LIG X 999      45.394 131.642  21.119  1.00  0.00     0.121 C 
BRANCH  19  20
HETATM   20  C6  LIG X 999      44.602 131.375  19.831  1.00  0.00     0.020 C 
BRANCH  20  21
HETATM   21  C5  LIG X 999      45.513 130.936  18.676  1.00  0.00     0.004 C 
BRANCH  21  22
HETATM   22  C4  LIG X 999      45.050 131.551  17.347  1.00  0.00     0.035 C 
BRANCH  22  23
HETATM   23  C2  LIG X 999      45.734 130.886  16.139  1.00  0.00     0.216 C 
HETATM   24  C3  LIG X 999      44.789 129.845  15.511  1.00  0.00     0.042 C 
BRANCH  23  25
HETATM   25  N1  LIG X 999      46.122 131.923  15.163  1.00  0.00     0.083 N 
HETATM   26  C1  LIG X 999      46.926 131.378  14.066  1.00  0.00     0.307 C 
HETATM   27  H4  LIG X 999      45.270 132.381  14.761  1.00  0.00     0.315 HD
ENDBRANCH  23  25
ENDBRANCH  22  23
ENDBRANCH  21  22
ENDBRANCH  20  21
ENDBRANCH  19  20
ENDBRANCH  17  19
ENDBRANCH   1  17
TORSDOF 7
ENDMDL
MODEL 5
REMARK VINA RESULT:      -7.1      2.773      7.140
REMARK  7 active torsions:
REMARK  status: ('A' for Active; 'I' for Inactive)
REMARK    1  A    between atoms: N1_2  and  C2_3 
REMARK    2  A    between atoms: C2_3  and  C4_5 
REMARK    3  A    between atoms: C4_5  and  C5_6 
REMARK    4  A    between atoms: C5_6  and  C6_7 
REMARK    5  A    between atoms: C6_7  and  C7_8 
REMARK    6  A    between atoms: C7_8  and  N2_9 
REMARK    7  A    between atoms: N2_9  and  C8_10 
ROOT
HETATM    1  C8  LIG X 999      43.424 131.698  22.229  1.00  0.00     0.101 C 
HETATM    2  C9  LIG X 999      44.628 131.089  21.861  1.00  0.00     0.056 C 
HETATM    3  C10 LIG X 999      44.939 130.883  20.510  1.00  0.00    -0.045 C 
HETATM    4  C11 LIG X 999      46.100 129.960  20.229  1.00  0.00     0.049 C 
HETATM    5  C12 LIG X 999      44.079 131.423  19.503  1.00  0.00     0.008 C 
HETATM    6  C13 LIG X 999      42.807 131.896  19.934  1.00  0.00     0.045 C 
HETATM    7  C14 LIG X 999      41.813 132.208  18.998  1.00  0.00     0.031 C 
HETATM    8  C15 LIG X 999      42.055 132.083  17.637  1.00  0.00     0.014 C 
HETATM    9  C16 LIG X 999      43.332 131.752  17.177  1.00  0.00    -0.025 C 
HETATM   10  C17 LIG X 999      43.581 131.743  15.794  1.00  0.00     0.012 C 
HETATM   11  C18 LIG X 999      44.873 131.549  15.314  1.00  0.00     0.001 C 
HETATM   12  C19 LIG X 999      45.931 131.405  16.207  1.00  0.00     0.001 C 
HETATM   13  C20 LIG X 999      45.695 131.397  17.584  1.00  0.00     0.013 C 
HETATM   14  C21 LIG X 999      44.381 131.483  18.102  1.00  0.00    -0.013 C 
HETATM   15  N3  LIG X 999      42.529 132.034  21.263  1.00  0.00    -0.342 N 
HETATM   16  H28 LIG X 999      41.604 132.422  21.556  1.00  0.00     0.167 HD
ENDROOT
BRANCH   1  17
HETATM   17  N2  LIG X 999      43.077 131.912  23.612  1.00  0.00    -0.376 N 
HETATM   18  H17 LIG X 999      43.393 132.798  24.068  1.00  0.00     0.161 HD
BRANCH  17  19
HETATM   19  C7  LIG X 999      42.367 130.947  24.456  1.00  0.00     0.121 C 
BRANCH  19  20
HETATM   20  C6  LIG X 999      42.319 129.557  23.807  1.00  0.00     0.020 C 
BRANCH  20  21
HETATM   21  C5  LIG X 999      43.138 128.526  24.596  1.00  0.00     0.004 C 
BRANCH  21  22
HETATM   22  C4  LIG X 999      44.610 128.541  24.156  1.00  0.00     0.035 C 
BRANCH  22  23
HETATM   23  C2  LIG X 999      45.129 127.127  23.842  1.00  0.00     0.216 C 
HETATM   24  C3  LIG X 999      45.378 126.985  22.329  1.00  0.00     0.042 C 
BRANCH  23  25
HETATM   25  N1  LIG X 999      46.357 126.872  24.619  1.00  0.00     0.083 N 
HETATM   26  C1  LIG X 999      47.116 125.732  24.099  1.00  0.00     0.307 C 
HETATM   27  H4  LIG X 999      46.975 127.718  24.613  1.00  0.00     0.315 HD
ENDBRANCH  23  25
ENDBRANCH  22  23
ENDBRANCH  21  22
ENDBRANCH  20  21
ENDBRANCH  19  20
ENDBRANCH  17  19
ENDBRANCH   1  17
TORSDOF 7
ENDMDL
MODEL 6
REMARK VINA RESULT:      -6.6      0.829      2.270
REMARK  7 active torsions:
REMARK  status: ('A' for Active; 'I' for Inactive)
REMARK    1  A    between atoms: N1_2  and  C2_3 
REMARK    2  A    between atoms: C2_3  and  C4_5 
REMARK    3  A    between atoms: C4_5  and  C5_6 
REMARK    4  A    between atoms: C5_6  and  C6_7 
REMARK    5  A    between atoms: C6_7  and  C7_8 
REMARK    6  A    between atoms: C7_8  and  N2_9 
REMARK    7  A    between atoms: N2_9  and  C8_10 
ROOT
HETATM    1  C8  LIG X 999      44.345 131.799  17.720  1.00  0.00     0.101 C 
HETATM    2  C9  LIG X 999      43.158 132.322  18.242  1.00  0.00     0.056 C 
HETATM    3  C10 LIG X 999      42.780 132.051  19.565  1.00  0.00    -0.045 C 
HETATM    4  C11 LIG X 999      41.359 132.401  19.934  1.00  0.00     0.049 C 
HETATM    5  C12 LIG X 999      43.684 131.348  20.420  1.00  0.00     0.008 C 
HETATM    6  C13 LIG X 999      44.798 130.718  19.796  1.00  0.00     0.045 C 
HETATM    7  C14 LIG X 999      45.589 129.810  20.511  1.00  0.00     0.031 C 
HETATM    8  C15 LIG X 999      45.316 129.524  21.842  1.00  0.00     0.014 C 
HETATM    9  C16 LIG X 999      44.317 130.224  22.521  1.00  0.00    -0.025 C 
HETATM   10  C17 LIG X 999      44.136 129.998  23.896  1.00  0.00     0.012 C 
HETATM   11  C18 LIG X 999      43.240 130.776  24.625  1.00  0.00     0.001 C 
HETATM   12  C19 LIG X 999      42.552 131.810  23.999  1.00  0.00     0.001 C 
HETATM   13  C20 LIG X 999      42.711 132.037  22.629  1.00  0.00     0.013 C 
HETATM   14  C21 LIG X 999      43.530 131.195  21.839  1.00  0.00    -0.013 C 
HETATM   15  N3  LIG X 999      45.100 130.973  18.491  1.00  0.00    -0.342 N 
HETATM   16  H28 LIG X 999      45.947 130.531  18.065  1.00  0.00     0.167 HD
ENDROOT
BRANCH   1  17
HETATM   17  N2  LIG X 999      44.750 132.055  16.360  1.00  0.00    -0.376 N 
HETATM   18  H17 LIG X 999      45.644 132.572  16.202  1.00  0.00     0.161 HD
BRANCH  17  19
HETATM   19  C7  LIG X 999      43.968 131.701  15.172  1.00  0.00     0.121 C 
BRANCH  19  20
HETATM   20  C6  LIG X 999      44.873 131.419  13.965  1.00  0.00     0.020 C 
BRANCH  20  21
HETATM   21  C5  LIG X 999      46.339 131.771  14.252  1.00  0.00     0.004 C 
BRANCH  21  22
HETATM   22  C4  LIG X 999      47.282 131.007  13.310  1.00  0.00     0.035 C 
BRANCH  22  23
HETATM   23  C2  LIG X 999      47.573 129.585  13.822  1.00  0.00     0.216 C 
HETATM   24  C3  LIG X 999      49.003 129.170  13.428  1.00  0.00     0.042 C 
BRANCH  23  25
HETATM   25  N1  LIG X 999      47.380 129.540  15.284  1.00  0.00     0.083 N 
HETATM   26  C1  LIG X 999      46.110 128.911  15.656  1.00  0.00     0.307 C 
HETATM   27  H4  LIG X 999      48.163 129.013  15.739  1.00  0.00     0.315 HD
ENDBRANCH  23  25
ENDBRANCH  22  23
ENDBRANCH  21  22
ENDBRANCH  20  21
ENDBRANCH  19  20
ENDBRANCH  17  19
ENDBRANCH   1  17
TORSDOF 7
ENDMDL
MODEL 7
REMARK VINA RESULT:      -6.6      3.087      7.737
REMARK  7 active torsions:
REMARK  status: ('A' for Active; 'I' for Inactive)
REMARK    1  A    between atoms: N1_2  and  C2_3 
REMARK    2  A    between atoms: C2_3  and  C4_5 
REMARK    3  A    between atoms: C4_5  and  C5_6 
REMARK    4  A    between atoms: C5_6  and  C6_7 
REMARK    5  A    between atoms: C6_7  and  C7_8 
REMARK    6  A    between atoms: C7_8  and  N2_9 
REMARK    7  A    between atoms: N2_9  and  C8_10 
ROOT
HETATM    1  C8  LIG X 999      43.541 131.854  22.189  1.00  0.00     0.101 C 
HETATM    2  C9  LIG X 999      44.729 131.204  21.837  1.00  0.00     0.056 C 
HETATM    3  C10 LIG X 999      45.022 130.935  20.492  1.00  0.00    -0.045 C 
HETATM    4  C11 LIG X 999      46.161 129.976  20.241  1.00  0.00     0.049 C 
HETATM    5  C12 LIG X 999      44.165 131.451  19.472  1.00  0.00     0.008 C 
HETATM    6  C13 LIG X 999      42.908 131.969  19.893  1.00  0.00     0.045 C 
HETATM    7  C14 LIG X 999      41.912 132.263  18.953  1.00  0.00     0.031 C 
HETATM    8  C15 LIG X 999      42.140 132.077  17.596  1.00  0.00     0.014 C 
HETATM    9  C16 LIG X 999      43.405 131.700  17.140  1.00  0.00    -0.025 C 
HETATM   10  C17 LIG X 999      43.641 131.627  15.757  1.00  0.00     0.012 C 
HETATM   11  C18 LIG X 999      44.924 131.386  15.274  1.00  0.00     0.001 C 
HETATM   12  C19 LIG X 999      45.986 131.256  16.163  1.00  0.00     0.001 C 
HETATM   13  C20 LIG X 999      45.763 131.311  17.542  1.00  0.00     0.013 C 
HETATM   14  C21 LIG X 999      44.456 131.446  18.067  1.00  0.00    -0.013 C 
HETATM   15  N3  LIG X 999      42.646 132.169  21.217  1.00  0.00    -0.342 N 
HETATM   16  H28 LIG X 999      41.731 132.588  21.501  1.00  0.00     0.167 HD
ENDROOT
BRANCH   1  17
HETATM   17  N2  LIG X 999      43.212 132.132  23.564  1.00  0.00    -0.376 N 
HETATM   18  H17 LIG X 999      43.072 133.129  23.846  1.00  0.00     0.161 HD
BRANCH  17  19
HETATM   19  C7  LIG X 999      43.121 131.124  24.625  1.00  0.00     0.121 C 
BRANCH  19  20
HETATM   20  C6  LIG X 999      41.963 130.147  24.376  1.00  0.00     0.020 C 
BRANCH  20  21
HETATM   21  C5  LIG X 999      42.464 128.733  24.050  1.00  0.00     0.004 C 
BRANCH  21  22
HETATM   22  C4  LIG X 999      41.358 127.896  23.391  1.00  0.00     0.035 C 
BRANCH  22  23
HETATM   23  C2  LIG X 999      41.506 126.398  23.710  1.00  0.00     0.216 C 
HETATM   24  C3  LIG X 999      42.881 126.132  24.350  1.00  0.00     0.042 C 
BRANCH  23  25
HETATM   25  N1  LIG X 999      40.405 125.975  24.598  1.00  0.00     0.083 N 
HETATM   26  C1  LIG X 999      39.103 126.022  23.928  1.00  0.00     0.307 C 
HETATM   27  H4  LIG X 999      40.571 125.000  24.944  1.00  0.00     0.315 HD
ENDBRANCH  23  25
ENDBRANCH  22  23
ENDBRANCH  21  22
ENDBRANCH  20  21
ENDBRANCH  19  20
ENDBRANCH  17  19
ENDBRANCH   1  17
TORSDOF 7
ENDMDL
MODEL 8
REMARK VINA RESULT:      -6.6      3.133      7.444
REMARK  7 active torsions:
REMARK  status: ('A' for Active; 'I' for Inactive)
REMARK    1  A    between atoms: N1_2  and  C2_3 
REMARK    2  A    between atoms: C2_3  and  C4_5 
REMARK    3  A    between atoms: C4_5  and  C5_6 
REMARK    4  A    between atoms: C5_6  and  C6_7 
REMARK    5  A    between atoms: C6_7  and  C7_8 
REMARK    6  A    between atoms: C7_8  and  N2_9 
REMARK    7  A    between atoms: N2_9  and  C8_10 
ROOT
HETATM    1  C8  LIG X 999      43.478 131.105  22.689  1.00  0.00     0.101 C 
HETATM    2  C9  LIG X 999      42.544 131.829  21.940  1.00  0.00     0.056 C 
HETATM    3  C10 LIG X 999      42.766 132.087  20.580  1.00  0.00    -0.045 C 
HETATM    4  C11 LIG X 999      41.864 133.118  19.945  1.00  0.00     0.049 C 
HETATM    5  C12 LIG X 999      43.889 131.490  19.928  1.00  0.00     0.008 C 
HETATM    6  C13 LIG X 999      44.874 130.895  20.767  1.00  0.00     0.045 C 
HETATM    7  C14 LIG X 999      46.113 130.511  20.239  1.00  0.00     0.031 C 
HETATM    8  C15 LIG X 999      46.396 130.682  18.892  1.00  0.00     0.014 C 
HETATM    9  C16 LIG X 999      45.406 131.137  18.017  1.00  0.00    -0.025 C 
HETATM   10  C17 LIG X 999      45.681 131.195  16.641  1.00  0.00     0.012 C 
HETATM   11  C18 LIG X 999      44.674 131.515  15.735  1.00  0.00     0.001 C 
HETATM   12  C19 LIG X 999      43.378 131.739  16.190  1.00  0.00     0.001 C 
HETATM   13  C20 LIG X 999      43.093 131.699  17.557  1.00  0.00     0.013 C 
HETATM   14  C21 LIG X 999      44.116 131.484  18.512  1.00  0.00    -0.013 C 
HETATM   15  N3  LIG X 999      44.635 130.707  22.096  1.00  0.00    -0.342 N 
HETATM   16  H28 LIG X 999      45.356 130.230  22.685  1.00  0.00     0.167 HD
ENDROOT
BRANCH   1  17
HETATM   17  N2  LIG X 999      43.278 130.836  24.090  1.00  0.00    -0.376 N 
HETATM   18  H17 LIG X 999      43.826 131.394  24.783  1.00  0.00     0.161 HD
BRANCH  17  19
HETATM   19  C7  LIG X 999      42.406 129.785  24.625  1.00  0.00     0.121 C 
BRANCH  19  20
HETATM   20  C6  LIG X 999      42.793 128.402  24.083  1.00  0.00     0.020 C 
BRANCH  20  21
HETATM   21  C5  LIG X 999      44.270 128.075  24.345  1.00  0.00     0.004 C 
BRANCH  21  22
HETATM   22  C4  LIG X 999      44.845 127.197  23.224  1.00  0.00     0.035 C 
BRANCH  22  23
HETATM   23  C2  LIG X 999      44.623 125.698  23.500  1.00  0.00     0.216 C 
HETATM   24  C3  LIG X 999      43.479 125.168  22.616  1.00  0.00     0.042 C 
BRANCH  23  25
HETATM   25  N1  LIG X 999      45.880 124.964  23.257  1.00  0.00     0.083 N 
HETATM   26  C1  LIG X 999      47.062 125.764  23.588  1.00  0.00     0.307 C 
HETATM   27  H4  LIG X 999      45.902 124.082  23.822  1.00  0.00     0.315 HD
ENDBRANCH  23  25
ENDBRANCH  22  23
ENDBRANCH  21  22
ENDBRANCH  20  21
ENDBRANCH  19  20
ENDBRANCH  17  19
ENDBRANCH   1  17
TORSDOF 7
ENDMDL
MODEL 9
REMARK VINA RESULT:      -6.2      6.447      7.808
REMARK  7 active torsions:
REMARK  status: ('A' for Active; 'I' for Inactive)
REMARK    1  A    between atoms: N1_2  and  C2_3 
REMARK    2  A    between atoms: C2_3  and  C4_5 
REMARK    3  A    between atoms: C4_5  and  C5_6 
REMARK    4  A    between atoms: C5_6  and  C6_7 
REMARK    5  A    between atoms: C6_7  and  C7_8 
REMARK    6  A    between atoms: C7_8  and  N2_9 
REMARK    7  A    between atoms: N2_9  and  C8_10 
ROOT
HETATM    1  C8  LIG X 999      48.014 133.860  22.035  1.00  0.00     0.101 C 
HETATM    2  C9  LIG X 999      48.998 133.599  22.994  1.00  0.00     0.056 C 
HETATM    3  C10 LIG X 999      50.012 134.533  23.247  1.00  0.00    -0.045 C 
HETATM    4  C11 LIG X 999      51.181 134.039  24.065  1.00  0.00     0.049 C 
HETATM    5  C12 LIG X 999      49.957 135.814  22.616  1.00  0.00     0.008 C 
HETATM    6  C13 LIG X 999      49.027 135.963  21.548  1.00  0.00     0.045 C 
HETATM    7  C14 LIG X 999      49.076 137.090  20.718  1.00  0.00     0.031 C 
HETATM    8  C15 LIG X 999      50.016 138.089  20.931  1.00  0.00     0.014 C 
HETATM    9  C16 LIG X 999      50.853 138.040  22.048  1.00  0.00    -0.025 C 
HETATM   10  C17 LIG X 999      51.717 139.118  22.304  1.00  0.00     0.012 C 
HETATM   11  C18 LIG X 999      52.463 139.157  23.478  1.00  0.00     0.001 C 
HETATM   12  C19 LIG X 999      52.324 138.145  24.423  1.00  0.00     0.001 C 
HETATM   13  C20 LIG X 999      51.480 137.060  24.174  1.00  0.00     0.013 C 
HETATM   14  C21 LIG X 999      50.791 136.935  22.944  1.00  0.00    -0.013 C 
HETATM   15  N3  LIG X 999      48.086 135.005  21.307  1.00  0.00    -0.342 N 
HETATM   16  H28 LIG X 999      47.387 135.154  20.544  1.00  0.00     0.167 HD
ENDROOT
BRANCH   1  17
HETATM   17  N2  LIG X 999      46.967 132.911  21.750  1.00  0.00    -0.376 N 
HETATM   18  H17 LIG X 999      46.909 132.050  22.340  1.00  0.00     0.161 HD
BRANCH  17  19
HETATM   19  C7  LIG X 999      46.009 133.026  20.646  1.00  0.00     0.121 C 
BRANCH  19  20
HETATM   20  C6  LIG X 999      45.053 131.826  20.603  1.00  0.00     0.020 C 
BRANCH  20  21
HETATM   21  C5  LIG X 999      44.674 131.446  19.164  1.00  0.00     0.004 C 
BRANCH  21  22
HETATM   22  C4  LIG X 999      45.729 130.515  18.547  1.00  0.00     0.035 C 
BRANCH  22  23
HETATM   23  C2  LIG X 999      45.627 130.473  17.011  1.00  0.00     0.216 C 
HETATM   24  C3  LIG X 999      45.450 131.899  16.459  1.00  0.00     0.042 C 
BRANCH  23  25
HETATM   25  N1  LIG X 999      46.832 129.824  16.458  1.00  0.00     0.083 N 
HETATM   26  C1  LIG X 999      46.867 129.878  14.994  1.00  0.00     0.307 C 
HETATM   27  H4  LIG X 999      47.696 130.282  16.832  1.00  0.00     0.315 HD
ENDBRANCH  23  25
ENDBRANCH  22  23
ENDBRANCH  21  22
ENDBRANCH  20  21
ENDBRANCH  19  20
ENDBRANCH  17  19
ENDBRANCH   1  17
TORSDOF 7
ENDMDL
