REMARK VINA RESULT:      -6.0      0.652      2.001
REMARK  3 active torsions:
REMARK  status: ('A' for Active; 'I' for Inactive)
REMARK    1  A    between atoms: C3_3  and  N1_4 
REMARK    2  A    between atoms: C3_3  and  C4_7 
REMARK    3  A    between atoms: C3_3  and  C14_17 
ROOT
HETATM    1  C1  LIG X 999      43.246 131.470  13.945  1.00  0.00     0.015 C 
HETATM    2  C2  LIG X 999      44.181 131.298  14.688  1.00  0.00    -0.075 C 
HETATM    3  C3  LIG X 999      45.334 131.090  15.602  1.00  0.00     0.183 C 
ENDROOT
BRANCH   3   4
HETATM    4  N1  LIG X 999      46.355 132.080  15.231  1.00  0.00    -0.085 NA
HETATM    5  N2  LIG X 999      47.120 131.910  14.278  1.00  0.00    -0.165 NA
HETATM    6  N3  LIG X 999      47.882 131.740  13.328  1.00  0.00     0.068 N 
ENDBRANCH   3   4
BRANCH   3   7
HETATM    7  C4  LIG X 999      44.889 131.320  17.061  1.00  0.00    -0.012 A 
HETATM    8  C5  LIG X 999      45.742 130.980  18.135  1.00  0.00     0.012 A 
HETATM    9  C6  LIG X 999      45.341 131.155  19.461  1.00  0.00     0.013 A 
HETATM   10  C7  LIG X 999      44.070 131.662  19.753  1.00  0.00    -0.026 A 
HETATM   11  C8  LIG X 999      43.660 131.839  21.084  1.00  0.00     0.012 A 
HETATM   12  C12 LIG X 999      43.190 131.991  18.698  1.00  0.00    -0.025 A 
HETATM   13  C9  LIG X 999      42.384 132.337  21.363  1.00  0.00     0.001 A 
HETATM   14  C10 LIG X 999      41.512 132.661  20.321  1.00  0.00     0.001 A 
HETATM   15  C11 LIG X 999      41.910 132.489  18.992  1.00  0.00     0.012 A 
HETATM   16  C13 LIG X 999      43.600 131.814  17.368  1.00  0.00     0.023 A 
ENDBRANCH   3   7
BRANCH   3  17
HETATM   17  C14 LIG X 999      45.936 129.636  15.397  1.00  0.00    -0.005 C 
HETATM   18  C15 LIG X 999      47.091 129.367  16.394  1.00  0.00     0.018 C 
HETATM   19  C16 LIG X 999      44.867 128.534  15.602  1.00  0.00     0.018 C 
HETATM   20  C17 LIG X 999      46.512 129.480  13.964  1.00  0.00     0.018 C 
ENDBRANCH   3  17
TORSDOF 3
