REMARK VINA RESULT:      -5.9      2.157      5.143
REMARK  1 active torsions:
REMARK  status: ('A' for Active; 'I' for Inactive)
REMARK    1  A    between atoms: C4_4  and  N1_5 
ROOT
HETATM    1  C1  LIG X 999      45.939 130.423  20.014  1.00  0.00     0.049 C 
HETATM    2  C2  LIG X 999      44.586 130.771  20.584  1.00  0.00    -0.045 C 
HETATM    3  C3  LIG X 999      43.863 131.756  19.895  1.00  0.00     0.055 C 
HETATM    4  C4  LIG X 999      42.742 132.344  20.476  1.00  0.00     0.099 C 
HETATM    5  N2  LIG X 999      42.370 131.988  21.732  1.00  0.00    -0.342 N 
HETATM    6  C5  LIG X 999      43.012 131.004  22.426  1.00  0.00     0.045 C 
HETATM    7  C6  LIG X 999      42.621 130.736  23.743  1.00  0.00     0.031 C 
HETATM    8  C7  LIG X 999      43.252 129.747  24.482  1.00  0.00     0.014 C 
HETATM    9  C8  LIG X 999      44.210 128.924  23.887  1.00  0.00    -0.025 C 
HETATM   10  C9  LIG X 999      44.750 127.858  24.625  1.00  0.00     0.012 C 
HETATM   11  C10 LIG X 999      45.605 126.942  24.015  1.00  0.00     0.001 C 
HETATM   12  C11 LIG X 999      45.892 127.059  22.658  1.00  0.00     0.001 C 
HETATM   13  C12 LIG X 999      45.373 128.124  21.916  1.00  0.00     0.013 C 
HETATM   14  C13 LIG X 999      44.590 129.130  22.530  1.00  0.00    -0.013 C 
HETATM   15  C14 LIG X 999      44.081 130.274  21.827  1.00  0.00     0.008 C 
HETATM   16  H7  LIG X 999      41.563 132.489  22.173  1.00  0.00     0.167 HD
ENDROOT
BRANCH   4  17
HETATM   17  N1  LIG X 999      42.024 133.363  19.775  1.00  0.00    -0.385 N 
HETATM   18  H5  LIG X 999      41.224 133.122  19.149  1.00  0.00     0.157 HD
HETATM   19  H6  LIG X 999      42.287 134.368  19.882  1.00  0.00     0.157 HD
ENDBRANCH   4  17
TORSDOF 1
