REMARK VINA RESULT:      -7.2      0.000      0.000
REMARK  1 active torsions:
REMARK  status: ('A' for Active; 'I' for Inactive)
REMARK    1  A    between atoms: C4_4  and  N1_5 
ROOT
HETATM    1  C1  LIG X 999      45.765 129.664  20.892  1.00  0.00     0.049 C 
HETATM    2  C2  LIG X 999      44.729 130.739  21.114  1.00  0.00    -0.045 C 
HETATM    3  C3  LIG X 999      44.412 131.022  22.453  1.00  0.00     0.057 C 
HETATM    4  C4  LIG X 999      43.293 131.790  22.763  1.00  0.00     0.122 C 
HETATM    5  N2  LIG X 999      42.490 132.236  21.768  1.00  0.00    -0.231 NA
HETATM    6  C5  LIG X 999      42.775 132.030  20.456  1.00  0.00     0.070 C 
HETATM    7  C6  LIG X 999      41.857 132.466  19.502  1.00  0.00     0.033 C 
HETATM    8  C7  LIG X 999      42.099 132.272  18.150  1.00  0.00     0.014 C 
HETATM    9  C8  LIG X 999      43.316 131.735  17.720  1.00  0.00    -0.025 C 
HETATM   10  C9  LIG X 999      43.578 131.648  16.344  1.00  0.00     0.012 C 
HETATM   11  C10 LIG X 999      44.831 131.242  15.891  1.00  0.00     0.001 C 
HETATM   12  C11 LIG X 999      45.841 130.960  16.805  1.00  0.00     0.001 C 
HETATM   13  C12 LIG X 999      45.591 131.029  18.178  1.00  0.00     0.013 C 
HETATM   14  C13 LIG X 999      44.300 131.333  18.671  1.00  0.00    -0.013 C 
HETATM   15  C14 LIG X 999      43.972 131.362  20.069  1.00  0.00     0.010 C 
ENDROOT
BRANCH   4  16
HETATM   16  N1  LIG X 999      42.949 132.057  24.123  1.00  0.00    -0.384 N 
HETATM   17  H5  LIG X 999      42.750 131.279  24.790  1.00  0.00     0.157 HD
HETATM   18  H6  LIG X 999      42.896 133.041  24.469  1.00  0.00     0.157 HD
ENDBRANCH   4  16
TORSDOF 1
