REMARK VINA RESULT:      -5.5      4.272      6.004
REMARK  2 active torsions:
REMARK  status: ('A' for Active; 'I' for Inactive)
REMARK    1  A    between atoms: N1_1  and  C1_2 
REMARK    2  A    between atoms: C2_5  and  C3_6 
ROOT
HETATM    1  C3  LIG X 999      43.430 131.442  20.964  1.00  0.00     0.030 A 
HETATM    2  C4  LIG X 999      42.221 132.157  20.914  1.00  0.00     0.017 A 
HETATM    3  C5  LIG X 999      41.759 132.701  19.718  1.00  0.00     0.002 A 
HETATM    4  C6  LIG X 999      42.490 132.543  18.545  1.00  0.00     0.012 A 
HETATM    5  C7  LIG X 999      43.687 131.813  18.551  1.00  0.00    -0.025 A 
HETATM    6  C8  LIG X 999      44.401 131.640  17.356  1.00  0.00     0.012 A 
HETATM    7  C9  LIG X 999      45.573 130.884  17.339  1.00  0.00     0.001 A 
HETATM    8  C10 LIG X 999      46.034 130.285  18.510  1.00  0.00     0.001 A 
HETATM    9  C11 LIG X 999      45.337 130.450  19.710  1.00  0.00     0.013 A 
HETATM   10  C12 LIG X 999      44.165 131.237  19.762  1.00  0.00    -0.011 A 
ENDROOT
BRANCH   1  11
HETATM   11  C2  LIG X 999      43.894 130.970  22.291  1.00  0.00     0.203 A 
HETATM   12  N3  LIG X 999      44.226 131.796  23.309  1.00  0.00    -0.145 NA
HETATM   13  N2  LIG X 999      44.617 131.008  24.296  1.00  0.00    -0.240 N 
HETATM   14  C1  LIG X 999      44.521 129.746  23.854  1.00  0.00     0.240 A 
HETATM   15  H3  LIG X 999      44.940 131.333  25.234  1.00  0.00     0.193 HD
HETATM   16  O1  LIG X 999      44.082 129.709  22.621  1.00  0.00    -0.257 OA
BRANCH  14  17
HETATM   17  N1  LIG X 999      44.856 128.596  24.625  1.00  0.00    -0.364 N 
HETATM   18  H1  LIG X 999      45.802 128.511  25.054  1.00  0.00     0.159 HD
HETATM   19  H2  LIG X 999      44.158 127.832  24.764  1.00  0.00     0.159 HD
ENDBRANCH  14  17
ENDBRANCH   1  11
TORSDOF 2
