REMARK VINA RESULT:      -3.0      8.885     10.666
REMARK  3 active torsions:
REMARK  status: ('A' for Active; 'I' for Inactive)
REMARK    1  A    between atoms: C3_3  and  O1_4 
REMARK    2  A    between atoms: O1_4  and  C4_5 
REMARK    3  A    between atoms: C15_16  and  C16_17 
ROOT
HETATM    1  C1  LIG X 999      44.654 122.761  21.542  1.00  0.00     0.014 C 
HETATM    2  C2  LIG X 999      45.768 123.217  21.596  1.00  0.00    -0.091 C 
HETATM    3  C3  LIG X 999      47.122 123.770  21.660  1.00  0.00     0.268 C 
ENDROOT
BRANCH   3   4
HETATM    4  O1  LIG X 999      48.066 122.718  21.487  1.00  0.00    -0.339 OA
BRANCH   4   5
HETATM    5  C4  LIG X 999      49.433 122.897  21.212  1.00  0.00     0.083 C 
HETATM    6  C5  LIG X 999      49.868 123.104  19.875  1.00  0.00     0.038 C 
HETATM    7  C6  LIG X 999      51.063 123.726  19.468  1.00  0.00     0.003 C 
HETATM    8  C7  LIG X 999      51.858 124.557  20.263  1.00  0.00     0.002 C 
HETATM    9  C8  LIG X 999      51.350 125.331  21.312  1.00  0.00     0.020 C 
HETATM   10  C9  LIG X 999      52.016 125.456  22.540  1.00  0.00     0.016 C 
HETATM   11  C10 LIG X 999      51.784 126.642  23.323  1.00  0.00    -0.078 C 
HETATM   12  C12 LIG X 999      52.826 124.441  23.091  1.00  0.00     0.020 C 
HETATM   13  C11 LIG X 999      51.589 127.633  23.980  1.00  0.00     0.018 C 
HETATM   14  C13 LIG X 999      52.755 123.070  22.768  1.00  0.00     0.002 C 
HETATM   15  C14 LIG X 999      51.650 122.434  22.174  1.00  0.00     0.017 C 
HETATM   16  C15 LIG X 999      50.316 122.868  22.314  1.00  0.00     0.035 C 
BRANCH  16  17
HETATM   17  C16 LIG X 999      49.797 123.249  23.649  1.00  0.00     0.272 C 
HETATM   18  O2  LIG X 999      49.433 122.376  24.483  1.00  0.00    -0.301 OA
ENDBRANCH  16  17
ENDBRANCH   4   5
ENDBRANCH   3   4
TORSDOF 3
