MODEL 1
REMARK VINA RESULT:      -5.2      0.000      0.000
REMARK  3 active torsions:
REMARK  status: ('A' for Active; 'I' for Inactive)
REMARK    1  A    between atoms: N2_3  and  N3_4 
REMARK    2  A    between atoms: C1_5  and  C2_6 
REMARK    3  A    between atoms: C3_8  and  C4_9 
REMARK       I    between atoms: N4_19  and  C14_20 
ROOT
HETATM    1  C2  LIG X 999      44.339 128.519  23.722  1.00  0.00     0.259 C 
HETATM    2  O1  LIG X 999      43.165 127.727  23.740  1.00  0.00    -0.335 OA
HETATM    3  C3  LIG X 999      43.573 126.428  24.094  1.00  0.00     0.280 C 
HETATM    4  N4  LIG X 999      45.009 126.402  23.933  1.00  0.00    -0.247 N 
HETATM    5  C14 LIG X 999      45.844 125.254  24.158  1.00  0.00     0.232 C 
HETATM    6  O2  LIG X 999      45.348 124.192  24.623  1.00  0.00    -0.272 OA
HETATM    7  C15 LIG X 999      47.313 125.313  23.878  1.00  0.00     0.119 C 
HETATM    8  N5  LIG X 999      45.519 127.657  23.617  1.00  0.00    -0.199 NA
HETATM    9  H15 LIG X 999      46.190 127.927  24.374  1.00  0.00     0.150 HD
ENDROOT
BRANCH   3  10
HETATM   10  C4  LIG X 999      42.905 125.409  23.178  1.00  0.00     0.003 A 
HETATM   11  C5  LIG X 999      43.656 124.939  22.083  1.00  0.00     0.012 A 
HETATM   12  C6  LIG X 999      43.123 124.026  21.178  1.00  0.00     0.002 A 
HETATM   13  C7  LIG X 999      41.829 123.547  21.346  1.00  0.00     0.012 A 
HETATM   14  C8  LIG X 999      41.057 123.965  22.436  1.00  0.00    -0.025 A 
HETATM   15  C9  LIG X 999      39.759 123.453  22.596  1.00  0.00     0.012 A 
HETATM   16  C13 LIG X 999      41.586 124.895  23.379  1.00  0.00    -0.015 A 
HETATM   17  C10 LIG X 999      38.979 123.838  23.684  1.00  0.00     0.001 A 
HETATM   18  C11 LIG X 999      39.487 124.730  24.625  1.00  0.00     0.001 A 
HETATM   19  C12 LIG X 999      40.775 125.254  24.482  1.00  0.00     0.013 A 
ENDBRANCH   3  10
BRANCH   1  20
HETATM   20  C1  LIG X 999      44.298 129.474  22.571  1.00  0.00     0.164 C 
HETATM   21  N3  LIG X 999      43.401 130.405  22.522  1.00  0.00    -0.143 NA
BRANCH  21  22
HETATM   22  N2  LIG X 999      43.359 131.300  21.447  1.00  0.00    -0.052 NA
HETATM   23  N1  LIG X 999      42.382 132.102  21.328  1.00  0.00    -0.184 NA
HETATM   24  H1  LIG X 999      42.349 132.769  20.526  1.00  0.00     0.214 HD
ENDBRANCH  21  22
ENDBRANCH   1  20
TORSDOF 3
ENDMDL
MODEL 2
REMARK VINA RESULT:      -5.0      3.571      4.610
REMARK  3 active torsions:
REMARK  status: ('A' for Active; 'I' for Inactive)
REMARK    1  A    between atoms: N2_3  and  N3_4 
REMARK    2  A    between atoms: C1_5  and  C2_6 
REMARK    3  A    between atoms: C3_8  and  C4_9 
REMARK       I    between atoms: N4_19  and  C14_20 
ROOT
HETATM    1  C2  LIG X 999      45.460 123.675  23.846  1.00  0.00     0.259 C 
HETATM    2  O1  LIG X 999      44.338 124.066  24.617  1.00  0.00    -0.335 OA
HETATM    3  C3  LIG X 999      43.208 123.560  23.950  1.00  0.00     0.280 C 
HETATM    4  N4  LIG X 999      43.656 123.189  22.627  1.00  0.00    -0.247 N 
HETATM    5  C14 LIG X 999      42.817 122.651  21.592  1.00  0.00     0.232 C 
HETATM    6  O2  LIG X 999      41.611 122.375  21.835  1.00  0.00    -0.272 OA
HETATM    7  C15 LIG X 999      43.368 122.381  20.228  1.00  0.00     0.119 C 
HETATM    8  N5  LIG X 999      45.034 123.326  22.489  1.00  0.00    -0.199 NA
HETATM    9  H15 LIG X 999      45.425 122.383  22.255  1.00  0.00     0.150 HD
ENDROOT
BRANCH   3  10
HETATM   10  C4  LIG X 999      42.128 124.633  23.877  1.00  0.00     0.003 A 
HETATM   11  C5  LIG X 999      42.539 125.937  23.537  1.00  0.00     0.012 A 
HETATM   12  C6  LIG X 999      41.630 126.988  23.467  1.00  0.00     0.002 A 
HETATM   13  C7  LIG X 999      40.283 126.768  23.725  1.00  0.00     0.012 A 
HETATM   14  C8  LIG X 999      39.825 125.482  24.040  1.00  0.00    -0.025 A 
HETATM   15  C9  LIG X 999      38.456 125.279  24.278  1.00  0.00     0.012 A 
HETATM   16  C13 LIG X 999      40.739 124.390  24.109  1.00  0.00    -0.015 A 
HETATM   17  C10 LIG X 999      37.974 124.006  24.572  1.00  0.00     0.001 A 
HETATM   18  C11 LIG X 999      38.849 122.924  24.625  1.00  0.00     0.001 A 
HETATM   19  C12 LIG X 999      40.215 123.106  24.395  1.00  0.00     0.013 A 
ENDBRANCH   3  10
BRANCH   1  20
HETATM   20  C1  LIG X 999      46.464 124.783  23.800  1.00  0.00     0.164 C 
HETATM   21  N3  LIG X 999      47.590 124.625  23.181  1.00  0.00    -0.143 NA
BRANCH  21  22
HETATM   22  N2  LIG X 999      48.531 125.659  23.136  1.00  0.00    -0.052 NA
HETATM   23  N1  LIG X 999      49.420 125.668  22.229  1.00  0.00    -0.184 NA
HETATM   24  H1  LIG X 999      50.122 126.439  22.195  1.00  0.00     0.214 HD
ENDBRANCH  21  22
ENDBRANCH   1  20
TORSDOF 3
ENDMDL
MODEL 3
REMARK VINA RESULT:      -4.9      2.761      6.416
REMARK  3 active torsions:
REMARK  status: ('A' for Active; 'I' for Inactive)
REMARK    1  A    between atoms: N2_3  and  N3_4 
REMARK    2  A    between atoms: C1_5  and  C2_6 
REMARK    3  A    between atoms: C3_8  and  C4_9 
REMARK       I    between atoms: N4_19  and  C14_20 
ROOT
HETATM    1  C2  LIG X 999      45.299 126.590  24.212  1.00  0.00     0.259 C 
HETATM    2  O1  LIG X 999      45.233 127.972  24.518  1.00  0.00    -0.335 OA
HETATM    3  C3  LIG X 999      43.866 128.286  24.625  1.00  0.00     0.280 C 
HETATM    4  N4  LIG X 999      43.153 127.175  24.038  1.00  0.00    -0.247 N 
HETATM    5  C14 LIG X 999      41.724 127.088  23.907  1.00  0.00     0.232 C 
HETATM    6  O2  LIG X 999      40.987 127.978  24.411  1.00  0.00    -0.272 OA
HETATM    7  C15 LIG X 999      41.093 125.927  23.205  1.00  0.00     0.119 C 
HETATM    8  N5  LIG X 999      44.009 126.136  23.687  1.00  0.00    -0.199 NA
HETATM    9  H15 LIG X 999      43.716 125.287  24.227  1.00  0.00     0.150 HD
ENDROOT
BRANCH   3  10
HETATM   10  C4  LIG X 999      43.573 129.578  23.872  1.00  0.00     0.003 A 
HETATM   11  C5  LIG X 999      42.666 130.477  24.467  1.00  0.00     0.012 A 
HETATM   12  C6  LIG X 999      42.318 131.672  23.845  1.00  0.00     0.002 A 
HETATM   13  C7  LIG X 999      42.872 132.010  22.616  1.00  0.00     0.012 A 
HETATM   14  C8  LIG X 999      43.799 131.160  22.001  1.00  0.00    -0.025 A 
HETATM   15  C9  LIG X 999      44.361 131.531  20.769  1.00  0.00     0.012 A 
HETATM   16  C13 LIG X 999      44.175 129.934  22.625  1.00  0.00    -0.015 A 
HETATM   17  C10 LIG X 999      45.301 130.712  20.149  1.00  0.00     0.001 A 
HETATM   18  C11 LIG X 999      45.694 129.521  20.753  1.00  0.00     0.001 A 
HETATM   19  C12 LIG X 999      45.145 129.132  21.977  1.00  0.00     0.013 A 
ENDBRANCH   3  10
BRANCH   1  20
HETATM   20  C1  LIG X 999      46.379 126.336  23.210  1.00  0.00     0.164 C 
HETATM   21  N3  LIG X 999      46.471 125.188  22.618  1.00  0.00    -0.143 NA
BRANCH  21  22
HETATM   22  N2  LIG X 999      47.480 124.946  21.680  1.00  0.00    -0.052 NA
HETATM   23  N1  LIG X 999      48.678 125.275  21.940  1.00  0.00    -0.184 NA
HETATM   24  H1  LIG X 999      49.432 125.096  21.241  1.00  0.00     0.214 HD
ENDBRANCH  21  22
ENDBRANCH   1  20
TORSDOF 3
ENDMDL
MODEL 4
REMARK VINA RESULT:      -4.8      2.834      5.968
REMARK  3 active torsions:
REMARK  status: ('A' for Active; 'I' for Inactive)
REMARK    1  A    between atoms: N2_3  and  N3_4 
REMARK    2  A    between atoms: C1_5  and  C2_6 
REMARK    3  A    between atoms: C3_8  and  C4_9 
REMARK       I    between atoms: N4_19  and  C14_20 
ROOT
HETATM    1  C2  LIG X 999      46.365 125.256  24.242  1.00  0.00     0.259 C 
HETATM    2  O1  LIG X 999      46.326 126.670  24.312  1.00  0.00    -0.335 OA
HETATM    3  C3  LIG X 999      44.988 127.038  24.080  1.00  0.00     0.280 C 
HETATM    4  N4  LIG X 999      44.340 125.867  23.534  1.00  0.00    -0.247 N 
HETATM    5  C14 LIG X 999      42.965 125.802  23.120  1.00  0.00     0.232 C 
HETATM    6  O2  LIG X 999      42.199 126.784  23.316  1.00  0.00    -0.272 OA
HETATM    7  C15 LIG X 999      42.417 124.562  22.487  1.00  0.00     0.119 C 
HETATM    8  N5  LIG X 999      45.183 124.760  23.534  1.00  0.00    -0.199 NA
HETATM    9  H15 LIG X 999      44.734 124.020  24.124  1.00  0.00     0.150 HD
ENDROOT
BRANCH   3  10
HETATM   10  C4  LIG X 999      44.935 128.198  23.094  1.00  0.00     0.003 A 
HETATM   11  C5  LIG X 999      45.652 128.053  21.890  1.00  0.00     0.012 A 
HETATM   12  C6  LIG X 999      45.683 129.067  20.938  1.00  0.00     0.002 A 
HETATM   13  C7  LIG X 999      44.991 130.252  21.154  1.00  0.00     0.012 A 
HETATM   14  C8  LIG X 999      44.242 130.430  22.324  1.00  0.00    -0.025 A 
HETATM   15  C9  LIG X 999      43.535 131.628  22.513  1.00  0.00     0.012 A 
HETATM   16  C13 LIG X 999      44.191 129.400  23.309  1.00  0.00    -0.015 A 
HETATM   17  C10 LIG X 999      42.766 131.819  23.658  1.00  0.00     0.001 A 
HETATM   18  C11 LIG X 999      42.689 130.817  24.622  1.00  0.00     0.001 A 
HETATM   19  C12 LIG X 999      43.388 129.619  24.454  1.00  0.00     0.013 A 
ENDBRANCH   3  10
BRANCH   1  20
HETATM   20  C1  LIG X 999      47.608 124.810  23.540  1.00  0.00     0.164 C 
HETATM   21  N3  LIG X 999      47.664 124.792  22.247  1.00  0.00    -0.143 NA
BRANCH  21  22
HETATM   22  N2  LIG X 999      48.824 124.376  21.588  1.00  0.00    -0.052 NA
HETATM   23  N1  LIG X 999      49.877 125.083  21.649  1.00  0.00    -0.184 NA
HETATM   24  H1  LIG X 999      50.743 124.773  21.157  1.00  0.00     0.214 HD
ENDBRANCH  21  22
ENDBRANCH   1  20
TORSDOF 3
ENDMDL
MODEL 5
REMARK VINA RESULT:      -4.8      4.380      7.373
REMARK  3 active torsions:
REMARK  status: ('A' for Active; 'I' for Inactive)
REMARK    1  A    between atoms: N2_3  and  N3_4 
REMARK    2  A    between atoms: C1_5  and  C2_6 
REMARK    3  A    between atoms: C3_8  and  C4_9 
REMARK       I    between atoms: N4_19  and  C14_20 
ROOT
HETATM    1  C2  LIG X 999      43.256 129.342  23.893  1.00  0.00     0.259 C 
HETATM    2  O1  LIG X 999      43.433 129.290  22.489  1.00  0.00    -0.335 OA
HETATM    3  C3  LIG X 999      44.269 130.372  22.158  1.00  0.00     0.280 C 
HETATM    4  N4  LIG X 999      44.280 131.238  23.316  1.00  0.00    -0.247 N 
HETATM    5  C14 LIG X 999      44.988 132.485  23.407  1.00  0.00     0.232 C 
HETATM    6  O2  LIG X 999      45.747 132.852  22.469  1.00  0.00    -0.272 OA
HETATM    7  C15 LIG X 999      44.861 133.346  24.624  1.00  0.00     0.119 C 
HETATM    8  N5  LIG X 999      43.591 130.679  24.388  1.00  0.00    -0.199 NA
HETATM    9  H15 LIG X 999      44.267 130.575  25.180  1.00  0.00     0.150 HD
ENDROOT
BRANCH   3  10
HETATM   10  C4  LIG X 999      43.714 131.101  20.940  1.00  0.00     0.003 A 
HETATM   11  C5  LIG X 999      42.552 131.875  21.128  1.00  0.00     0.012 A 
HETATM   12  C6  LIG X 999      41.958 132.558  20.071  1.00  0.00     0.002 A 
HETATM   13  C7  LIG X 999      42.511 132.496  18.798  1.00  0.00     0.012 A 
HETATM   14  C8  LIG X 999      43.681 131.761  18.571  1.00  0.00    -0.025 A 
HETATM   15  C9  LIG X 999      44.234 131.729  17.280  1.00  0.00     0.012 A 
HETATM   16  C13 LIG X 999      44.310 131.061  19.641  1.00  0.00    -0.015 A 
HETATM   17  C10 LIG X 999      45.408 131.022  17.034  1.00  0.00     0.001 A 
HETATM   18  C11 LIG X 999      46.046 130.348  18.072  1.00  0.00     0.001 A 
HETATM   19  C12 LIG X 999      45.511 130.365  19.362  1.00  0.00     0.013 A 
ENDBRANCH   3  10
BRANCH   1  20
HETATM   20  C1  LIG X 999      41.842 129.004  24.246  1.00  0.00     0.164 C 
HETATM   21  N3  LIG X 999      41.253 127.987  23.703  1.00  0.00    -0.143 NA
BRANCH  21  22
HETATM   22  N2  LIG X 999      39.931 127.668  24.031  1.00  0.00    -0.052 NA
HETATM   23  N1  LIG X 999      39.109 127.356  23.115  1.00  0.00    -0.184 NA
HETATM   24  H1  LIG X 999      38.123 127.119  23.359  1.00  0.00     0.214 HD
ENDBRANCH  21  22
ENDBRANCH   1  20
TORSDOF 3
ENDMDL
MODEL 6
REMARK VINA RESULT:      -4.6      4.072      7.495
REMARK  3 active torsions:
REMARK  status: ('A' for Active; 'I' for Inactive)
REMARK    1  A    between atoms: N2_3  and  N3_4 
REMARK    2  A    between atoms: C1_5  and  C2_6 
REMARK    3  A    between atoms: C3_8  and  C4_9 
REMARK       I    between atoms: N4_19  and  C14_20 
ROOT
HETATM    1  C2  LIG X 999      45.365 128.540  22.359  1.00  0.00     0.259 C 
HETATM    2  O1  LIG X 999      45.539 129.371  21.226  1.00  0.00    -0.335 OA
HETATM    3  C3  LIG X 999      45.002 130.624  21.573  1.00  0.00     0.280 C 
HETATM    4  N4  LIG X 999      44.212 130.406  22.763  1.00  0.00    -0.247 N 
HETATM    5  C14 LIG X 999      43.455 131.417  23.448  1.00  0.00     0.232 C 
HETATM    6  O2  LIG X 999      43.527 132.621  23.079  1.00  0.00    -0.272 OA
HETATM    7  C15 LIG X 999      42.601 131.064  24.625  1.00  0.00     0.119 C 
HETATM    8  N5  LIG X 999      44.338 129.104  23.237  1.00  0.00    -0.199 NA
HETATM    9  H15 LIG X 999      44.729 129.156  24.208  1.00  0.00     0.150 HD
ENDROOT
BRANCH   3  10
HETATM   10  C4  LIG X 999      44.135 131.147  20.433  1.00  0.00     0.003 A 
HETATM   11  C5  LIG X 999      42.891 131.712  20.779  1.00  0.00     0.012 A 
HETATM   12  C6  LIG X 999      42.021 132.195  19.807  1.00  0.00     0.002 A 
HETATM   13  C7  LIG X 999      42.370 132.139  18.463  1.00  0.00     0.012 A 
HETATM   14  C8  LIG X 999      43.608 131.612  18.076  1.00  0.00    -0.025 A 
HETATM   15  C9  LIG X 999      43.947 131.583  16.714  1.00  0.00     0.012 A 
HETATM   16  C13 LIG X 999      44.518 131.118  19.056  1.00  0.00    -0.015 A 
HETATM   17  C10 LIG X 999      45.181 131.083  16.306  1.00  0.00     0.001 A 
HETATM   18  C11 LIG X 999      46.090 130.614  17.251  1.00  0.00     0.001 A 
HETATM   19  C12 LIG X 999      45.770 130.631  18.611  1.00  0.00     0.013 A 
ENDBRANCH   3  10
BRANCH   1  20
HETATM   20  C1  LIG X 999      44.972 127.161  21.930  1.00  0.00     0.164 C 
HETATM   21  N3  LIG X 999      44.331 126.378  22.737  1.00  0.00    -0.143 NA
BRANCH  21  22
HETATM   22  N2  LIG X 999      43.963 125.089  22.339  1.00  0.00    -0.052 NA
HETATM   23  N1  LIG X 999      42.743 124.821  22.110  1.00  0.00    -0.184 NA
HETATM   24  H1  LIG X 999      42.467 123.860  21.813  1.00  0.00     0.214 HD
ENDBRANCH  21  22
ENDBRANCH   1  20
TORSDOF 3
ENDMDL
MODEL 7
REMARK VINA RESULT:      -4.6      3.837      5.605
REMARK  3 active torsions:
REMARK  status: ('A' for Active; 'I' for Inactive)
REMARK    1  A    between atoms: N2_3  and  N3_4 
REMARK    2  A    between atoms: C1_5  and  C2_6 
REMARK    3  A    between atoms: C3_8  and  C4_9 
REMARK       I    between atoms: N4_19  and  C14_20 
ROOT
HETATM    1  C2  LIG X 999      46.507 122.690  23.467  1.00  0.00     0.259 C 
HETATM    2  O1  LIG X 999      46.130 123.911  24.078  1.00  0.00    -0.335 OA
HETATM    3  C3  LIG X 999      44.822 124.183  23.636  1.00  0.00     0.280 C 
HETATM    4  N4  LIG X 999      44.590 123.308  22.510  1.00  0.00    -0.247 N 
HETATM    5  C14 LIG X 999      43.384 123.272  21.729  1.00  0.00     0.232 C 
HETATM    6  O2  LIG X 999      42.389 123.968  22.068  1.00  0.00    -0.272 OA
HETATM    7  C15 LIG X 999      43.281 122.386  20.527  1.00  0.00     0.119 C 
HETATM    8  N5  LIG X 999      45.645 122.423  22.313  1.00  0.00    -0.199 NA
HETATM    9  H15 LIG X 999      45.265 121.452  22.405  1.00  0.00     0.150 HD
ENDROOT
BRANCH   3  10
HETATM   10  C4  LIG X 999      44.711 125.645  23.221  1.00  0.00     0.003 A 
HETATM   11  C5  LIG X 999      45.751 126.170  22.430  1.00  0.00     0.012 A 
HETATM   12  C6  LIG X 999      45.750 127.500  22.021  1.00  0.00     0.002 A 
HETATM   13  C7  LIG X 999      44.706 128.343  22.381  1.00  0.00     0.012 A 
HETATM   14  C8  LIG X 999      43.637 127.857  23.144  1.00  0.00    -0.025 A 
HETATM   15  C9  LIG X 999      42.582 128.722  23.480  1.00  0.00     0.012 A 
HETATM   16  C13 LIG X 999      43.615 126.496  23.567  1.00  0.00    -0.015 A 
HETATM   17  C10 LIG X 999      41.499 128.256  24.220  1.00  0.00     0.001 A 
HETATM   18  C11 LIG X 999      41.451 126.925  24.625  1.00  0.00     0.001 A 
HETATM   19  C12 LIG X 999      42.491 126.050  24.304  1.00  0.00     0.013 A 
ENDBRANCH   3  10
BRANCH   1  20
HETATM   20  C1  LIG X 999      47.938 122.750  23.036  1.00  0.00     0.164 C 
HETATM   21  N3  LIG X 999      48.281 123.429  21.988  1.00  0.00    -0.143 NA
BRANCH  21  22
HETATM   22  N2  LIG X 999      49.618 123.488  21.582  1.00  0.00    -0.052 NA
HETATM   23  N1  LIG X 999      50.019 124.451  20.858  1.00  0.00    -0.184 NA
HETATM   24  H1  LIG X 999      51.016 124.495  20.554  1.00  0.00     0.214 HD
ENDBRANCH  21  22
ENDBRANCH   1  20
TORSDOF 3
ENDMDL
MODEL 8
REMARK VINA RESULT:      -4.0      3.087      6.011
REMARK  3 active torsions:
REMARK  status: ('A' for Active; 'I' for Inactive)
REMARK    1  A    between atoms: N2_3  and  N3_4 
REMARK    2  A    between atoms: C1_5  and  C2_6 
REMARK    3  A    between atoms: C3_8  and  C4_9 
REMARK       I    between atoms: N4_19  and  C14_20 
ROOT
HETATM    1  C2  LIG X 999      45.202 124.252  23.788  1.00  0.00     0.259 C 
HETATM    2  O1  LIG X 999      44.894 125.439  24.497  1.00  0.00    -0.335 OA
HETATM    3  C3  LIG X 999      43.517 125.661  24.311  1.00  0.00     0.280 C 
HETATM    4  N4  LIG X 999      43.118 124.805  23.217  1.00  0.00    -0.247 N 
HETATM    5  C14 LIG X 999      41.791 124.733  22.668  1.00  0.00     0.232 C 
HETATM    6  O2  LIG X 999      40.848 125.374  23.206  1.00  0.00    -0.272 OA
HETATM    7  C15 LIG X 999      41.505 123.874  21.477  1.00  0.00     0.119 C 
HETATM    8  N5  LIG X 999      44.154 123.975  22.802  1.00  0.00    -0.199 NA
HETATM    9  H15 LIG X 999      43.837 122.985  22.930  1.00  0.00     0.150 HD
ENDROOT
BRANCH   3  10
HETATM   10  C4  LIG X 999      43.272 127.127  23.972  1.00  0.00     0.003 A 
HETATM   11  C5  LIG X 999      42.202 127.768  24.625  1.00  0.00     0.012 A 
HETATM   12  C6  LIG X 999      41.886 129.097  24.364  1.00  0.00     0.002 A 
HETATM   13  C7  LIG X 999      42.635 129.830  23.451  1.00  0.00     0.012 A 
HETATM   14  C8  LIG X 999      43.726 129.242  22.799  1.00  0.00    -0.025 A 
HETATM   15  C9  LIG X 999      44.481 130.006  21.895  1.00  0.00     0.012 A 
HETATM   16  C13 LIG X 999      44.071 127.883  23.058  1.00  0.00    -0.015 A 
HETATM   17  C10 LIG X 999      45.582 129.449  21.251  1.00  0.00     0.001 A 
HETATM   18  C11 LIG X 999      45.946 128.130  21.506  1.00  0.00     0.001 A 
HETATM   19  C12 LIG X 999      45.206 127.351  22.399  1.00  0.00     0.013 A 
ENDBRANCH   3  10
BRANCH   1  20
HETATM   20  C1  LIG X 999      46.525 124.389  23.104  1.00  0.00     0.164 C 
HETATM   21  N3  LIG X 999      46.720 123.867  21.936  1.00  0.00    -0.143 NA
BRANCH  21  22
HETATM   22  N2  LIG X 999      47.956 123.993  21.294  1.00  0.00    -0.052 NA
HETATM   23  N1  LIG X 999      48.136 123.462  20.155  1.00  0.00    -0.184 NA
HETATM   24  H1  LIG X 999      49.058 123.555  19.676  1.00  0.00     0.214 HD
ENDBRANCH  21  22
ENDBRANCH   1  20
TORSDOF 3
ENDMDL
MODEL 9
REMARK VINA RESULT:      -3.9      3.679      5.742
REMARK  3 active torsions:
REMARK  status: ('A' for Active; 'I' for Inactive)
REMARK    1  A    between atoms: N2_3  and  N3_4 
REMARK    2  A    between atoms: C1_5  and  C2_6 
REMARK    3  A    between atoms: C3_8  and  C4_9 
REMARK       I    between atoms: N4_19  and  C14_20 
ROOT
HETATM    1  C2  LIG X 999      44.504 131.485  20.261  1.00  0.00     0.259 C 
HETATM    2  O1  LIG X 999      43.418 130.665  20.656  1.00  0.00    -0.335 OA
HETATM    3  C3  LIG X 999      43.139 131.003  21.993  1.00  0.00     0.280 C 
HETATM    4  N4  LIG X 999      44.281 131.752  22.464  1.00  0.00    -0.247 N 
HETATM    5  C14 LIG X 999      44.434 132.273  23.795  1.00  0.00     0.232 C 
HETATM    6  O2  LIG X 999      43.490 132.176  24.625  1.00  0.00    -0.272 OA
HETATM    7  C15 LIG X 999      45.698 132.962  24.202  1.00  0.00     0.119 C 
HETATM    8  N5  LIG X 999      45.195 132.000  21.445  1.00  0.00    -0.199 NA
HETATM    9  H15 LIG X 999      45.285 133.039  21.345  1.00  0.00     0.150 HD
ENDROOT
BRANCH   3  10
HETATM   10  C4  LIG X 999      42.945 129.734  22.816  1.00  0.00     0.003 A 
HETATM   11  C5  LIG X 999      41.779 129.650  23.603  1.00  0.00     0.012 A 
HETATM   12  C6  LIG X 999      41.526 128.542  24.405  1.00  0.00     0.002 A 
HETATM   13  C7  LIG X 999      42.422 127.480  24.437  1.00  0.00     0.012 A 
HETATM   14  C8  LIG X 999      43.579 127.508  23.650  1.00  0.00    -0.025 A 
HETATM   15  C9  LIG X 999      44.461 126.416  23.684  1.00  0.00     0.012 A 
HETATM   16  C13 LIG X 999      43.855 128.631  22.815  1.00  0.00    -0.015 A 
HETATM   17  C10 LIG X 999      45.608 126.412  22.894  1.00  0.00     0.001 A 
HETATM   18  C11 LIG X 999      45.883 127.492  22.058  1.00  0.00     0.001 A 
HETATM   19  C12 LIG X 999      45.020 128.590  22.013  1.00  0.00     0.013 A 
ENDBRANCH   3  10
BRANCH   1  20
HETATM   20  C1  LIG X 999      45.455 130.703  19.412  1.00  0.00     0.164 C 
HETATM   21  N3  LIG X 999      45.319 130.675  18.125  1.00  0.00    -0.143 NA
BRANCH  21  22
HETATM   22  N2  LIG X 999      46.206 129.945  17.328  1.00  0.00    -0.052 NA
HETATM   23  N1  LIG X 999      45.763 129.227  16.379  1.00  0.00    -0.184 NA
HETATM   24  H1  LIG X 999      46.424 128.682  15.785  1.00  0.00     0.214 HD
ENDBRANCH  21  22
ENDBRANCH   1  20
TORSDOF 3
ENDMDL
