REMARK VINA RESULT:      -7.6      1.358      2.523
REMARK  1 active torsions:
REMARK  status: ('A' for Active; 'I' for Inactive)
REMARK    1  A    between atoms: C12_13  and  N2_14 
ROOT
HETATM    1  C1  LIG X 999      45.557 129.642  14.766  1.00  0.00     0.272 C 
HETATM    2  N1  LIG X 999      45.554 130.807  15.679  1.00  0.00    -0.067 N 
HETATM    3  C2  LIG X 999      46.378 131.887  15.085  1.00  0.00     0.272 C 
HETATM    4  C3  LIG X 999      44.159 131.295  15.911  1.00  0.00     0.276 C 
HETATM    5  C4  LIG X 999      44.023 131.429  17.377  1.00  0.00    -0.021 A 
HETATM    6  C5  LIG X 999      42.945 131.961  18.075  1.00  0.00     0.022 A 
HETATM    7  C6  LIG X 999      42.991 131.982  19.479  1.00  0.00    -0.023 A 
HETATM    8  C7  LIG X 999      41.910 132.511  20.201  1.00  0.00     0.012 A 
HETATM    9  C8  LIG X 999      41.932 132.521  21.595  1.00  0.00     0.001 A 
HETATM   10  C9  LIG X 999      43.027 132.000  22.283  1.00  0.00     0.001 A 
HETATM   11  C10 LIG X 999      44.114 131.468  21.583  1.00  0.00     0.014 A 
HETATM   12  C11 LIG X 999      44.127 131.458  20.172  1.00  0.00     0.001 A 
HETATM   13  C12 LIG X 999      45.219 130.928  19.419  1.00  0.00     0.045 A 
HETATM   14  C13 LIG X 999      45.116 130.932  18.017  1.00  0.00     0.003 A 
HETATM   15  C14 LIG X 999      46.098 130.428  17.022  1.00  0.00     0.278 C 
ENDROOT
BRANCH  13  16
HETATM   16  N2  LIG X 999      46.407 130.406  20.038  1.00  0.00    -0.398 N 
HETATM   17  H14 LIG X 999      47.352 130.655  19.672  1.00  0.00     0.156 HD
HETATM   18  H15 LIG X 999      46.389 129.835  20.908  1.00  0.00     0.156 HD
ENDBRANCH  13  16
TORSDOF 1
