REMARK VINA RESULT:      -5.4      3.162      6.899
REMARK  6 active torsions:
REMARK  status: ('A' for Active; 'I' for Inactive)
REMARK    1  A    between atoms: C6_6  and  N1_7 
REMARK       I    between atoms: N1_7  and  C7_8 
REMARK    2  A    between atoms: C7_8  and  O2_10 
REMARK    3  A    between atoms: O2_10  and  C8_11 
REMARK    4  A    between atoms: C8_11  and  C10_13 
REMARK    5  A    between atoms: C10_13  and  O3_14 
REMARK    6  A    between atoms: C12_16  and  N2_17 
ROOT
HETATM    1  N2  LIG X 999      45.709 131.454  20.869  1.00  0.00    -0.070 NA
HETATM    2  N3  LIG X 999      46.476 132.334  21.262  1.00  0.00    -0.162 NA
HETATM    3  N4  LIG X 999      47.243 133.212  21.656  1.00  0.00     0.068 N 
ENDROOT
BRANCH   1   4
HETATM    4  C12 LIG X 999      45.223 131.402  19.518  1.00  0.00     0.122 A 
HETATM    5  C6  LIG X 999      43.927 131.870  19.243  1.00  0.00     0.095 A 
HETATM    6  C5  LIG X 999      43.422 131.798  17.932  1.00  0.00     0.046 A 
HETATM    7  C4  LIG X 999      44.219 131.305  16.888  1.00  0.00    -0.024 A 
HETATM    8  C3  LIG X 999      43.723 131.245  15.577  1.00  0.00     0.012 A 
HETATM    9  C14 LIG X 999      45.533 130.859  17.161  1.00  0.00    -0.024 A 
HETATM   10  C2  LIG X 999      44.526 130.752  14.544  1.00  0.00     0.001 A 
HETATM   11  C1  LIG X 999      45.825 130.313  14.813  1.00  0.00     0.001 A 
HETATM   12  C15 LIG X 999      46.330 130.364  16.116  1.00  0.00     0.012 A 
HETATM   13  C13 LIG X 999      46.024 130.905  18.473  1.00  0.00     0.049 A 
BRANCH   5  14
HETATM   14  N1  LIG X 999      43.120 132.363  20.325  1.00  0.00    -0.185 NA
HETATM   15  C7  LIG X 999      42.881 131.689  21.564  1.00  0.00     0.387 C 
HETATM   16  O1  LIG X 999      42.363 132.328  22.518  1.00  0.00    -0.236 OA
BRANCH  15  17
HETATM   17  O2  LIG X 999      43.181 130.328  21.699  1.00  0.00    -0.295 OA
BRANCH  17  18
HETATM   18  C8  LIG X 999      43.465 129.698  22.949  1.00  0.00     0.153 C 
HETATM   19  C9  LIG X 999      42.207 129.003  23.482  1.00  0.00     0.042 C 
BRANCH  18  20
HETATM   20  C10 LIG X 999      44.603 128.693  22.740  1.00  0.00     0.199 C 
BRANCH  20  21
HETATM   21  O3  LIG X 999      45.030 128.189  23.989  1.00  0.00    -0.393 OA
HETATM   22  C11 LIG X 999      45.419 126.843  23.841  1.00  0.00     0.201 C 
ENDBRANCH  20  21
ENDBRANCH  18  20
ENDBRANCH  17  18
ENDBRANCH  15  17
ENDBRANCH   5  14
ENDBRANCH   1   4
TORSDOF 6
