REMARK VINA RESULT:      -8.4      0.732      1.965
REMARK  3 active torsions:
REMARK  status: ('A' for Active; 'I' for Inactive)
REMARK    1  A    between atoms: O1_2  and  C1_3 
REMARK    2  A    between atoms: C1_3  and  C3_8 
REMARK    3  A    between atoms: C2_4  and  N1_5 
ROOT
HETATM    1  N1  LIG X 999      46.642 130.999  13.539  1.00  0.00    -0.082 NA
HETATM    2  N2  LIG X 999      47.603 130.236  13.438  1.00  0.00    -0.163 NA
HETATM    3  N3  LIG X 999      48.563 129.475  13.337  1.00  0.00     0.068 N 
ENDROOT
BRANCH   1   4
HETATM    4  C2  LIG X 999      46.134 131.362  14.822  1.00  0.00     0.193 C 
HETATM    5  C1  LIG X 999      45.736 130.426  15.700  1.00  0.00     0.096 C 
BRANCH   5   6
HETATM    6  O1  LIG X 999      45.840 129.068  15.384  1.00  0.00    -0.358 OA
HETATM    7  H1  LIG X 999      46.641 128.502  15.634  1.00  0.00     0.217 HD
ENDBRANCH   5   6
BRANCH   5   8
HETATM    8  C3  LIG X 999      45.197 130.794  17.035  1.00  0.00    -0.001 A 
HETATM    9  C4  LIG X 999      45.941 130.479  18.185  1.00  0.00     0.015 A 
HETATM   10  C5  LIG X 999      45.461 130.800  19.457  1.00  0.00     0.013 A 
HETATM   11  C6  LIG X 999      44.220 131.434  19.604  1.00  0.00    -0.026 A 
HETATM   12  C7  LIG X 999      43.730 131.760  20.878  1.00  0.00     0.012 A 
HETATM   13  C11 LIG X 999      43.452 131.743  18.457  1.00  0.00    -0.025 A 
HETATM   14  C8  LIG X 999      42.487 132.385  21.012  1.00  0.00     0.001 A 
HETATM   15  C9  LIG X 999      41.727 132.688  19.880  1.00  0.00     0.001 A 
HETATM   16  C10 LIG X 999      42.205 132.369  18.605  1.00  0.00     0.012 A 
HETATM   17  C12 LIG X 999      43.942 131.418  17.182  1.00  0.00     0.026 A 
ENDBRANCH   5   8
ENDBRANCH   1   4
TORSDOF 3
