REMARK VINA RESULT:      -5.4      3.073      4.681
REMARK  2 active torsions:
REMARK  status: ('A' for Active; 'I' for Inactive)
REMARK    1  A    between atoms: N1_1  and  C1_2 
REMARK    2  A    between atoms: C2_5  and  C3_6 
ROOT
HETATM    1  C3  LIG X 999      43.584 131.168  21.867  1.00  0.00     0.030 A 
HETATM    2  C4  LIG X 999      42.922 132.104  22.680  1.00  0.00     0.017 A 
HETATM    3  C5  LIG X 999      42.745 131.872  24.043  1.00  0.00     0.002 A 
HETATM    4  C6  LIG X 999      43.226 130.703  24.625  1.00  0.00     0.012 A 
HETATM    5  C7  LIG X 999      43.915 129.761  23.851  1.00  0.00    -0.025 A 
HETATM    6  C8  LIG X 999      44.419 128.598  24.455  1.00  0.00     0.012 A 
HETATM    7  C9  LIG X 999      45.139 127.669  23.706  1.00  0.00     0.001 A 
HETATM    8  C10 LIG X 999      45.375 127.899  22.351  1.00  0.00     0.001 A 
HETATM    9  C11 LIG X 999      44.880 129.047  21.731  1.00  0.00     0.013 A 
HETATM   10  C12 LIG X 999      44.118 129.989  22.461  1.00  0.00    -0.011 A 
ENDROOT
BRANCH   1  11
HETATM   11  C2  LIG X 999      43.655 131.452  20.413  1.00  0.00     0.205 A 
HETATM   12  N3  LIG X 999      42.583 131.763  19.653  1.00  0.00    -0.119 NA
HETATM   13  N2  LIG X 999      43.027 131.911  18.414  1.00  0.00    -0.103 NA
HETATM   14  C1  LIG X 999      44.349 131.677  18.470  1.00  0.00     0.265 A 
HETATM   15  O1  LIG X 999      44.745 131.390  19.684  1.00  0.00    -0.255 OA
BRANCH  14  16
HETATM   16  N1  LIG X 999      45.214 131.733  17.340  1.00  0.00    -0.362 N 
HETATM   17  H1  LIG X 999      44.902 131.357  16.417  1.00  0.00     0.159 HD
HETATM   18  H2  LIG X 999      46.167 132.150  17.429  1.00  0.00     0.159 HD
ENDBRANCH  14  16
ENDBRANCH   1  11
TORSDOF 2
