REMARK VINA RESULT:      -5.2      6.162      8.095
REMARK  1 active torsions:
REMARK  status: ('A' for Active; 'I' for Inactive)
REMARK    1  A    between atoms: C14_14  and  N1_15 
ROOT
HETATM    1  N1  LIG X 999      44.101 129.742  23.465  1.00  0.00    -0.054 NA
HETATM    2  N2  LIG X 999      43.562 130.837  23.633  1.00  0.00    -0.160 NA
HETATM    3  N3  LIG X 999      43.026 131.931  23.802  1.00  0.00     0.068 N 
ENDROOT
BRANCH   1   4
HETATM    4  C14 LIG X 999      43.369 128.507  23.512  1.00  0.00     0.165 C 
HETATM    5  C13 LIG X 999      44.001 127.275  23.326  1.00  0.00     0.061 C 
HETATM    6  C11 LIG X 999      43.261 126.084  23.359  1.00  0.00    -0.045 C 
HETATM    7  C10 LIG X 999      41.879 126.128  23.725  1.00  0.00     0.008 C 
HETATM    8  C12 LIG X 999      43.966 124.851  22.846  1.00  0.00     0.049 C 
HETATM    9  C4  LIG X 999      41.061 124.983  24.009  1.00  0.00    -0.013 C 
HETATM   10  C9  LIG X 999      41.269 127.415  23.769  1.00  0.00     0.045 C 
HETATM   11  C3  LIG X 999      41.586 123.715  24.352  1.00  0.00     0.013 C 
HETATM   12  C5  LIG X 999      39.645 125.138  24.058  1.00  0.00    -0.025 C 
HETATM   13  C2  LIG X 999      40.747 122.619  24.564  1.00  0.00     0.001 C 
HETATM   14  C1  LIG X 999      39.366 122.766  24.488  1.00  0.00     0.001 C 
HETATM   15  C6  LIG X 999      38.814 124.023  24.257  1.00  0.00     0.012 C 
HETATM   16  C7  LIG X 999      39.073 126.407  23.964  1.00  0.00     0.014 C 
HETATM   17  C8  LIG X 999      39.877 127.534  23.878  1.00  0.00     0.031 C 
HETATM   18  N4  LIG X 999      42.024 128.547  23.685  1.00  0.00    -0.338 N 
HETATM   19  H11 LIG X 999      41.564 129.484  23.758  1.00  0.00     0.167 HD
ENDBRANCH   1   4
TORSDOF 1
