MODEL 1
REMARK VINA RESULT:      -7.9      0.000      0.000
REMARK  1 active torsions:
REMARK  status: ('A' for Active; 'I' for Inactive)
REMARK    1  A    between atoms: C3_3  and  N1_4 
ROOT
HETATM    1  N1  LIG X 999      47.192 129.528  15.219  1.00  0.00    -0.072 NA
HETATM    2  N2  LIG X 999      47.882 129.507  14.199  1.00  0.00    -0.162 NA
HETATM    3  N3  LIG X 999      48.574 129.487  13.182  1.00  0.00     0.068 N 
ENDROOT
BRANCH   1   4
HETATM    4  C3  LIG X 999      46.005 130.328  15.322  1.00  0.00     0.104 A 
HETATM    5  C2  LIG X 999      45.419 130.767  14.128  1.00  0.00     0.035 A 
HETATM    6  C1  LIG X 999      44.224 131.486  14.137  1.00  0.00     0.003 A 
HETATM    7  C10 LIG X 999      43.596 131.791  15.343  1.00  0.00     0.012 A 
HETATM    8  C9  LIG X 999      44.176 131.407  16.559  1.00  0.00    -0.023 A 
HETATM    9  C4  LIG X 999      45.410 130.683  16.563  1.00  0.00     0.006 A 
HETATM   10  C8  LIG X 999      43.553 131.755  17.773  1.00  0.00     0.021 A 
HETATM   11  C5  LIG X 999      46.015 130.382  17.807  1.00  0.00     0.024 A 
HETATM   12  C6  LIG X 999      45.366 130.754  18.985  1.00  0.00    -0.023 A 
HETATM   13  C7  LIG X 999      44.175 131.408  18.969  1.00  0.00    -0.024 A 
HETATM   14  C14 LIG X 999      45.812 130.521  20.376  1.00  0.00     0.276 C 
HETATM   15  C11 LIG X 999      43.706 131.672  20.345  1.00  0.00     0.276 C 
HETATM   16  N4  LIG X 999      44.823 131.237  21.244  1.00  0.00    -0.067 N 
HETATM   17  C12 LIG X 999      44.318 130.341  22.309  1.00  0.00     0.272 C 
HETATM   18  C13 LIG X 999      45.460 132.419  21.871  1.00  0.00     0.272 C 
ENDBRANCH   1   4
TORSDOF 1
ENDMDL
MODEL 2
REMARK VINA RESULT:      -7.2      1.577      6.047
REMARK  1 active torsions:
REMARK  status: ('A' for Active; 'I' for Inactive)
REMARK    1  A    between atoms: C3_3  and  N1_4 
ROOT
HETATM    1  N1  LIG X 999      44.789 131.086  22.099  1.00  0.00    -0.072 NA
HETATM    2  N2  LIG X 999      44.706 129.977  22.631  1.00  0.00    -0.162 NA
HETATM    3  N3  LIG X 999      44.626 128.870  23.160  1.00  0.00     0.068 N 
ENDROOT
BRANCH   1   4
HETATM    4  C3  LIG X 999      43.805 131.564  21.170  1.00  0.00     0.104 A 
HETATM    5  C2  LIG X 999      42.631 132.112  21.701  1.00  0.00     0.035 A 
HETATM    6  C1  LIG X 999      41.657 132.665  20.870  1.00  0.00     0.003 A 
HETATM    7  C10 LIG X 999      41.834 132.671  19.488  1.00  0.00     0.012 A 
HETATM    8  C9  LIG X 999      42.975 132.092  18.918  1.00  0.00    -0.023 A 
HETATM    9  C4  LIG X 999      43.973 131.507  19.760  1.00  0.00     0.006 A 
HETATM   10  C8  LIG X 999      43.125 132.069  17.518  1.00  0.00     0.021 A 
HETATM   11  C5  LIG X 999      45.074 130.854  19.153  1.00  0.00     0.024 A 
HETATM   12  C6  LIG X 999      45.177 130.848  17.762  1.00  0.00    -0.023 A 
HETATM   13  C7  LIG X 999      44.242 131.441  16.974  1.00  0.00    -0.024 A 
HETATM   14  C14 LIG X 999      46.246 130.246  16.936  1.00  0.00     0.276 C 
HETATM   15  C11 LIG X 999      44.596 131.297  15.546  1.00  0.00     0.276 C 
HETATM   16  N4  LIG X 999      45.800 130.406  15.516  1.00  0.00    -0.067 N 
HETATM   17  C12 LIG X 999      46.875 131.008  14.694  1.00  0.00     0.272 C 
HETATM   18  C13 LIG X 999      45.439 129.086  14.945  1.00  0.00     0.272 C 
ENDBRANCH   1   4
TORSDOF 1
ENDMDL
MODEL 3
REMARK VINA RESULT:      -5.9      2.065      6.658
REMARK  1 active torsions:
REMARK  status: ('A' for Active; 'I' for Inactive)
REMARK    1  A    between atoms: C3_3  and  N1_4 
ROOT
HETATM    1  N1  LIG X 999      41.816 132.918  20.082  1.00  0.00    -0.072 NA
HETATM    2  N2  LIG X 999      41.042 133.327  20.949  1.00  0.00    -0.162 NA
HETATM    3  N3  LIG X 999      40.270 133.739  21.814  1.00  0.00     0.068 N 
ENDROOT
BRANCH   1   4
HETATM    4  C3  LIG X 999      43.007 132.184  20.405  1.00  0.00     0.104 A 
HETATM    5  C2  LIG X 999      43.292 131.986  21.762  1.00  0.00     0.035 A 
HETATM    6  C1  LIG X 999      44.388 131.221  22.160  1.00  0.00     0.003 A 
HETATM    7  C10 LIG X 999      45.229 130.648  21.208  1.00  0.00     0.012 A 
HETATM    8  C9  LIG X 999      45.000 130.861  19.842  1.00  0.00    -0.023 A 
HETATM    9  C4  LIG X 999      43.887 131.657  19.422  1.00  0.00     0.006 A 
HETATM   10  C8  LIG X 999      45.878 130.309  18.890  1.00  0.00     0.021 A 
HETATM   11  C5  LIG X 999      43.730 131.926  18.041  1.00  0.00     0.024 A 
HETATM   12  C6  LIG X 999      44.629 131.365  17.133  1.00  0.00    -0.023 A 
HETATM   13  C7  LIG X 999      45.659 130.579  17.541  1.00  0.00    -0.024 A 
HETATM   14  C14 LIG X 999      44.633 131.503  15.660  1.00  0.00     0.276 C 
HETATM   15  C11 LIG X 999      46.449 130.111  16.383  1.00  0.00     0.276 C 
HETATM   16  N4  LIG X 999      45.881 130.821  15.193  1.00  0.00    -0.067 N 
HETATM   17  C12 LIG X 999      45.577 129.860  14.108  1.00  0.00     0.272 C 
HETATM   18  C13 LIG X 999      46.850 131.824  14.690  1.00  0.00     0.272 C 
ENDBRANCH   1   4
TORSDOF 1
ENDMDL
MODEL 4
REMARK VINA RESULT:      -5.4      1.660      2.646
REMARK  1 active torsions:
REMARK  status: ('A' for Active; 'I' for Inactive)
REMARK    1  A    between atoms: C3_3  and  N1_4 
ROOT
HETATM    1  N1  LIG X 999      46.142 130.552  17.345  1.00  0.00    -0.072 NA
HETATM    2  N2  LIG X 999      46.511 130.207  16.220  1.00  0.00    -0.162 NA
HETATM    3  N3  LIG X 999      46.882 129.866  15.098  1.00  0.00     0.068 N 
ENDROOT
BRANCH   1   4
HETATM    4  C3  LIG X 999      44.846 131.120  17.583  1.00  0.00     0.104 A 
HETATM    5  C2  LIG X 999      44.114 131.544  16.467  1.00  0.00     0.035 A 
HETATM    6  C1  LIG X 999      42.818 132.039  16.604  1.00  0.00     0.003 A 
HETATM    7  C10 LIG X 999      42.231 132.132  17.865  1.00  0.00     0.012 A 
HETATM    8  C9  LIG X 999      42.949 131.759  19.009  1.00  0.00    -0.023 A 
HETATM    9  C4  LIG X 999      44.286 131.265  18.881  1.00  0.00     0.006 A 
HETATM   10  C8  LIG X 999      42.361 131.894  20.281  1.00  0.00     0.021 A 
HETATM   11  C5  LIG X 999      45.018 130.976  20.059  1.00  0.00     0.024 A 
HETATM   12  C6  LIG X 999      44.397 131.133  21.299  1.00  0.00    -0.023 A 
HETATM   13  C7  LIG X 999      43.114 131.567  21.405  1.00  0.00    -0.024 A 
HETATM   14  C14 LIG X 999      44.970 130.871  22.637  1.00  0.00     0.276 C 
HETATM   15  C11 LIG X 999      42.702 131.634  22.823  1.00  0.00     0.276 C 
HETATM   16  N4  LIG X 999      43.936 131.331  23.618  1.00  0.00    -0.067 N 
HETATM   17  C12 LIG X 999      43.664 130.278  24.623  1.00  0.00     0.272 C 
HETATM   18  C13 LIG X 999      44.403 132.553  24.314  1.00  0.00     0.272 C 
ENDBRANCH   1   4
TORSDOF 1
ENDMDL
MODEL 5
REMARK VINA RESULT:      -5.4      5.331      7.276
REMARK  1 active torsions:
REMARK  status: ('A' for Active; 'I' for Inactive)
REMARK    1  A    between atoms: C3_3  and  N1_4 
ROOT
HETATM    1  N1  LIG X 999      45.040 131.221  21.228  1.00  0.00    -0.072 NA
HETATM    2  N2  LIG X 999      44.635 131.423  20.082  1.00  0.00    -0.162 NA
HETATM    3  N3  LIG X 999      44.232 131.628  18.938  1.00  0.00     0.068 N 
ENDROOT
BRANCH   1   4
HETATM    4  C3  LIG X 999      44.176 130.749  22.272  1.00  0.00     0.104 A 
HETATM    5  C2  LIG X 999      43.319 131.682  22.869  1.00  0.00     0.035 A 
HETATM    6  C1  LIG X 999      42.396 131.291  23.838  1.00  0.00     0.003 A 
HETATM    7  C10 LIG X 999      42.320 129.958  24.240  1.00  0.00     0.012 A 
HETATM    8  C9  LIG X 999      43.191 129.005  23.696  1.00  0.00    -0.023 A 
HETATM    9  C4  LIG X 999      44.153 129.398  22.712  1.00  0.00     0.006 A 
HETATM   10  C8  LIG X 999      43.132 127.669  24.137  1.00  0.00     0.021 A 
HETATM   11  C5  LIG X 999      45.076 128.432  22.244  1.00  0.00     0.024 A 
HETATM   12  C6  LIG X 999      44.986 127.122  22.715  1.00  0.00    -0.023 A 
HETATM   13  C7  LIG X 999      44.043 126.752  23.621  1.00  0.00    -0.024 A 
HETATM   14  C14 LIG X 999      45.831 125.966  22.343  1.00  0.00     0.276 C 
HETATM   15  C11 LIG X 999      44.162 125.314  23.941  1.00  0.00     0.276 C 
HETATM   16  N4  LIG X 999      45.399 124.844  23.236  1.00  0.00    -0.067 N 
HETATM   17  C12 LIG X 999      45.117 123.625  22.444  1.00  0.00     0.272 C 
HETATM   18  C13 LIG X 999      46.461 124.542  24.224  1.00  0.00     0.272 C 
ENDBRANCH   1   4
TORSDOF 1
ENDMDL
MODEL 6
REMARK VINA RESULT:      -5.0      6.545      8.314
REMARK  1 active torsions:
REMARK  status: ('A' for Active; 'I' for Inactive)
REMARK    1  A    between atoms: C3_3  and  N1_4 
ROOT
HETATM    1  N1  LIG X 999      44.253 130.265  22.489  1.00  0.00    -0.072 NA
HETATM    2  N2  LIG X 999      43.706 131.032  21.694  1.00  0.00    -0.162 NA
HETATM    3  N3  LIG X 999      43.161 131.800  20.903  1.00  0.00     0.068 N 
ENDROOT
BRANCH   1   4
HETATM    4  C3  LIG X 999      43.555 129.167  23.095  1.00  0.00     0.104 A 
HETATM    5  C2  LIG X 999      42.332 129.447  23.717  1.00  0.00     0.035 A 
HETATM    6  C1  LIG X 999      41.556 128.427  24.265  1.00  0.00     0.003 A 
HETATM    7  C10 LIG X 999      41.993 127.104  24.212  1.00  0.00     0.012 A 
HETATM    8  C9  LIG X 999      43.231 126.792  23.636  1.00  0.00    -0.023 A 
HETATM    9  C4  LIG X 999      44.044 127.833  23.085  1.00  0.00     0.006 A 
HETATM   10  C8  LIG X 999      43.681 125.458  23.622  1.00  0.00     0.021 A 
HETATM   11  C5  LIG X 999      45.327 127.499  22.586  1.00  0.00     0.024 A 
HETATM   12  C6  LIG X 999      45.735 126.165  22.600  1.00  0.00    -0.023 A 
HETATM   13  C7  LIG X 999      44.938 125.180  23.091  1.00  0.00    -0.024 A 
HETATM   14  C14 LIG X 999      47.015 125.605  22.115  1.00  0.00     0.276 C 
HETATM   15  C11 LIG X 999      45.604 123.865  22.979  1.00  0.00     0.276 C 
HETATM   16  N4  LIG X 999      46.991 124.155  22.491  1.00  0.00    -0.067 N 
HETATM   17  C12 LIG X 999      47.321 123.307  21.323  1.00  0.00     0.272 C 
HETATM   18  C13 LIG X 999      47.974 123.893  23.569  1.00  0.00     0.272 C 
ENDBRANCH   1   4
TORSDOF 1
ENDMDL
