REMARK VINA RESULT:      -5.6      2.766      3.346
REMARK  4 active torsions:
REMARK  status: ('A' for Active; 'I' for Inactive)
REMARK    1  A    between atoms: C1_1  and  C2_6 
REMARK    2  A    between atoms: N1_2  and  N2_3 
REMARK    3  A    between atoms: C2_6  and  C3_8 
REMARK    4  A    between atoms: C11_16  and  N4_17 
ROOT
HETATM    1  N4  LIG X 999      41.955 132.756  18.877  1.00  0.00    -0.105 NA
HETATM    2  N5  LIG X 999      41.444 133.219  19.897  1.00  0.00    -0.167 NA
HETATM    3  N6  LIG X 999      40.933 133.681  20.916  1.00  0.00     0.068 N 
ENDROOT
BRANCH   1   4
HETATM    4  C11 LIG X 999      42.503 131.402  18.850  1.00  0.00     0.179 C 
HETATM    5  C10 LIG X 999      43.610 131.304  19.878  1.00  0.00    -0.024 A 
HETATM    6  C5  LIG X 999      44.977 131.363  19.511  1.00  0.00    -0.049 A 
HETATM    7  C9  LIG X 999      43.265 131.245  21.240  1.00  0.00     0.010 A 
HETATM    8  C4  LIG X 999      45.412 131.348  18.064  1.00  0.00     0.051 C 
HETATM    9  C6  LIG X 999      45.963 131.321  20.511  1.00  0.00     0.007 A 
HETATM   10  C3  LIG X 999      44.296 131.790  17.106  1.00  0.00     0.068 C 
HETATM   11  C12 LIG X 999      42.995 131.042  17.436  1.00  0.00     0.048 C 
HETATM   12  C7  LIG X 999      45.603 131.257  21.859  1.00  0.00     0.001 A 
HETATM   13  C8  LIG X 999      44.257 131.219  22.222  1.00  0.00     0.001 A 
BRANCH  10  14
HETATM   14  C2  LIG X 999      44.709 131.548  15.674  1.00  0.00     0.172 C 
HETATM   15  O1  LIG X 999      43.917 131.834  14.734  1.00  0.00    -0.291 OA
BRANCH  14  16
HETATM   16  C1  LIG X 999      46.016 130.947  15.367  1.00  0.00     0.190 C 
HETATM   17  N1  LIG X 999      46.085 129.792  14.785  1.00  0.00    -0.165 NA
BRANCH  17  18
HETATM   18  N2  LIG X 999      47.316 129.192  14.480  1.00  0.00    -0.177 N 
HETATM   19  H2  LIG X 999      47.612 128.303  14.946  1.00  0.00     0.214 HD
HETATM   20  N3  LIG X 999      48.084 129.731  13.627  1.00  0.00    -0.031 N 
ENDBRANCH  17  18
ENDBRANCH  14  16
ENDBRANCH  10  14
ENDBRANCH   1   4
TORSDOF 4
