REMARK VINA RESULT:      -5.8      1.622      3.189
REMARK  4 active torsions:
REMARK  status: ('A' for Active; 'I' for Inactive)
REMARK    1  A    between atoms: C3_3  and  O1_4 
REMARK    2  A    between atoms: O1_4  and  C4_5 
REMARK    3  A    between atoms: C4_5  and  O2_6 
REMARK    4  A    between atoms: C5_8  and  C6_9 
ROOT
HETATM    1  C1  LIG X 999      43.693 131.089  22.595  1.00  0.00     0.014 C 
HETATM    2  C2  LIG X 999      43.069 131.649  21.730  1.00  0.00    -0.091 C 
HETATM    3  C3  LIG X 999      42.312 132.326  20.676  1.00  0.00     0.270 C 
ENDROOT
BRANCH   3   4
HETATM    4  O1  LIG X 999      43.000 132.177  19.442  1.00  0.00    -0.319 OA
BRANCH   4   5
HETATM    5  C4  LIG X 999      42.406 132.384  18.189  1.00  0.00     0.179 C 
HETATM    6  C5  LIG X 999      43.013 131.944  17.084  1.00  0.00     0.075 C 
BRANCH   5   7
HETATM    7  O2  LIG X 999      41.188 133.055  18.064  1.00  0.00    -0.341 OA
HETATM    8  H4  LIG X 999      41.075 134.028  18.317  1.00  0.00     0.220 HD
ENDBRANCH   5   7
BRANCH   6   9
HETATM    9  C6  LIG X 999      44.325 131.261  17.112  1.00  0.00    -0.021 A 
HETATM   10  C7  LIG X 999      44.821 130.863  18.362  1.00  0.00     0.012 A 
HETATM   11  C8  LIG X 999      46.028 130.170  18.463  1.00  0.00     0.002 A 
HETATM   12  C9  LIG X 999      46.765 129.871  17.319  1.00  0.00     0.012 A 
HETATM   13  C10 LIG X 999      46.313 130.285  16.059  1.00  0.00    -0.025 A 
HETATM   14  C11 LIG X 999      47.074 130.003  14.913  1.00  0.00     0.012 A 
HETATM   15  C15 LIG X 999      45.091 131.001  15.942  1.00  0.00    -0.015 A 
HETATM   16  C12 LIG X 999      46.647 130.441  13.659  1.00  0.00     0.001 A 
HETATM   17  C13 LIG X 999      45.465 131.172  13.538  1.00  0.00     0.001 A 
HETATM   18  C14 LIG X 999      44.694 131.458  14.667  1.00  0.00     0.013 A 
ENDBRANCH   6   9
ENDBRANCH   4   5
ENDBRANCH   3   4
TORSDOF 4
