REMARK VINA RESULT:      -7.1      1.410      5.907
REMARK  1 active torsions:
REMARK  status: ('A' for Active; 'I' for Inactive)
REMARK    1  A    between atoms: C9_10  and  N2_11 
ROOT
HETATM    1  C1  LIG X 999      43.686 130.279  22.392  1.00  0.00     0.272 C 
HETATM    2  N1  LIG X 999      44.337 131.189  21.422  1.00  0.00    -0.067 N 
HETATM    3  C2  LIG X 999      44.843 132.381  22.145  1.00  0.00     0.272 C 
HETATM    4  C3  LIG X 999      43.369 131.608  20.358  1.00  0.00     0.276 C 
HETATM    5  C4  LIG X 999      44.067 131.382  19.075  1.00  0.00    -0.024 A 
HETATM    6  C5  LIG X 999      43.627 131.711  17.791  1.00  0.00     0.021 A 
HETATM    7  C6  LIG X 999      44.446 131.382  16.694  1.00  0.00    -0.025 A 
HETATM    8  C7  LIG X 999      44.048 131.696  15.386  1.00  0.00     0.014 A 
HETATM    9  C8  LIG X 999      44.866 131.364  14.303  1.00  0.00     0.030 A 
HETATM   10  C9  LIG X 999      46.091 130.715  14.510  1.00  0.00     0.026 A 
HETATM   11  C10 LIG X 999      46.500 130.395  15.812  1.00  0.00     0.041 A 
HETATM   12  C11 LIG X 999      45.690 130.723  16.909  1.00  0.00    -0.023 A 
HETATM   13  C12 LIG X 999      46.093 130.402  18.220  1.00  0.00     0.021 A 
HETATM   14  C13 LIG X 999      45.257 130.751  19.281  1.00  0.00    -0.024 A 
HETATM   15  C14 LIG X 999      45.465 130.496  20.723  1.00  0.00     0.276 C 
ENDROOT
BRANCH  10  16
HETATM   16  N2  LIG X 999      46.921 130.379  13.394  1.00  0.00    -0.399 N 
HETATM   17  H12 LIG X 999      47.594 129.582  13.448  1.00  0.00     0.156 HD
HETATM   18  H13 LIG X 999      46.868 130.924  12.505  1.00  0.00     0.156 HD
ENDBRANCH  10  16
TORSDOF 1
