REMARK VINA RESULT:      -8.1      1.620      2.538
REMARK  8 active torsions:
REMARK  status: ('A' for Active; 'I' for Inactive)
REMARK    1  A    between atoms: O1_2  and  C1_3 
REMARK    2  A    between atoms: C1_3  and  N1_4 
REMARK    3  A    between atoms: N1_4  and  C2_5 
REMARK    4  A    between atoms: C2_5  and  C3_6 
REMARK    5  A    between atoms: C3_6  and  C4_7 
REMARK    6  A    between atoms: C4_7  and  O2_8 
REMARK    7  A    between atoms: O2_8  and  C5_9 
REMARK    8  A    between atoms: C15_19  and  C16_20 
ROOT
HETATM    1  C4  LIG X 999      42.533 131.396  17.928  1.00  0.00     0.177 C 
ENDROOT
BRANCH   1   2
HETATM    2  C3  LIG X 999      42.042 132.454  18.930  1.00  0.00     0.048 C 
BRANCH   2   3
HETATM    3  C2  LIG X 999      42.880 132.499  20.213  1.00  0.00     0.154 C 
BRANCH   3   4
HETATM    4  N1  LIG X 999      43.777 131.351  20.259  1.00  0.00    -0.267 NA
BRANCH   4   5
HETATM    5  C1  LIG X 999      44.775 131.179  21.268  1.00  0.00     0.153 C 
HETATM    6  C15 LIG X 999      44.427 130.816  22.510  1.00  0.00     0.034 C 
BRANCH   5   7
HETATM    7  O1  LIG X 999      46.117 131.396  20.950  1.00  0.00    -0.345 OA
HETATM    8  H1  LIG X 999      46.737 130.636  20.692  1.00  0.00     0.219 HD
ENDBRANCH   5   7
BRANCH   6   9
HETATM    9  C16 LIG X 999      43.000 130.516  22.908  1.00  0.00     0.004 C 
HETATM   10  C17 LIG X 999      42.479 131.578  23.880  1.00  0.00     0.013 C 
HETATM   11  C18 LIG X 999      42.902 129.121  23.530  1.00  0.00     0.013 C 
ENDBRANCH   6   9
ENDBRANCH   4   5
ENDBRANCH   3   4
ENDBRANCH   2   3
ENDBRANCH   1   2
BRANCH   1  12
HETATM   12  O2  LIG X 999      43.441 131.938  16.966  1.00  0.00    -0.351 OA
BRANCH  12  13
HETATM   13  C5  LIG X 999      44.578 131.295  16.452  1.00  0.00     0.069 A 
HETATM   14  C6  LIG X 999      45.267 130.287  17.154  1.00  0.00     0.037 A 
HETATM   15  C7  LIG X 999      46.367 129.648  16.575  1.00  0.00     0.015 A 
HETATM   16  C8  LIG X 999      46.802 130.011  15.294  1.00  0.00    -0.026 A 
HETATM   17  C9  LIG X 999      47.890 129.359  14.694  1.00  0.00     0.012 A 
HETATM   18  C13 LIG X 999      46.132 131.042  14.594  1.00  0.00    -0.023 A 
HETATM   19  C10 LIG X 999      48.308 129.726  13.411  1.00  0.00     0.001 A 
HETATM   20  C11 LIG X 999      47.646 130.744  12.721  1.00  0.00     0.001 A 
HETATM   21  C12 LIG X 999      46.562 131.403  13.308  1.00  0.00     0.012 A 
HETATM   22  C14 LIG X 999      45.029 131.678  15.183  1.00  0.00     0.049 A 
ENDBRANCH  12  13
ENDBRANCH   1  12
TORSDOF 8
