REMARK VINA RESULT:      -5.7      5.047      6.738
REMARK  3 active torsions:
REMARK  status: ('A' for Active; 'I' for Inactive)
REMARK    1  A    between atoms: O1_2  and  C1_3 
REMARK    2  A    between atoms: C1_3  and  C3_8 
REMARK    3  A    between atoms: C2_4  and  N1_5 
ROOT
HETATM    1  N1  LIG X 999      44.149 131.123  22.836  1.00  0.00    -0.082 NA
HETATM    2  N2  LIG X 999      43.098 131.522  23.337  1.00  0.00    -0.163 NA
HETATM    3  N3  LIG X 999      42.048 131.921  23.838  1.00  0.00     0.068 N 
ENDROOT
BRANCH   1   4
HETATM    4  C2  LIG X 999      44.219 130.811  21.445  1.00  0.00     0.193 C 
HETATM    5  C1  LIG X 999      45.159 131.361  20.658  1.00  0.00     0.096 C 
BRANCH   5   6
HETATM    6  O1  LIG X 999      46.112 132.233  21.195  1.00  0.00    -0.358 OA
HETATM    7  H1  LIG X 999      46.637 132.891  20.634  1.00  0.00     0.217 HD
ENDBRANCH   5   6
BRANCH   5   8
HETATM    8  C3  LIG X 999      45.235 131.050  19.208  1.00  0.00    -0.001 A 
HETATM    9  C4  LIG X 999      46.228 130.169  18.747  1.00  0.00     0.015 A 
HETATM   10  C5  LIG X 999      46.337 129.862  17.388  1.00  0.00     0.013 A 
HETATM   11  C6  LIG X 999      45.458 130.438  16.461  1.00  0.00    -0.026 A 
HETATM   12  C7  LIG X 999      45.560 130.136  15.095  1.00  0.00     0.012 A 
HETATM   13  C11 LIG X 999      44.464 131.339  16.908  1.00  0.00    -0.025 A 
HETATM   14  C8  LIG X 999      44.683 130.724  14.179  1.00  0.00     0.001 A 
HETATM   15  C9  LIG X 999      43.702 131.616  14.619  1.00  0.00     0.001 A 
HETATM   16  C10 LIG X 999      43.590 131.925  15.978  1.00  0.00     0.012 A 
HETATM   17  C12 LIG X 999      44.360 131.643  18.275  1.00  0.00     0.026 A 
ENDBRANCH   5   8
ENDBRANCH   1   4
TORSDOF 3
