REMARK VINA RESULT:      -3.0      3.331      4.655
REMARK  3 active torsions:
REMARK  status: ('A' for Active; 'I' for Inactive)
REMARK    1  A    between atoms: C3_3  and  S1_4 
REMARK    2  A    between atoms: S1_4  and  C4_7 
REMARK    3  A    between atoms: C6_9  and  N1_10 
ROOT
HETATM    1  C1  LIG X 999      45.371 131.082  16.750  1.00  0.00     0.013 C 
HETATM    2  C2  LIG X 999      44.978 131.383  17.850  1.00  0.00    -0.102 C 
HETATM    3  C3  LIG X 999      44.505 131.751  19.187  1.00  0.00     0.238 C 
ENDROOT
BRANCH   3   4
HETATM    4  S1  LIG X 999      45.464 130.913  20.441  1.00  0.00     0.186 S 
HETATM    5  O1  LIG X 999      46.555 131.848  20.885  1.00  0.00    -0.222 OA
HETATM    6  O2  LIG X 999      46.079 129.694  19.812  1.00  0.00    -0.222 OA
BRANCH   4   7
HETATM    7  C4  LIG X 999      44.515 130.406  21.860  1.00  0.00     0.073 A 
HETATM    8  C5  LIG X 999      43.597 131.309  22.426  1.00  0.00     0.058 A 
HETATM    9  C6  LIG X 999      42.841 130.965  23.559  1.00  0.00     0.095 A 
HETATM   10  C7  LIG X 999      42.991 129.703  24.131  1.00  0.00     0.046 A 
HETATM   11  C8  LIG X 999      43.883 128.773  23.585  1.00  0.00    -0.021 A 
HETATM   12  C9  LIG X 999      44.009 127.499  24.174  1.00  0.00     0.022 A 
HETATM   13  C13 LIG X 999      44.656 129.114  22.432  1.00  0.00    -0.004 A 
HETATM   14  C10 LIG X 999      44.897 126.585  23.613  1.00  0.00    -0.024 A 
HETATM   15  C11 LIG X 999      45.630 126.894  22.512  1.00  0.00    -0.024 A 
HETATM   16  C17 LIG X 999      45.165 125.198  24.046  1.00  0.00     0.276 C 
HETATM   17  C12 LIG X 999      45.533 128.140  21.893  1.00  0.00     0.023 A 
HETATM   18  C14 LIG X 999      46.461 125.741  22.102  1.00  0.00     0.276 C 
HETATM   19  N4  LIG X 999      46.285 124.714  23.177  1.00  0.00    -0.067 N 
HETATM   20  C15 LIG X 999      47.530 124.597  23.975  1.00  0.00     0.272 C 
HETATM   21  C16 LIG X 999      45.961 123.393  22.593  1.00  0.00     0.272 C 
BRANCH   9  22
HETATM   22  N1  LIG X 999      41.909 131.882  24.150  1.00  0.00    -0.073 NA
HETATM   23  N2  LIG X 999      41.156 132.585  23.475  1.00  0.00    -0.162 NA
HETATM   24  N3  LIG X 999      40.402 133.288  22.802  1.00  0.00     0.068 N 
ENDBRANCH   9  22
ENDBRANCH   4   7
ENDBRANCH   3   4
TORSDOF 3
