REMARK VINA RESULT:      -8.1      0.000      0.000
REMARK  6 active torsions:
REMARK  status: ('A' for Active; 'I' for Inactive)
REMARK    1  A    between atoms: O1_2  and  C2_3 
REMARK    2  A    between atoms: C2_3  and  C3_5 
REMARK    3  A    between atoms: C6_9  and  N1_10 
REMARK    4  A    between atoms: N1_10  and  C7_11 
REMARK    5  A    between atoms: C7_11  and  N2_13 
REMARK    6  A    between atoms: N2_13  and  C8_14 
ROOT
HETATM    1  C7  LIG X 999      44.301 131.522  19.622  1.00  0.00     0.278 C 
HETATM    2  S2  LIG X 999      42.769 132.061  19.369  1.00  0.00    -0.033 SA
ENDROOT
BRANCH   1   3
HETATM    3  N1  LIG X 999      44.925 131.770  20.896  1.00  0.00     0.012 N 
HETATM    4  H6  LIG X 999      45.051 132.803  21.002  1.00  0.00     0.293 HD
HETATM    5  H7  LIG X 999      45.870 131.327  20.942  1.00  0.00     0.293 HD
BRANCH   3   6
HETATM    6  C6  LIG X 999      44.110 131.253  21.967  1.00  0.00     0.164 A 
HETATM    7  C3  LIG X 999      44.179 129.942  22.465  1.00  0.00     0.114 A 
HETATM    8  S1  LIG X 999      43.002 129.784  23.659  1.00  0.00    -0.094 SA
HETATM    9  C4  LIG X 999      42.401 131.348  23.566  1.00  0.00     0.053 A 
HETATM   10  C5  LIG X 999      43.112 132.028  22.587  1.00  0.00     0.046 A 
BRANCH   7  11
HETATM   11  C2  LIG X 999      45.073 128.847  22.046  1.00  0.00     0.302 C 
HETATM   12  O2  LIG X 999      45.834 129.016  21.054  1.00  0.00    -0.259 OA
BRANCH  11  13
HETATM   13  O1  LIG X 999      45.083 127.632  22.733  1.00  0.00    -0.322 OA
HETATM   14  C1  LIG X 999      45.782 126.487  22.263  1.00  0.00     0.213 C 
ENDBRANCH  11  13
ENDBRANCH   7  11
ENDBRANCH   3   6
ENDBRANCH   1   3
BRANCH   1  15
HETATM   15  N2  LIG X 999      44.843 130.519  18.746  1.00  0.00    -0.327 N 
HETATM   16  H8  LIG X 999      44.872 129.534  19.092  1.00  0.00     0.168 HD
BRANCH  15  17
HETATM   17  C8  LIG X 999      45.394 130.806  17.449  1.00  0.00     0.035 A 
HETATM   18  C9  LIG X 999      45.233 132.068  16.850  1.00  0.00     0.030 A 
HETATM   19  C10 LIG X 999      45.799 132.339  15.601  1.00  0.00     0.014 A 
HETATM   20  C11 LIG X 999      46.545 131.355  14.937  1.00  0.00    -0.026 A 
HETATM   21  C12 LIG X 999      47.119 131.617  13.683  1.00  0.00     0.012 A 
HETATM   22  C16 LIG X 999      46.729 130.088  15.541  1.00  0.00    -0.024 A 
HETATM   23  C13 LIG X 999      47.866 130.630  13.034  1.00  0.00     0.001 A 
HETATM   24  C14 LIG X 999      48.047 129.380  13.630  1.00  0.00     0.001 A 
HETATM   25  C15 LIG X 999      47.483 129.107  14.879  1.00  0.00     0.012 A 
HETATM   26  C17 LIG X 999      46.158 129.828  16.795  1.00  0.00     0.041 A 
ENDBRANCH  15  17
ENDBRANCH   1  15
TORSDOF 6
