REMARK VINA RESULT:      -7.6      2.483      6.672
REMARK  2 active torsions:
REMARK  status: ('A' for Active; 'I' for Inactive)
REMARK    1  A    between atoms: O1_2  and  C2_3 
REMARK    2  A    between atoms: C11_12  and  N1_13 
ROOT
HETATM    1  C2  LIG X 999      44.920 131.329  16.243  1.00  0.00     0.095 A 
HETATM    2  C3  LIG X 999      44.012 131.794  17.216  1.00  0.00     0.051 A 
HETATM    3  C4  LIG X 999      44.197 131.483  18.569  1.00  0.00    -0.023 A 
HETATM    4  C5  LIG X 999      43.289 131.948  19.542  1.00  0.00     0.021 A 
HETATM    5  C6  LIG X 999      43.511 131.611  20.878  1.00  0.00    -0.024 A 
HETATM    6  C7  LIG X 999      44.577 130.854  21.256  1.00  0.00    -0.024 A 
HETATM    7  C8  LIG X 999      45.502 130.379  20.325  1.00  0.00     0.021 A 
HETATM    8  C9  LIG X 999      45.311 130.692  18.964  1.00  0.00    -0.023 A 
HETATM    9  C10 LIG X 999      46.211 130.233  17.995  1.00  0.00     0.044 A 
HETATM   10  C11 LIG X 999      46.023 130.547  16.641  1.00  0.00     0.060 A 
HETATM   11  C12 LIG X 999      44.590 130.670  22.722  1.00  0.00     0.276 C 
HETATM   12  N2  LIG X 999      43.308 131.268  23.216  1.00  0.00    -0.067 N 
HETATM   13  C13 LIG X 999      43.563 132.189  24.346  1.00  0.00     0.272 C 
HETATM   14  C14 LIG X 999      42.389 130.196  23.665  1.00  0.00     0.272 C 
HETATM   15  C15 LIG X 999      42.709 132.004  22.058  1.00  0.00     0.276 C 
ENDROOT
BRANCH  10  16
HETATM   16  N1  LIG X 999      46.959 130.063  15.671  1.00  0.00    -0.397 N 
HETATM   17  H8  LIG X 999      47.854 129.614  15.971  1.00  0.00     0.156 HD
HETATM   18  H9  LIG X 999      46.776 130.145  14.646  1.00  0.00     0.156 HD
ENDBRANCH  10  16
BRANCH   1  19
HETATM   19  O1  LIG X 999      44.759 131.626  14.879  1.00  0.00    -0.354 OA
HETATM   20  C1  LIG X 999      43.548 131.447  14.150  1.00  0.00     0.210 C 
ENDBRANCH   1  19
TORSDOF 2
