REMARK VINA RESULT:      -4.4      2.230      3.939
REMARK  6 active torsions:
REMARK  status: ('A' for Active; 'I' for Inactive)
REMARK    1  A    between atoms: C8_8  and  O1_9 
REMARK    2  A    between atoms: O1_9  and  C9_10 
REMARK    3  A    between atoms: C9_10  and  C10_11 
REMARK    4  A    between atoms: C10_11  and  C11_12 
REMARK    5  A    between atoms: C11_12  and  N1_13 
REMARK    6  A    between atoms: C13_18  and  N4_19 
ROOT
HETATM    1  N1  LIG X 999      43.829 130.933  21.636  1.00  0.00    -0.116 NA
HETATM    2  N2  LIG X 999      43.114 131.701  20.989  1.00  0.00    -0.168 NA
HETATM    3  N3  LIG X 999      42.402 132.467  20.344  1.00  0.00     0.068 N 
ENDROOT
BRANCH   1   4
HETATM    4  C11 LIG X 999      43.776 130.921  23.089  1.00  0.00     0.191 C 
BRANCH   4   5
HETATM    5  C10 LIG X 999      43.429 129.513  23.579  1.00  0.00     0.051 C 
BRANCH   5   6
HETATM    6  C9  LIG X 999      44.525 128.941  24.479  1.00  0.00     0.170 C 
BRANCH   6   7
HETATM    7  O1  LIG X 999      44.579 127.538  24.323  1.00  0.00    -0.384 OA
BRANCH   7   8
HETATM    8  C8  LIG X 999      44.188 127.157  23.013  1.00  0.00     0.146 C 
HETATM    9  C7  LIG X 999      45.432 126.894  22.154  1.00  0.00     0.072 C 
HETATM   10  C5  LIG X 999      46.192 125.670  22.603  1.00  0.00    -0.047 A 
HETATM   11  C4  LIG X 999      45.557 124.621  23.314  1.00  0.00    -0.023 A 
HETATM   12  C6  LIG X 999      47.542 125.541  22.236  1.00  0.00     0.008 A 
HETATM   13  C3  LIG X 999      46.318 123.503  23.704  1.00  0.00     0.010 A 
HETATM   14  C13 LIG X 999      44.112 124.730  23.775  1.00  0.00     0.199 C 
HETATM   15  C2  LIG X 999      47.664 123.398  23.346  1.00  0.00     0.001 A 
HETATM   16  C1  LIG X 999      48.273 124.412  22.608  1.00  0.00     0.001 A 
HETATM   17  C12 LIG X 999      43.345 125.876  23.082  1.00  0.00     0.143 C 
HETATM   18 CL1  LIG X 999      41.815 126.204  23.948  1.00  0.00    -0.120 Cl
BRANCH  14  19
HETATM   19  N4  LIG X 999      43.413 123.472  23.516  1.00  0.00    -0.104 NA
HETATM   20  N5  LIG X 999      43.028 123.178  22.383  1.00  0.00    -0.167 NA
HETATM   21  N6  LIG X 999      42.643 122.886  21.252  1.00  0.00     0.068 N 
ENDBRANCH  14  19
ENDBRANCH   7   8
ENDBRANCH   6   7
ENDBRANCH   5   6
ENDBRANCH   4   5
ENDBRANCH   1   4
TORSDOF 6
