MODEL 1
REMARK VINA RESULT:      -7.2      0.000      0.000
REMARK  1 active torsions:
REMARK  status: ('A' for Active; 'I' for Inactive)
REMARK    1  A    between atoms: C4_4  and  N1_5 
ROOT
HETATM    1  C1  LIG X 999      45.772 129.666  20.905  1.00  0.00     0.049 C 
HETATM    2  C2  LIG X 999      44.733 130.734  21.136  1.00  0.00    -0.045 C 
HETATM    3  C3  LIG X 999      44.418 131.008  22.477  1.00  0.00     0.057 C 
HETATM    4  C4  LIG X 999      43.296 131.769  22.794  1.00  0.00     0.122 C 
HETATM    5  N2  LIG X 999      42.490 132.218  21.804  1.00  0.00    -0.231 NA
HETATM    6  C5  LIG X 999      42.773 132.022  20.491  1.00  0.00     0.070 C 
HETATM    7  C6  LIG X 999      41.851 132.461  19.542  1.00  0.00     0.033 C 
HETATM    8  C7  LIG X 999      42.090 132.277  18.187  1.00  0.00     0.014 C 
HETATM    9  C8  LIG X 999      43.308 131.747  17.752  1.00  0.00    -0.025 C 
HETATM   10  C9  LIG X 999      43.568 131.669  16.373  1.00  0.00     0.012 C 
HETATM   11  C10 LIG X 999      44.821 131.271  15.915  1.00  0.00     0.001 C 
HETATM   12  C11 LIG X 999      45.835 130.988  16.825  1.00  0.00     0.001 C 
HETATM   13  C12 LIG X 999      45.587 131.046  18.199  1.00  0.00     0.013 C 
HETATM   14  C13 LIG X 999      44.296 131.343  18.698  1.00  0.00    -0.013 C 
HETATM   15  C14 LIG X 999      43.971 131.361  20.096  1.00  0.00     0.010 C 
ENDROOT
BRANCH   4  16
HETATM   16  N1  LIG X 999      42.956 132.027  24.157  1.00  0.00    -0.384 N 
HETATM   17  H5  LIG X 999      41.982 132.287  24.429  1.00  0.00     0.157 HD
HETATM   18  H6  LIG X 999      43.683 131.956  24.903  1.00  0.00     0.157 HD
ENDBRANCH   4  16
TORSDOF 1
ENDMDL
MODEL 2
REMARK VINA RESULT:      -7.0      0.873      2.749
REMARK  1 active torsions:
REMARK  status: ('A' for Active; 'I' for Inactive)
REMARK    1  A    between atoms: C4_4  and  N1_5 
ROOT
HETATM    1  C1  LIG X 999      41.782 133.261  19.949  1.00  0.00     0.049 C 
HETATM    2  C2  LIG X 999      42.592 132.240  20.708  1.00  0.00    -0.045 C 
HETATM    3  C3  LIG X 999      42.267 132.081  22.066  1.00  0.00     0.057 C 
HETATM    4  C4  LIG X 999      43.117 131.374  22.913  1.00  0.00     0.122 C 
HETATM    5  N2  LIG X 999      44.275 130.869  22.431  1.00  0.00    -0.231 NA
HETATM    6  C5  LIG X 999      44.615 130.954  21.119  1.00  0.00     0.070 C 
HETATM    7  C6  LIG X 999      45.859 130.465  20.724  1.00  0.00     0.033 C 
HETATM    8  C7  LIG X 999      46.257 130.536  19.396  1.00  0.00     0.014 C 
HETATM    9  C8  LIG X 999      45.371 131.000  18.419  1.00  0.00    -0.025 C 
HETATM   10  C9  LIG X 999      45.760 130.963  17.069  1.00  0.00     0.012 C 
HETATM   11  C10 LIG X 999      44.852 131.293  16.066  1.00  0.00     0.001 C 
HETATM   12  C11 LIG X 999      43.541 131.622  16.398  1.00  0.00     0.001 C 
HETATM   13  C12 LIG X 999      43.145 131.678  17.737  1.00  0.00     0.013 C 
HETATM   14  C13 LIG X 999      44.069 131.453  18.784  1.00  0.00    -0.013 C 
HETATM   15  C14 LIG X 999      43.731 131.552  20.176  1.00  0.00     0.010 C 
ENDROOT
BRANCH   4  16
HETATM   16  N1  LIG X 999      42.804 131.233  24.300  1.00  0.00    -0.384 N 
HETATM   17  H5  LIG X 999      43.366 130.605  24.917  1.00  0.00     0.157 HD
HETATM   18  H6  LIG X 999      42.006 131.763  24.716  1.00  0.00     0.157 HD
ENDBRANCH   4  16
TORSDOF 1
ENDMDL
MODEL 3
REMARK VINA RESULT:      -6.9      2.189      4.822
REMARK  1 active torsions:
REMARK  status: ('A' for Active; 'I' for Inactive)
REMARK    1  A    between atoms: C4_4  and  N1_5 
ROOT
HETATM    1  C1  LIG X 999      46.474 130.794  20.125  1.00  0.00     0.049 C 
HETATM    2  C2  LIG X 999      45.208 131.021  19.336  1.00  0.00    -0.045 C 
HETATM    3  C3  LIG X 999      45.326 130.922  17.940  1.00  0.00     0.057 C 
HETATM    4  C4  LIG X 999      44.298 131.373  17.115  1.00  0.00     0.122 C 
HETATM    5  N2  LIG X 999      43.198 131.938  17.664  1.00  0.00    -0.231 NA
HETATM    6  C5  LIG X 999      43.014 132.015  19.006  1.00  0.00     0.070 C 
HETATM    7  C6  LIG X 999      41.881 132.675  19.483  1.00  0.00     0.033 C 
HETATM    8  C7  LIG X 999      41.651 132.788  20.847  1.00  0.00     0.014 C 
HETATM    9  C8  LIG X 999      42.495 132.149  21.759  1.00  0.00    -0.025 C 
HETATM   10  C9  LIG X 999      42.181 132.191  23.128  1.00  0.00     0.012 C 
HETATM   11  C10 LIG X 999      42.927 131.455  24.044  1.00  0.00     0.001 C 
HETATM   12  C11 LIG X 999      43.964 130.640  23.599  1.00  0.00     0.001 C 
HETATM   13  C12 LIG X 999      44.297 130.600  22.242  1.00  0.00     0.013 C 
HETATM   14  C13 LIG X 999      43.630 131.417  21.300  1.00  0.00    -0.013 C 
HETATM   15  C14 LIG X 999      43.968 131.459  19.905  1.00  0.00     0.010 C 
ENDROOT
BRANCH   4  16
HETATM   16  N1  LIG X 999      44.424 131.300  15.694  1.00  0.00    -0.384 N 
HETATM   17  H5  LIG X 999      43.593 131.117  15.089  1.00  0.00     0.157 HD
HETATM   18  H6  LIG X 999      45.356 131.432  15.241  1.00  0.00     0.157 HD
ENDBRANCH   4  16
TORSDOF 1
ENDMDL
MODEL 4
REMARK VINA RESULT:      -5.5      2.091      5.094
REMARK  1 active torsions:
REMARK  status: ('A' for Active; 'I' for Inactive)
REMARK    1  A    between atoms: C4_4  and  N1_5 
ROOT
HETATM    1  C1  LIG X 999      45.868 130.472  19.922  1.00  0.00     0.049 C 
HETATM    2  C2  LIG X 999      44.538 130.855  20.520  1.00  0.00    -0.045 C 
HETATM    3  C3  LIG X 999      43.815 131.844  19.832  1.00  0.00     0.057 C 
HETATM    4  C4  LIG X 999      42.719 132.458  20.433  1.00  0.00     0.122 C 
HETATM    5  N2  LIG X 999      42.372 132.122  21.697  1.00  0.00    -0.231 NA
HETATM    6  C5  LIG X 999      43.007 131.142  22.388  1.00  0.00     0.070 C 
HETATM    7  C6  LIG X 999      42.627 130.910  23.710  1.00  0.00     0.033 C 
HETATM    8  C7  LIG X 999      43.251 129.924  24.462  1.00  0.00     0.014 C 
HETATM    9  C8  LIG X 999      44.194 129.078  23.872  1.00  0.00    -0.025 C 
HETATM   10  C9  LIG X 999      44.733 128.022  24.625  1.00  0.00     0.012 C 
HETATM   11  C10 LIG X 999      45.573 127.087  24.025  1.00  0.00     0.001 C 
HETATM   12  C11 LIG X 999      45.847 127.173  22.663  1.00  0.00     0.001 C 
HETATM   13  C12 LIG X 999      45.330 128.227  21.905  1.00  0.00     0.013 C 
HETATM   14  C13 LIG X 999      44.562 129.253  22.505  1.00  0.00    -0.013 C 
HETATM   15  C14 LIG X 999      44.054 130.387  21.786  1.00  0.00     0.010 C 
ENDROOT
BRANCH   4  16
HETATM   16  N1  LIG X 999      41.997 133.483  19.748  1.00  0.00    -0.384 N 
HETATM   17  H5  LIG X 999      40.978 133.631  19.921  1.00  0.00     0.157 HD
HETATM   18  H6  LIG X 999      42.485 134.103  19.064  1.00  0.00     0.157 HD
ENDBRANCH   4  16
TORSDOF 1
ENDMDL
MODEL 5
REMARK VINA RESULT:      -5.3      8.339      9.132
REMARK  1 active torsions:
REMARK  status: ('A' for Active; 'I' for Inactive)
REMARK    1  A    between atoms: C4_4  and  N1_5 
ROOT
HETATM    1  C1  LIG X 999      48.003 134.579  22.378  1.00  0.00     0.049 C 
HETATM    2  C2  LIG X 999      49.478 134.705  22.668  1.00  0.00    -0.045 C 
HETATM    3  C3  LIG X 999      50.066 133.629  23.353  1.00  0.00     0.057 C 
HETATM    4  C4  LIG X 999      51.338 133.757  23.904  1.00  0.00     0.122 C 
HETATM    5  N2  LIG X 999      51.996 134.936  23.803  1.00  0.00    -0.231 NA
HETATM    6  C5  LIG X 999      51.494 135.991  23.112  1.00  0.00     0.070 C 
HETATM    7  C6  LIG X 999      52.209 137.188  23.120  1.00  0.00     0.033 C 
HETATM    8  C7  LIG X 999      51.735 138.298  22.435  1.00  0.00     0.014 C 
HETATM    9  C8  LIG X 999      50.589 138.200  21.641  1.00  0.00    -0.025 C 
HETATM   10  C9  LIG X 999      50.189 139.309  20.875  1.00  0.00     0.012 C 
HETATM   11  C10 LIG X 999      49.132 139.198  19.976  1.00  0.00     0.001 C 
HETATM   12  C11 LIG X 999      48.494 137.973  19.803  1.00  0.00     0.001 C 
HETATM   13  C12 LIG X 999      48.870 136.867  20.568  1.00  0.00     0.013 C 
HETATM   14  C13 LIG X 999      49.868 136.972  21.566  1.00  0.00    -0.013 C 
HETATM   15  C14 LIG X 999      50.254 135.884  22.420  1.00  0.00     0.010 C 
ENDROOT
BRANCH   4  16
HETATM   16  N1  LIG X 999      51.929 132.675  24.625  1.00  0.00    -0.384 N 
HETATM   17  H5  LIG X 999      51.663 132.480  25.616  1.00  0.00     0.157 HD
HETATM   18  H6  LIG X 999      52.637 132.060  24.165  1.00  0.00     0.157 HD
ENDBRANCH   4  16
TORSDOF 1
ENDMDL
MODEL 6
REMARK VINA RESULT:      -5.2      7.109      8.853
REMARK  1 active torsions:
REMARK  status: ('A' for Active; 'I' for Inactive)
REMARK    1  A    between atoms: C4_4  and  N1_5 
ROOT
HETATM    1  C1  LIG X 999      40.202 127.589  24.319  1.00  0.00     0.049 C 
HETATM    2  C2  LIG X 999      41.495 126.911  23.939  1.00  0.00    -0.045 C 
HETATM    3  C3  LIG X 999      42.637 127.730  23.918  1.00  0.00     0.057 C 
HETATM    4  C4  LIG X 999      43.814 127.278  23.328  1.00  0.00     0.122 C 
HETATM    5  N2  LIG X 999      43.845 126.057  22.745  1.00  0.00    -0.231 NA
HETATM    6  C5  LIG X 999      42.786 125.209  22.778  1.00  0.00     0.070 C 
HETATM    7  C6  LIG X 999      42.884 123.998  22.092  1.00  0.00     0.033 C 
HETATM    8  C7  LIG X 999      41.826 123.101  22.088  1.00  0.00     0.014 C 
HETATM    9  C8  LIG X 999      40.688 123.348  22.862  1.00  0.00    -0.025 C 
HETATM   10  C9  LIG X 999      39.677 122.375  22.924  1.00  0.00     0.012 C 
HETATM   11  C10 LIG X 999      38.598 122.537  23.788  1.00  0.00     0.001 C 
HETATM   12  C11 LIG X 999      38.539 123.648  24.625  1.00  0.00     0.001 C 
HETATM   13  C12 LIG X 999      39.530 124.631  24.563  1.00  0.00     0.013 C 
HETATM   14  C13 LIG X 999      40.583 124.551  23.621  1.00  0.00    -0.013 C 
HETATM   15  C14 LIG X 999      41.595 125.559  23.475  1.00  0.00     0.010 C 
ENDROOT
BRANCH   4  16
HETATM   16  N1  LIG X 999      44.969 128.116  23.279  1.00  0.00    -0.384 N 
HETATM   17  H5  LIG X 999      45.320 128.599  24.136  1.00  0.00     0.157 HD
HETATM   18  H6  LIG X 999      45.482 128.254  22.380  1.00  0.00     0.157 HD
ENDBRANCH   4  16
TORSDOF 1
ENDMDL
MODEL 7
REMARK VINA RESULT:      -4.8      6.297      7.813
REMARK  1 active torsions:
REMARK  status: ('A' for Active; 'I' for Inactive)
REMARK    1  A    between atoms: C4_4  and  N1_5 
ROOT
HETATM    1  C1  LIG X 999      42.781 122.740  21.121  1.00  0.00     0.049 C 
HETATM    2  C2  LIG X 999      42.551 123.866  22.098  1.00  0.00    -0.045 C 
HETATM    3  C3  LIG X 999      41.222 124.068  22.504  1.00  0.00     0.057 C 
HETATM    4  C4  LIG X 999      40.863 125.231  23.180  1.00  0.00     0.122 C 
HETATM    5  N2  LIG X 999      41.795 126.183  23.417  1.00  0.00    -0.231 NA
HETATM    6  C5  LIG X 999      43.102 126.018  23.087  1.00  0.00     0.070 C 
HETATM    7  C6  LIG X 999      43.979 127.080  23.307  1.00  0.00     0.033 C 
HETATM    8  C7  LIG X 999      45.323 126.964  22.980  1.00  0.00     0.014 C 
HETATM    9  C8  LIG X 999      45.836 125.745  22.527  1.00  0.00    -0.025 C 
HETATM   10  C9  LIG X 999      47.218 125.624  22.304  1.00  0.00     0.012 C 
HETATM   11  C10 LIG X 999      47.773 124.389  21.982  1.00  0.00     0.001 C 
HETATM   12  C11 LIG X 999      46.963 123.259  21.920  1.00  0.00     0.001 C 
HETATM   13  C12 LIG X 999      45.585 123.367  22.125  1.00  0.00     0.013 C 
HETATM   14  C13 LIG X 999      44.974 124.623  22.348  1.00  0.00    -0.013 C 
HETATM   15  C14 LIG X 999      43.558 124.800  22.508  1.00  0.00     0.010 C 
ENDROOT
BRANCH   4  16
HETATM   16  N1  LIG X 999      39.507 125.454  23.571  1.00  0.00    -0.384 N 
HETATM   17  H5  LIG X 999      38.916 124.673  23.933  1.00  0.00     0.157 HD
HETATM   18  H6  LIG X 999      39.090 126.409  23.501  1.00  0.00     0.157 HD
ENDBRANCH   4  16
TORSDOF 1
ENDMDL
MODEL 8
REMARK VINA RESULT:      -4.8      6.959      8.845
REMARK  1 active torsions:
REMARK  status: ('A' for Active; 'I' for Inactive)
REMARK    1  A    between atoms: C4_4  and  N1_5 
ROOT
HETATM    1  C1  LIG X 999      44.600 127.112  22.778  1.00  0.00     0.049 C 
HETATM    2  C2  LIG X 999      44.916 125.644  22.637  1.00  0.00    -0.045 C 
HETATM    3  C3  LIG X 999      46.271 125.321  22.453  1.00  0.00     0.057 C 
HETATM    4  C4  LIG X 999      46.638 124.041  22.046  1.00  0.00     0.122 C 
HETATM    5  N2  LIG X 999      45.682 123.117  21.797  1.00  0.00    -0.231 NA
HETATM    6  C5  LIG X 999      44.363 123.363  22.003  1.00  0.00     0.070 C 
HETATM    7  C6  LIG X 999      43.442 122.375  21.655  1.00  0.00     0.033 C 
HETATM    8  C7  LIG X 999      42.082 122.581  21.839  1.00  0.00     0.014 C 
HETATM    9  C8  LIG X 999      41.623 123.737  22.476  1.00  0.00    -0.025 C 
HETATM   10  C9  LIG X 999      40.251 123.873  22.745  1.00  0.00     0.012 C 
HETATM   11  C10 LIG X 999      39.784 124.949  23.494  1.00  0.00     0.001 C 
HETATM   12  C11 LIG X 999      40.685 125.874  24.016  1.00  0.00     0.001 C 
HETATM   13  C12 LIG X 999      42.050 125.760  23.744  1.00  0.00     0.013 C 
HETATM   14  C13 LIG X 999      42.546 124.740  22.898  1.00  0.00    -0.013 C 
HETATM   15  C14 LIG X 999      43.930 124.609  22.539  1.00  0.00     0.010 C 
ENDROOT
BRANCH   4  16
HETATM   16  N1  LIG X 999      48.012 123.715  21.831  1.00  0.00    -0.384 N 
HETATM   17  H5  LIG X 999      48.417 123.697  20.869  1.00  0.00     0.157 HD
HETATM   18  H6  LIG X 999      48.633 123.492  22.641  1.00  0.00     0.157 HD
ENDBRANCH   4  16
TORSDOF 1
ENDMDL
MODEL 9
REMARK VINA RESULT:      -4.8      5.634      7.271
REMARK  1 active torsions:
REMARK  status: ('A' for Active; 'I' for Inactive)
REMARK    1  A    between atoms: C4_4  and  N1_5 
ROOT
HETATM    1  C1  LIG X 999      44.587 125.664  23.126  1.00  0.00     0.049 C 
HETATM    2  C2  LIG X 999      43.737 126.894  23.325  1.00  0.00    -0.045 C 
HETATM    3  C3  LIG X 999      44.430 128.112  23.424  1.00  0.00     0.057 C 
HETATM    4  C4  LIG X 999      43.777 129.257  23.873  1.00  0.00     0.122 C 
HETATM    5  N2  LIG X 999      42.479 129.185  24.247  1.00  0.00    -0.231 NA
HETATM    6  C5  LIG X 999      41.751 128.045  24.128  1.00  0.00     0.070 C 
HETATM    7  C6  LIG X 999      40.439 128.044  24.601  1.00  0.00     0.033 C 
HETATM    8  C7  LIG X 999      39.656 126.901  24.510  1.00  0.00     0.014 C 
HETATM    9  C8  LIG X 999      40.136 125.769  23.845  1.00  0.00    -0.025 C 
HETATM   10  C9  LIG X 999      39.285 124.664  23.674  1.00  0.00     0.012 C 
HETATM   11  C10 LIG X 999      39.690 123.578  22.903  1.00  0.00     0.001 C 
HETATM   12  C11 LIG X 999      40.926 123.604  22.263  1.00  0.00     0.001 C 
HETATM   13  C12 LIG X 999      41.788 124.690  22.436  1.00  0.00     0.013 C 
HETATM   14  C13 LIG X 999      41.453 125.760  23.298  1.00  0.00    -0.013 C 
HETATM   15  C14 LIG X 999      42.323 126.872  23.557  1.00  0.00     0.010 C 
ENDROOT
BRANCH   4  16
HETATM   16  N1  LIG X 999      44.484 130.492  24.001  1.00  0.00    -0.384 N 
HETATM   17  H5  LIG X 999      45.168 130.798  23.274  1.00  0.00     0.157 HD
HETATM   18  H6  LIG X 999      44.320 131.108  24.828  1.00  0.00     0.157 HD
ENDBRANCH   4  16
TORSDOF 1
ENDMDL
