REMARK VINA RESULT:      -7.2      1.573      6.064
REMARK  1 active torsions:
REMARK  status: ('A' for Active; 'I' for Inactive)
REMARK    1  A    between atoms: C3_3  and  N1_4 
ROOT
HETATM    1  N1  LIG X 999      44.791 131.080  22.077  1.00  0.00    -0.072 NA
HETATM    2  N2  LIG X 999      44.664 130.014  22.680  1.00  0.00    -0.162 NA
HETATM    3  N3  LIG X 999      44.542 128.947  23.282  1.00  0.00     0.068 N 
ENDROOT
BRANCH   1   4
HETATM    4  C3  LIG X 999      43.807 131.552  21.145  1.00  0.00     0.104 A 
HETATM    5  C2  LIG X 999      42.629 132.095  21.672  1.00  0.00     0.035 A 
HETATM    6  C1  LIG X 999      41.656 132.644  20.837  1.00  0.00     0.003 A 
HETATM    7  C10 LIG X 999      41.836 132.650  19.456  1.00  0.00     0.012 A 
HETATM    8  C9  LIG X 999      42.981 132.076  18.890  1.00  0.00    -0.023 A 
HETATM    9  C4  LIG X 999      43.980 131.496  19.735  1.00  0.00     0.006 A 
HETATM   10  C8  LIG X 999      43.136 132.054  17.491  1.00  0.00     0.021 A 
HETATM   11  C5  LIG X 999      45.086 130.847  19.132  1.00  0.00     0.024 A 
HETATM   12  C6  LIG X 999      45.193 130.841  17.741  1.00  0.00    -0.023 A 
HETATM   13  C7  LIG X 999      44.258 131.431  16.950  1.00  0.00    -0.024 A 
HETATM   14  C14 LIG X 999      46.267 130.243  16.919  1.00  0.00     0.276 C 
HETATM   15  C11 LIG X 999      44.617 131.288  15.523  1.00  0.00     0.276 C 
HETATM   16  N4  LIG X 999      45.823 130.401  15.496  1.00  0.00    -0.067 N 
HETATM   17  C12 LIG X 999      46.899 131.008  14.679  1.00  0.00     0.272 C 
HETATM   18  C13 LIG X 999      45.470 129.080  14.925  1.00  0.00     0.272 C 
ENDBRANCH   1   4
TORSDOF 1
