MODEL 1
REMARK VINA RESULT:      -9.0      0.000      0.000
REMARK  3 active torsions:
REMARK  status: ('A' for Active; 'I' for Inactive)
REMARK    1  A    between atoms: C3_3  and  N1_4 
REMARK    2  A    between atoms: N1_4  and  C6_7 
REMARK    3  A    between atoms: C6_7  and  C7_8 
ROOT
HETATM    1  C1  LIG X 999      48.339 129.476  13.789  1.00  0.00     0.013 C 
HETATM    2  C2  LIG X 999      47.334 130.137  13.718  1.00  0.00    -0.089 C 
HETATM    3  C3  LIG X 999      46.102 130.946  13.629  1.00  0.00     0.329 C 
ENDROOT
BRANCH   3   4
HETATM    4  N1  LIG X 999      45.247 130.865  14.852  1.00  0.00    -0.061 N 
HETATM    5  C4  LIG X 999      45.179 129.446  15.282  1.00  0.00     0.273 C 
HETATM    6  C5  LIG X 999      43.862 131.297  14.523  1.00  0.00     0.273 C 
BRANCH   4   7
HETATM    7  C6  LIG X 999      45.755 131.724  15.970  1.00  0.00     0.276 C 
BRANCH   7   8
HETATM    8  C7  LIG X 999      44.919 131.671  17.237  1.00  0.00    -0.032 A 
HETATM    9  C8  LIG X 999      43.531 131.879  17.180  1.00  0.00     0.010 A 
HETATM   10  C9  LIG X 999      42.756 131.835  18.342  1.00  0.00     0.013 A 
HETATM   11  C10 LIG X 999      43.359 131.593  19.583  1.00  0.00    -0.026 A 
HETATM   12  C11 LIG X 999      42.589 131.545  20.755  1.00  0.00     0.012 A 
HETATM   13  C15 LIG X 999      44.759 131.400  19.655  1.00  0.00    -0.025 A 
HETATM   14  C12 LIG X 999      43.205 131.307  21.988  1.00  0.00     0.001 A 
HETATM   15  C13 LIG X 999      44.587 131.117  22.061  1.00  0.00     0.001 A 
HETATM   16  C14 LIG X 999      45.364 131.164  20.900  1.00  0.00     0.012 A 
HETATM   17  C16 LIG X 999      45.529 131.448  18.484  1.00  0.00     0.021 A 
ENDBRANCH   7   8
ENDBRANCH   4   7
ENDBRANCH   3   4
TORSDOF 3
ENDMDL
MODEL 2
REMARK VINA RESULT:      -8.7      0.858      1.901
REMARK  3 active torsions:
REMARK  status: ('A' for Active; 'I' for Inactive)
REMARK    1  A    between atoms: C3_3  and  N1_4 
REMARK    2  A    between atoms: N1_4  and  C6_7 
REMARK    3  A    between atoms: C6_7  and  C7_8 
ROOT
HETATM    1  C1  LIG X 999      47.586 131.003  13.088  1.00  0.00     0.013 C 
HETATM    2  C2  LIG X 999      46.939 131.324  14.053  1.00  0.00    -0.089 C 
HETATM    3  C3  LIG X 999      46.149 131.720  15.236  1.00  0.00     0.329 C 
ENDROOT
BRANCH   3   4
HETATM    4  N1  LIG X 999      44.815 131.050  15.311  1.00  0.00    -0.061 N 
HETATM    5  C4  LIG X 999      45.020 129.645  15.743  1.00  0.00     0.273 C 
HETATM    6  C5  LIG X 999      44.196 131.014  13.959  1.00  0.00     0.273 C 
BRANCH   4   7
HETATM    7  C6  LIG X 999      43.871 131.748  16.242  1.00  0.00     0.276 C 
BRANCH   7   8
HETATM    8  C7  LIG X 999      44.169 131.539  17.717  1.00  0.00    -0.032 A 
HETATM    9  C8  LIG X 999      45.396 130.989  18.121  1.00  0.00     0.010 A 
HETATM   10  C9  LIG X 999      45.677 130.792  19.475  1.00  0.00     0.013 A 
HETATM   11  C10 LIG X 999      44.728 131.131  20.449  1.00  0.00    -0.026 A 
HETATM   12  C11 LIG X 999      45.000 130.938  21.812  1.00  0.00     0.012 A 
HETATM   13  C15 LIG X 999      43.480 131.668  20.053  1.00  0.00    -0.025 A 
HETATM   14  C12 LIG X 999      44.042 131.276  22.773  1.00  0.00     0.001 A 
HETATM   15  C13 LIG X 999      42.809 131.806  22.382  1.00  0.00     0.001 A 
HETATM   16  C14 LIG X 999      42.526 132.001  21.028  1.00  0.00     0.012 A 
HETATM   17  C16 LIG X 999      43.207 131.861  18.690  1.00  0.00     0.021 A 
ENDBRANCH   7   8
ENDBRANCH   4   7
ENDBRANCH   3   4
TORSDOF 3
ENDMDL
MODEL 3
REMARK VINA RESULT:      -8.5      0.711      1.699
REMARK  3 active torsions:
REMARK  status: ('A' for Active; 'I' for Inactive)
REMARK    1  A    between atoms: C3_3  and  N1_4 
REMARK    2  A    between atoms: N1_4  and  C6_7 
REMARK    3  A    between atoms: C6_7  and  C7_8 
ROOT
HETATM    1  C1  LIG X 999      48.237 129.531  13.977  1.00  0.00     0.013 C 
HETATM    2  C2  LIG X 999      47.186 130.113  13.876  1.00  0.00    -0.089 C 
HETATM    3  C3  LIG X 999      45.899 130.824  13.748  1.00  0.00     0.329 C 
ENDROOT
BRANCH   3   4
HETATM    4  N1  LIG X 999      45.124 130.887  15.025  1.00  0.00    -0.061 N 
HETATM    5  C4  LIG X 999      45.008 129.510  15.570  1.00  0.00     0.273 C 
HETATM    6  C5  LIG X 999      43.746 131.375  14.752  1.00  0.00     0.273 C 
BRANCH   4   7
HETATM    7  C6  LIG X 999      45.753 131.795  16.038  1.00  0.00     0.276 C 
BRANCH   7   8
HETATM    8  C7  LIG X 999      45.365 131.502  17.477  1.00  0.00    -0.032 A 
HETATM    9  C8  LIG X 999      46.126 130.609  18.249  1.00  0.00     0.010 A 
HETATM   10  C9  LIG X 999      45.773 130.333  19.572  1.00  0.00     0.013 A 
HETATM   11  C10 LIG X 999      44.645 130.937  20.143  1.00  0.00    -0.026 A 
HETATM   12  C11 LIG X 999      44.284 130.668  21.472  1.00  0.00     0.012 A 
HETATM   13  C15 LIG X 999      43.860 131.824  19.368  1.00  0.00    -0.025 A 
HETATM   14  C12 LIG X 999      43.152 131.273  22.026  1.00  0.00     0.001 A 
HETATM   15  C13 LIG X 999      42.376 132.149  21.262  1.00  0.00     0.001 A 
HETATM   16  C14 LIG X 999      42.726 132.424  19.937  1.00  0.00     0.012 A 
HETATM   17  C16 LIG X 999      44.221 132.094  18.040  1.00  0.00     0.021 A 
ENDBRANCH   7   8
ENDBRANCH   4   7
ENDBRANCH   3   4
TORSDOF 3
ENDMDL
MODEL 4
REMARK VINA RESULT:      -7.9      1.737      6.403
REMARK  3 active torsions:
REMARK  status: ('A' for Active; 'I' for Inactive)
REMARK    1  A    between atoms: C3_3  and  N1_4 
REMARK    2  A    between atoms: N1_4  and  C6_7 
REMARK    3  A    between atoms: C6_7  and  C7_8 
ROOT
HETATM    1  C1  LIG X 999      41.563 133.225  20.560  1.00  0.00     0.013 C 
HETATM    2  C2  LIG X 999      42.338 132.566  19.913  1.00  0.00    -0.089 C 
HETATM    3  C3  LIG X 999      43.286 131.761  19.118  1.00  0.00     0.329 C 
ENDROOT
BRANCH   3   4
HETATM    4  N1  LIG X 999      44.497 131.338  19.885  1.00  0.00    -0.061 N 
HETATM    5  C4  LIG X 999      44.057 130.819  21.205  1.00  0.00     0.273 C 
HETATM    6  C5  LIG X 999      45.366 132.518  20.138  1.00  0.00     0.273 C 
BRANCH   4   7
HETATM    7  C6  LIG X 999      45.305 130.304  19.163  1.00  0.00     0.276 C 
BRANCH   7   8
HETATM    8  C7  LIG X 999      45.670 130.670  17.735  1.00  0.00    -0.032 A 
HETATM    9  C8  LIG X 999      45.202 131.868  17.169  1.00  0.00     0.010 A 
HETATM   10  C9  LIG X 999      45.531 132.211  15.855  1.00  0.00     0.013 A 
HETATM   11  C10 LIG X 999      46.325 131.355  15.080  1.00  0.00    -0.026 A 
HETATM   12  C11 LIG X 999      46.662 131.691  13.760  1.00  0.00     0.012 A 
HETATM   13  C15 LIG X 999      46.787 130.137  15.634  1.00  0.00    -0.025 A 
HETATM   14  C12 LIG X 999      47.451 130.825  12.997  1.00  0.00     0.001 A 
HETATM   15  C13 LIG X 999      47.907 129.621  13.542  1.00  0.00     0.001 A 
HETATM   16  C14 LIG X 999      47.576 129.276  14.855  1.00  0.00     0.012 A 
HETATM   17  C16 LIG X 999      46.450 129.800  16.953  1.00  0.00     0.021 A 
ENDBRANCH   7   8
ENDBRANCH   4   7
ENDBRANCH   3   4
TORSDOF 3
ENDMDL
MODEL 5
REMARK VINA RESULT:      -7.5      1.060      1.424
REMARK  3 active torsions:
REMARK  status: ('A' for Active; 'I' for Inactive)
REMARK    1  A    between atoms: C3_3  and  N1_4 
REMARK    2  A    between atoms: N1_4  and  C6_7 
REMARK    3  A    between atoms: C6_7  and  C7_8 
ROOT
HETATM    1  C1  LIG X 999      47.482 130.826  13.229  1.00  0.00     0.013 C 
HETATM    2  C2  LIG X 999      46.868 131.310  14.147  1.00  0.00    -0.089 C 
HETATM    3  C3  LIG X 999      46.116 131.904  15.269  1.00  0.00     0.329 C 
ENDROOT
BRANCH   3   4
HETATM    4  N1  LIG X 999      45.353 130.901  16.073  1.00  0.00    -0.061 N 
HETATM    5  C4  LIG X 999      45.318 129.624  15.315  1.00  0.00     0.273 C 
HETATM    6  C5  LIG X 999      43.948 131.357  16.240  1.00  0.00     0.273 C 
BRANCH   4   7
HETATM    7  C6  LIG X 999      45.943 130.682  17.433  1.00  0.00     0.276 C 
BRANCH   7   8
HETATM    8  C7  LIG X 999      45.023 131.045  18.586  1.00  0.00    -0.032 A 
HETATM    9  C8  LIG X 999      43.864 131.805  18.357  1.00  0.00     0.010 A 
HETATM   10  C9  LIG X 999      43.015 132.146  19.412  1.00  0.00     0.013 A 
HETATM   11  C10 LIG X 999      43.316 131.740  20.719  1.00  0.00    -0.026 A 
HETATM   12  C11 LIG X 999      42.469 132.076  21.786  1.00  0.00     0.012 A 
HETATM   13  C15 LIG X 999      44.491 130.990  20.965  1.00  0.00    -0.025 A 
HETATM   14  C12 LIG X 999      42.785 131.669  23.086  1.00  0.00     0.001 A 
HETATM   15  C13 LIG X 999      43.945 130.929  23.330  1.00  0.00     0.001 A 
HETATM   16  C14 LIG X 999      44.797 130.590  22.276  1.00  0.00     0.012 A 
HETATM   17  C16 LIG X 999      45.339 130.655  19.899  1.00  0.00     0.021 A 
ENDBRANCH   7   8
ENDBRANCH   4   7
ENDBRANCH   3   4
TORSDOF 3
ENDMDL
MODEL 6
REMARK VINA RESULT:      -7.3      1.662      6.574
REMARK  3 active torsions:
REMARK  status: ('A' for Active; 'I' for Inactive)
REMARK    1  A    between atoms: C3_3  and  N1_4 
REMARK    2  A    between atoms: N1_4  and  C6_7 
REMARK    3  A    between atoms: C6_7  and  C7_8 
ROOT
HETATM    1  C1  LIG X 999      43.762 130.749  22.909  1.00  0.00     0.013 C 
HETATM    2  C2  LIG X 999      43.555 131.060  21.763  1.00  0.00    -0.089 C 
HETATM    3  C3  LIG X 999      43.298 131.442  20.360  1.00  0.00     0.329 C 
ENDROOT
BRANCH   3   4
HETATM    4  N1  LIG X 999      44.543 131.700  19.576  1.00  0.00    -0.061 N 
HETATM    5  C4  LIG X 999      45.412 130.499  19.669  1.00  0.00     0.273 C 
HETATM    6  C5  LIG X 999      45.289 132.836  20.180  1.00  0.00     0.273 C 
BRANCH   4   7
HETATM    7  C6  LIG X 999      44.264 132.029  18.141  1.00  0.00     0.276 C 
BRANCH   7   8
HETATM    8  C7  LIG X 999      45.130 131.283  17.141  1.00  0.00    -0.032 A 
HETATM    9  C8  LIG X 999      45.449 129.931  17.349  1.00  0.00     0.010 A 
HETATM   10  C9  LIG X 999      46.248 129.238  16.436  1.00  0.00     0.013 A 
HETATM   11  C10 LIG X 999      46.752 129.891  15.303  1.00  0.00    -0.026 A 
HETATM   12  C11 LIG X 999      47.554 129.204  14.379  1.00  0.00     0.012 A 
HETATM   13  C15 LIG X 999      46.454 131.259  15.093  1.00  0.00    -0.025 A 
HETATM   14  C12 LIG X 999      48.055 129.869  13.256  1.00  0.00     0.001 A 
HETATM   15  C13 LIG X 999      47.762 131.220  13.048  1.00  0.00     0.001 A 
HETATM   16  C14 LIG X 999      46.965 131.915  13.962  1.00  0.00     0.012 A 
HETATM   17  C16 LIG X 999      45.652 131.946  16.017  1.00  0.00     0.021 A 
ENDBRANCH   7   8
ENDBRANCH   4   7
ENDBRANCH   3   4
TORSDOF 3
ENDMDL
MODEL 7
REMARK VINA RESULT:      -7.1      1.727      6.569
REMARK  3 active torsions:
REMARK  status: ('A' for Active; 'I' for Inactive)
REMARK    1  A    between atoms: C3_3  and  N1_4 
REMARK    2  A    between atoms: N1_4  and  C6_7 
REMARK    3  A    between atoms: C6_7  and  C7_8 
ROOT
HETATM    1  C1  LIG X 999      42.246 132.208  22.500  1.00  0.00     0.013 C 
HETATM    2  C2  LIG X 999      43.153 131.573  22.023  1.00  0.00    -0.089 C 
HETATM    3  C3  LIG X 999      44.262 130.792  21.440  1.00  0.00     0.329 C 
ENDROOT
BRANCH   3   4
HETATM    4  N1  LIG X 999      44.678 131.269  20.086  1.00  0.00    -0.061 N 
HETATM    5  C4  LIG X 999      45.637 132.390  20.259  1.00  0.00     0.273 C 
HETATM    6  C5  LIG X 999      43.496 131.803  19.359  1.00  0.00     0.273 C 
BRANCH   4   7
HETATM    7  C6  LIG X 999      45.292 130.183  19.255  1.00  0.00     0.276 C 
BRANCH   7   8
HETATM    8  C7  LIG X 999      45.650 130.597  17.839  1.00  0.00    -0.032 A 
HETATM    9  C8  LIG X 999      45.191 131.820  17.320  1.00  0.00     0.010 A 
HETATM   10  C9  LIG X 999      45.512 132.207  16.017  1.00  0.00     0.013 A 
HETATM   11  C10 LIG X 999      46.291 131.371  15.205  1.00  0.00    -0.026 A 
HETATM   12  C11 LIG X 999      46.621 131.751  13.895  1.00  0.00     0.012 A 
HETATM   13  C15 LIG X 999      46.743 130.128  15.710  1.00  0.00    -0.025 A 
HETATM   14  C12 LIG X 999      47.394 130.904  13.094  1.00  0.00     0.001 A 
HETATM   15  C13 LIG X 999      47.840 129.677  13.592  1.00  0.00     0.001 A 
HETATM   16  C14 LIG X 999      47.516 129.288  14.894  1.00  0.00     0.012 A 
HETATM   17  C16 LIG X 999      46.413 129.748  17.019  1.00  0.00     0.021 A 
ENDBRANCH   7   8
ENDBRANCH   4   7
ENDBRANCH   3   4
TORSDOF 3
ENDMDL
MODEL 8
REMARK VINA RESULT:      -6.6      1.121      2.845
REMARK  3 active torsions:
REMARK  status: ('A' for Active; 'I' for Inactive)
REMARK    1  A    between atoms: C3_3  and  N1_4 
REMARK    2  A    between atoms: N1_4  and  C6_7 
REMARK    3  A    between atoms: C6_7  and  C7_8 
ROOT
HETATM    1  C1  LIG X 999      43.125 131.580  13.853  1.00  0.00     0.013 C 
HETATM    2  C2  LIG X 999      43.958 131.607  14.724  1.00  0.00    -0.089 C 
HETATM    3  C3  LIG X 999      44.975 131.641  15.793  1.00  0.00     0.329 C 
ENDROOT
BRANCH   3   4
HETATM    4  N1  LIG X 999      45.830 130.416  15.841  1.00  0.00    -0.061 N 
HETATM    5  C4  LIG X 999      46.858 130.522  14.774  1.00  0.00     0.273 C 
HETATM    6  C5  LIG X 999      45.003 129.217  15.544  1.00  0.00     0.273 C 
BRANCH   4   7
HETATM    7  C6  LIG X 999      46.485 130.220  17.174  1.00  0.00     0.276 C 
BRANCH   7   8
HETATM    8  C7  LIG X 999      45.640 130.649  18.362  1.00  0.00    -0.032 A 
HETATM    9  C8  LIG X 999      46.038 130.324  19.669  1.00  0.00     0.010 A 
HETATM   10  C9  LIG X 999      45.265 130.712  20.766  1.00  0.00     0.013 A 
HETATM   11  C10 LIG X 999      44.074 131.424  20.573  1.00  0.00    -0.026 A 
HETATM   12  C11 LIG X 999      43.292 131.821  21.669  1.00  0.00     0.012 A 
HETATM   13  C15 LIG X 999      43.653 131.741  19.260  1.00  0.00    -0.025 A 
HETATM   14  C12 LIG X 999      42.102 132.526  21.461  1.00  0.00     0.001 A 
HETATM   15  C13 LIG X 999      41.686 132.839  20.164  1.00  0.00     0.001 A 
HETATM   16  C14 LIG X 999      42.456 132.448  19.066  1.00  0.00     0.012 A 
HETATM   17  C16 LIG X 999      44.435 131.345  18.164  1.00  0.00     0.021 A 
ENDBRANCH   7   8
ENDBRANCH   4   7
ENDBRANCH   3   4
TORSDOF 3
ENDMDL
MODEL 9
REMARK VINA RESULT:      -6.5      2.785      6.763
REMARK  3 active torsions:
REMARK  status: ('A' for Active; 'I' for Inactive)
REMARK    1  A    between atoms: C3_3  and  N1_4 
REMARK    2  A    between atoms: N1_4  and  C6_7 
REMARK    3  A    between atoms: C6_7  and  C7_8 
ROOT
HETATM    1  C1  LIG X 999      44.872 127.589  23.137  1.00  0.00     0.013 C 
HETATM    2  C2  LIG X 999      44.612 128.667  23.608  1.00  0.00    -0.089 C 
HETATM    3  C3  LIG X 999      44.296 129.988  24.187  1.00  0.00     0.329 C 
ENDROOT
BRANCH   3   4
HETATM    4  N1  LIG X 999      43.363 130.798  23.346  1.00  0.00    -0.061 N 
HETATM    5  C4  LIG X 999      42.319 131.377  24.230  1.00  0.00     0.273 C 
HETATM    6  C5  LIG X 999      42.676 129.915  22.367  1.00  0.00     0.273 C 
BRANCH   4   7
HETATM    7  C6  LIG X 999      44.064 131.885  22.589  1.00  0.00     0.276 C 
BRANCH   7   8
HETATM    8  C7  LIG X 999      44.505 131.497  21.189  1.00  0.00    -0.032 A 
HETATM    9  C8  LIG X 999      45.697 130.779  20.994  1.00  0.00     0.010 A 
HETATM   10  C9  LIG X 999      46.110 130.421  19.708  1.00  0.00     0.013 A 
HETATM   11  C10 LIG X 999      45.343 130.784  18.594  1.00  0.00    -0.026 A 
HETATM   12  C11 LIG X 999      45.749 130.428  17.298  1.00  0.00     0.012 A 
HETATM   13  C15 LIG X 999      44.150 131.524  18.776  1.00  0.00    -0.025 A 
HETATM   14  C12 LIG X 999      44.977 130.802  16.194  1.00  0.00     0.001 A 
HETATM   15  C13 LIG X 999      43.799 131.533  16.373  1.00  0.00     0.001 A 
HETATM   16  C14 LIG X 999      43.386 131.894  17.658  1.00  0.00     0.012 A 
HETATM   17  C16 LIG X 999      43.744 131.881  20.070  1.00  0.00     0.021 A 
ENDBRANCH   7   8
ENDBRANCH   4   7
ENDBRANCH   3   4
TORSDOF 3
ENDMDL
