REMARK VINA RESULT:      -6.0      2.268      2.675
REMARK  4 active torsions:
REMARK  status: ('A' for Active; 'I' for Inactive)
REMARK    1  A    between atoms: C1_1  and  C2_6 
REMARK    2  A    between atoms: N1_2  and  N2_3 
REMARK    3  A    between atoms: C2_6  and  C3_8 
REMARK    4  A    between atoms: C11_16  and  N4_17 
ROOT
HETATM    1  N4  LIG X 999      43.161 131.689  16.972  1.00  0.00    -0.105 NA
HETATM    2  N5  LIG X 999      42.371 131.944  17.883  1.00  0.00    -0.167 NA
HETATM    3  N6  LIG X 999      41.582 132.198  18.791  1.00  0.00     0.068 N 
ENDROOT
BRANCH   1   4
HETATM    4  C11 LIG X 999      44.542 132.165  17.004  1.00  0.00     0.179 C 
HETATM    5  C10 LIG X 999      45.397 131.356  16.044  1.00  0.00    -0.024 A 
HETATM    6  C5  LIG X 999      46.212 130.286  16.494  1.00  0.00    -0.049 A 
HETATM    7  C9  LIG X 999      45.315 131.623  14.666  1.00  0.00     0.010 A 
HETATM    8  C4  LIG X 999      46.440 130.029  17.965  1.00  0.00     0.051 C 
HETATM    9  C6  LIG X 999      46.933 129.527  15.559  1.00  0.00     0.007 A 
HETATM   10  C3  LIG X 999      45.331 130.626  18.848  1.00  0.00     0.068 C 
HETATM   11  C12 LIG X 999      45.069 132.085  18.444  1.00  0.00     0.048 C 
HETATM   12  C7  LIG X 999      46.833 129.802  14.194  1.00  0.00     0.001 A 
HETATM   13  C8  LIG X 999      46.027 130.849  13.748  1.00  0.00     0.001 A 
BRANCH  10  14
HETATM   14  C2  LIG X 999      45.688 130.547  20.318  1.00  0.00     0.172 C 
HETATM   15  O1  LIG X 999      45.902 129.425  20.852  1.00  0.00    -0.291 OA
BRANCH  14  16
HETATM   16  C1  LIG X 999      45.864 131.757  21.139  1.00  0.00     0.190 C 
HETATM   17  N1  LIG X 999      47.017 132.344  21.225  1.00  0.00    -0.165 NA
BRANCH  17  18
HETATM   18  N2  LIG X 999      47.204 133.490  22.011  1.00  0.00    -0.177 N 
HETATM   19  H2  LIG X 999      46.450 133.838  22.645  1.00  0.00     0.214 HD
HETATM   20  N3  LIG X 999      48.310 134.110  21.964  1.00  0.00    -0.031 N 
ENDBRANCH  17  18
ENDBRANCH  14  16
ENDBRANCH  10  14
ENDBRANCH   1   4
TORSDOF 4
