REMARK VINA RESULT:      -8.4      0.764      2.643
REMARK  1 active torsions:
REMARK  status: ('A' for Active; 'I' for Inactive)
REMARK    1  A    between atoms: C2_5  and  C3_6 
ROOT
HETATM    1  C3  LIG X 999      45.310 130.902  18.327  1.00  0.00     0.030 A 
HETATM    2  C4  LIG X 999      46.242 130.559  19.328  1.00  0.00     0.017 A 
HETATM    3  C5  LIG X 999      45.978 130.780  20.676  1.00  0.00     0.002 A 
HETATM    4  C6  LIG X 999      44.775 131.348  21.069  1.00  0.00     0.012 A 
HETATM    5  C7  LIG X 999      43.816 131.707  20.114  1.00  0.00    -0.025 A 
HETATM    6  C8  LIG X 999      42.609 132.280  20.545  1.00  0.00     0.012 A 
HETATM    7  C9  LIG X 999      41.634 132.647  19.622  1.00  0.00     0.001 A 
HETATM    8  C10 LIG X 999      41.854 132.446  18.263  1.00  0.00     0.001 A 
HETATM    9  C11 LIG X 999      43.048 131.877  17.814  1.00  0.00     0.013 A 
HETATM   10  C12 LIG X 999      44.063 131.491  18.724  1.00  0.00    -0.011 A 
ENDROOT
BRANCH   1  11
HETATM   11  C2  LIG X 999      45.731 130.607  16.920  1.00  0.00     0.203 A 
HETATM   12  O1  LIG X 999      46.173 131.534  16.091  1.00  0.00    -0.255 OA
HETATM   13  C1  LIG X 999      46.435 130.898  14.978  1.00  0.00     0.262 A 
HETATM   14  N1  LIG X 999      46.894 131.456  13.906  1.00  0.00    -0.260 NA
HETATM   15  N3  LIG X 999      46.165 129.592  15.087  1.00  0.00    -0.238 N 
HETATM   16  H1  LIG X 999      47.086 132.482  13.878  1.00  0.00     0.190 HD
HETATM   17  N2  LIG X 999      45.718 129.398  16.316  1.00  0.00    -0.145 NA
HETATM   18  H9  LIG X 999      46.277 128.849  14.362  1.00  0.00     0.193 HD
ENDBRANCH   1  11
TORSDOF 1
