REMARK VINA RESULT:      -6.8      1.917      2.202
REMARK  3 active torsions:
REMARK  status: ('A' for Active; 'I' for Inactive)
REMARK    1  A    between atoms: C1_2  and  C2_4 
REMARK       I    between atoms: N1_6  and  C4_7 
REMARK    2  A    between atoms: C4_7  and  C5_9 
REMARK    3  A    between atoms: C6_10  and  C7_11 
ROOT
HETATM    1  C5  LIG X 999      44.304 131.308  20.824  1.00  0.00     0.000 C 
HETATM    2  C6  LIG X 999      44.477 131.268  19.632  1.00  0.00    -0.057 C 
ENDROOT
BRANCH   1   3
HETATM    3  C4  LIG X 999      44.107 131.360  22.248  1.00  0.00     0.300 C 
HETATM    4  N1  LIG X 999      43.274 130.395  22.908  1.00  0.00    -0.317 N 
HETATM    5  C3  LIG X 999      42.573 129.326  22.258  1.00  0.00     0.172 C 
HETATM    6  C17 LIG X 999      43.035 130.358  24.334  1.00  0.00     0.298 C 
HETATM    7  C2  LIG X 999      41.775 128.704  23.396  1.00  0.00     0.242 C 
HETATM    8  O4  LIG X 999      42.248 129.224  24.625  1.00  0.00    -0.354 OA
HETATM    9  O3  LIG X 999      44.676 132.265  22.913  1.00  0.00    -0.258 OA
BRANCH   7  10
HETATM   10  C1  LIG X 999      41.894 127.209  23.397  1.00  0.00     0.204 C 
HETATM   11  O1  LIG X 999      43.028 126.665  23.363  1.00  0.00    -0.646 OA
HETATM   12  O2  LIG X 999      40.754 126.418  23.488  1.00  0.00    -0.646 OA
ENDBRANCH   7  10
ENDBRANCH   1   3
BRANCH   2  13
HETATM   13  C7  LIG X 999      44.689 131.221  18.209  1.00  0.00     0.019 A 
HETATM   14  C8  LIG X 999      43.750 131.794  17.343  1.00  0.00     0.021 A 
HETATM   15  C9  LIG X 999      43.949 131.752  15.960  1.00  0.00     0.013 A 
HETATM   16  C10 LIG X 999      45.093 131.136  15.430  1.00  0.00    -0.026 A 
HETATM   17  C11 LIG X 999      45.303 131.089  14.044  1.00  0.00     0.012 A 
HETATM   18  C15 LIG X 999      46.046 130.556  16.304  1.00  0.00    -0.025 A 
HETATM   19  C12 LIG X 999      46.447 130.472  13.529  1.00  0.00     0.001 A 
HETATM   20  C13 LIG X 999      47.387 129.900  14.391  1.00  0.00     0.001 A 
HETATM   21  C14 LIG X 999      47.189 129.941  15.774  1.00  0.00     0.012 A 
HETATM   22  C16 LIG X 999      45.836 130.604  17.692  1.00  0.00     0.032 A 
ENDBRANCH   2  13
TORSDOF 3
