REMARK VINA RESULT:      -5.4      3.306      4.977
REMARK  2 active torsions:
REMARK  status: ('A' for Active; 'I' for Inactive)
REMARK    1  A    between atoms: N1_1  and  C1_2 
REMARK    2  A    between atoms: C2_5  and  C3_6 
ROOT
HETATM    1  C3  LIG X 999      43.523 131.115  21.878  1.00  0.00     0.030 A 
HETATM    2  C4  LIG X 999      42.817 132.018  22.691  1.00  0.00     0.017 A 
HETATM    3  C5  LIG X 999      42.614 131.758  24.044  1.00  0.00     0.002 A 
HETATM    4  C6  LIG X 999      43.113 130.592  24.618  1.00  0.00     0.012 A 
HETATM    5  C7  LIG X 999      43.845 129.681  23.845  1.00  0.00    -0.025 A 
HETATM    6  C8  LIG X 999      44.364 128.522  24.442  1.00  0.00     0.012 A 
HETATM    7  C9  LIG X 999      45.126 127.626  23.693  1.00  0.00     0.001 A 
HETATM    8  C10 LIG X 999      45.388 127.884  22.349  1.00  0.00     0.001 A 
HETATM    9  C11 LIG X 999      44.876 129.032  21.737  1.00  0.00     0.013 A 
HETATM   10  C12 LIG X 999      44.074 129.940  22.464  1.00  0.00    -0.011 A 
ENDROOT
BRANCH   1  11
HETATM   11  C2  LIG X 999      43.619 131.424  20.431  1.00  0.00     0.203 A 
HETATM   12  N3  LIG X 999      42.560 131.766  19.663  1.00  0.00    -0.145 NA
HETATM   13  N2  LIG X 999      43.040 131.928  18.442  1.00  0.00    -0.240 N 
HETATM   14  C1  LIG X 999      44.356 131.675  18.501  1.00  0.00     0.240 A 
HETATM   15  H3  LIG X 999      42.478 132.197  17.604  1.00  0.00     0.193 HD
HETATM   16  O1  LIG X 999      44.724 131.361  19.717  1.00  0.00    -0.257 OA
BRANCH  14  17
HETATM   17  N1  LIG X 999      45.238 131.739  17.384  1.00  0.00    -0.364 N 
HETATM   18  H1  LIG X 999      44.867 131.970  16.436  1.00  0.00     0.159 HD
HETATM   19  H2  LIG X 999      46.258 131.555  17.505  1.00  0.00     0.159 HD
ENDBRANCH  14  17
ENDBRANCH   1  11
TORSDOF 2
