REMARK VINA RESULT:      -3.9      8.142      8.994
REMARK  2 active torsions:
REMARK  status: ('A' for Active; 'I' for Inactive)
REMARK    1  A    between atoms: C9_10  and  N2_11 
REMARK       I    between atoms: N2_11  and  C10_12 
REMARK    2  A    between atoms: C10_12  and  C11_14 
ROOT
HETATM    1  C11 LIG X 999      41.039 125.676  23.472  1.00  0.00     0.282 C 
HETATM    2 CL1  LIG X 999      40.005 124.794  24.625  1.00  0.00    -0.099 Cl
HETATM    3  C12 LIG X 999      41.571 126.881  24.117  1.00  0.00     0.089 C 
HETATM    4  N3  LIG X 999      41.990 127.832  24.625  1.00  0.00    -0.195 NA
ENDROOT
BRANCH   1   5
HETATM    5  C10 LIG X 999      42.163 124.801  23.015  1.00  0.00     0.276 C 
HETATM    6  N2  LIG X 999      43.402 125.392  22.598  1.00  0.00    -0.212 NA
HETATM    7  O1  LIG X 999      41.987 123.555  22.937  1.00  0.00    -0.268 OA
BRANCH   6   8
HETATM    8  C9  LIG X 999      44.643 124.706  22.375  1.00  0.00     0.061 A 
HETATM    9  C8  LIG X 999      44.606 123.342  22.062  1.00  0.00     0.032 A 
HETATM   10  C7  LIG X 999      45.784 122.633  21.818  1.00  0.00     0.014 A 
HETATM   11  C6  LIG X 999      47.022 123.285  21.866  1.00  0.00    -0.025 A 
HETATM   12  C5  LIG X 999      48.217 122.579  21.623  1.00  0.00     0.021 A 
HETATM   13  C14 LIG X 999      47.071 124.678  22.160  1.00  0.00    -0.023 A 
HETATM   14  C4  LIG X 999      49.425 123.274  21.667  1.00  0.00    -0.024 A 
HETATM   15  C3  LIG X 999      50.789 122.738  21.467  1.00  0.00     0.276 C 
HETATM   16  C16 LIG X 999      49.472 124.607  21.944  1.00  0.00    -0.024 A 
HETATM   17  N1  LIG X 999      51.698 123.928  21.491  1.00  0.00    -0.067 N 
HETATM   18  C1  LIG X 999      52.836 123.698  22.408  1.00  0.00     0.272 C 
HETATM   19  C2  LIG X 999      52.223 124.193  20.129  1.00  0.00     0.272 C 
HETATM   20  C17 LIG X 999      50.870 125.086  21.955  1.00  0.00     0.276 C 
HETATM   21  C15 LIG X 999      48.313 125.342  22.198  1.00  0.00     0.021 A 
HETATM   22  C13 LIG X 999      45.878 125.377  22.404  1.00  0.00     0.044 A 
ENDBRANCH   6   8
ENDBRANCH   1   5
TORSDOF 2
