REMARK VINA RESULT:      -8.6      4.217      7.247
REMARK  2 active torsions:
REMARK  status: ('A' for Active; 'I' for Inactive)
REMARK    1  A    between atoms: C6_6  and  C7_7 
REMARK    2  A    between atoms: C8_11  and  N3_12 
ROOT
HETATM    1  N3  LIG X 999      42.750 131.492  23.082  1.00  0.00    -0.025 NA
HETATM    2  N4  LIG X 999      42.363 130.484  23.672  1.00  0.00    -0.158 NA
HETATM    3  N5  LIG X 999      41.975 129.477  24.262  1.00  0.00     0.068 N 
ENDROOT
BRANCH   1   4
HETATM    4  C8  LIG X 999      43.681 131.406  22.001  1.00  0.00     0.302 A 
HETATM    5  N2  LIG X 999      45.015 131.324  22.139  1.00  0.00    -0.236 N 
HETATM    6  N1  LIG X 999      45.527 131.261  20.922  1.00  0.00    -0.145 NA
HETATM    7  H5  LIG X 999      45.569 131.311  23.023  1.00  0.00     0.193 HD
HETATM    8  C7  LIG X 999      44.472 131.307  20.078  1.00  0.00     0.202 A 
HETATM    9  O1  LIG X 999      43.335 131.396  20.738  1.00  0.00    -0.253 OA
BRANCH   8  10
HETATM   10  C6  LIG X 999      44.578 131.264  18.606  1.00  0.00     0.020 A 
HETATM   11  C5  LIG X 999      45.704 130.696  17.988  1.00  0.00     0.028 A 
HETATM   12  C4  LIG X 999      45.801 130.657  16.588  1.00  0.00    -0.025 A 
HETATM   13  C3  LIG X 999      46.925 130.091  15.964  1.00  0.00     0.012 A 
HETATM   14  C11 LIG X 999      44.758 131.193  15.796  1.00  0.00    -0.026 A 
HETATM   15  C2  LIG X 999      47.010 130.058  14.569  1.00  0.00     0.001 A 
HETATM   16  C1  LIG X 999      45.979 130.586  13.788  1.00  0.00     0.001 A 
HETATM   17  C12 LIG X 999      44.856 131.152  14.396  1.00  0.00     0.012 A 
HETATM   18  C10 LIG X 999      43.636 131.758  16.418  1.00  0.00     0.013 A 
HETATM   19  C9  LIG X 999      43.548 131.793  17.812  1.00  0.00     0.017 A 
ENDBRANCH   8  10
ENDBRANCH   1   4
TORSDOF 2
