REMARK VINA RESULT:      -4.9      4.945      6.618
REMARK  1 active torsions:
REMARK  status: ('A' for Active; 'I' for Inactive)
REMARK    1  A    between atoms: C10_11  and  N2_12 
ROOT
HETATM    1  N2  LIG X 999      43.674 131.248  22.492  1.00  0.00    -0.052 NA
HETATM    2  N3  LIG X 999      43.312 131.682  21.396  1.00  0.00    -0.160 NA
HETATM    3  N4  LIG X 999      42.952 132.116  20.303  1.00  0.00     0.068 N 
ENDROOT
BRANCH   1   4
HETATM    4  C10 LIG X 999      43.549 129.866  22.849  1.00  0.00     0.186 C 
HETATM    5  N1  LIG X 999      42.371 129.425  23.347  1.00  0.00    -0.226 NA
HETATM    6  C9  LIG X 999      42.158 128.128  23.687  1.00  0.00     0.071 C 
HETATM    7  C8  LIG X 999      40.931 127.785  24.254  1.00  0.00     0.033 C 
HETATM    8  C14 LIG X 999      43.172 127.149  23.490  1.00  0.00     0.010 C 
HETATM    9  C7  LIG X 999      40.668 126.473  24.625  1.00  0.00     0.014 C 
HETATM   10  C5  LIG X 999      41.586 125.461  24.334  1.00  0.00    -0.025 C 
HETATM   11  C4  LIG X 999      42.824 125.772  23.700  1.00  0.00    -0.013 C 
HETATM   12  C6  LIG X 999      41.249 124.127  24.622  1.00  0.00     0.012 C 
HETATM   13  C3  LIG X 999      43.595 124.688  23.216  1.00  0.00     0.013 C 
HETATM   14  C2  LIG X 999      43.240 123.367  23.498  1.00  0.00     0.001 C 
HETATM   15  C1  LIG X 999      42.085 123.089  24.222  1.00  0.00     0.001 C 
HETATM   16  C12 LIG X 999      44.472 127.634  23.133  1.00  0.00    -0.045 C 
HETATM   17  C11 LIG X 999      44.624 128.977  22.752  1.00  0.00     0.063 C 
HETATM   18  C13 LIG X 999      45.747 126.838  23.281  1.00  0.00     0.049 C 
ENDBRANCH   1   4
TORSDOF 1
