REMARK VINA RESULT:      -5.4      3.317      6.191
REMARK  3 active torsions:
REMARK  status: ('A' for Active; 'I' for Inactive)
REMARK    1  A    between atoms: C3_3  and  S1_4 
REMARK    2  A    between atoms: S1_4  and  N1_7 
REMARK    3  A    between atoms: C10_16  and  N4_17 
ROOT
HETATM    1  N1  LIG X 999      44.767 130.480  14.538  1.00  0.00     0.026 NA
HETATM    2  N2  LIG X 999      43.840 131.163  14.103  1.00  0.00    -0.150 NA
HETATM    3  N3  LIG X 999      42.914 131.846  13.667  1.00  0.00     0.069 N 
ENDROOT
BRANCH   1   4
HETATM    4  S1  LIG X 999      45.788 131.099  15.786  1.00  0.00     0.311 S 
HETATM    5  O1  LIG X 999      46.375 132.408  15.339  1.00  0.00    -0.196 OA
HETATM    6  O2  LIG X 999      46.912 130.135  16.046  1.00  0.00    -0.196 OA
BRANCH   4   7
HETATM    7  C3  LIG X 999      44.847 131.342  17.254  1.00  0.00     0.084 A 
HETATM    8  C2  LIG X 999      43.457 131.491  17.188  1.00  0.00     0.026 A 
HETATM    9  C1  LIG X 999      42.713 131.668  18.356  1.00  0.00     0.009 A 
HETATM   10  C6  LIG X 999      43.347 131.711  19.607  1.00  0.00    -0.050 A 
HETATM   11  C5  LIG X 999      44.751 131.545  19.682  1.00  0.00    -0.023 A 
HETATM   12  C7  LIG X 999      42.490 131.799  20.848  1.00  0.00     0.039 C 
HETATM   13  C4  LIG X 999      45.487 131.363  18.498  1.00  0.00     0.035 A 
HETATM   14  C10 LIG X 999      45.493 131.637  21.003  1.00  0.00     0.179 C 
HETATM   15  C9  LIG X 999      44.568 131.346  22.194  1.00  0.00     0.035 C 
HETATM   16  C8  LIG X 999      43.287 132.177  22.101  1.00  0.00     0.007 C 
BRANCH  14  17
HETATM   17  N4  LIG X 999      46.076 132.968  21.161  1.00  0.00    -0.105 NA
HETATM   18  N5  LIG X 999      47.218 133.121  21.597  1.00  0.00    -0.167 NA
HETATM   19  N6  LIG X 999      48.358 133.273  22.031  1.00  0.00     0.068 N 
ENDBRANCH  14  17
ENDBRANCH   4   7
ENDBRANCH   1   4
TORSDOF 3
