REMARK VINA RESULT:      -6.0      2.707      5.104
REMARK  2 active torsions:
REMARK  status: ('A' for Active; 'I' for Inactive)
REMARK    1  A    between atoms: N1_1  and  C1_2 
REMARK    2  A    between atoms: C2_5  and  C3_6 
ROOT
HETATM    1  C3  LIG X 999      44.827 131.170  16.946  1.00  0.00     0.030 A 
HETATM    2  C4  LIG X 999      43.597 131.787  16.656  1.00  0.00     0.017 A 
HETATM    3  C5  LIG X 999      43.183 131.978  15.339  1.00  0.00     0.002 A 
HETATM    4  C6  LIG X 999      43.988 131.562  14.282  1.00  0.00     0.012 A 
HETATM    5  C7  LIG X 999      45.232 130.968  14.533  1.00  0.00    -0.025 A 
HETATM    6  C8  LIG X 999      46.045 130.576  13.458  1.00  0.00     0.012 A 
HETATM    7  C9  LIG X 999      47.301 130.019  13.691  1.00  0.00     0.001 A 
HETATM    8  C10 LIG X 999      47.764 129.862  14.997  1.00  0.00     0.001 A 
HETATM    9  C11 LIG X 999      46.967 130.243  16.079  1.00  0.00     0.013 A 
HETATM   10  C12 LIG X 999      45.677 130.779  15.872  1.00  0.00    -0.011 A 
ENDROOT
BRANCH   1  11
HETATM   11  C2  LIG X 999      45.152 130.927  18.371  1.00  0.00     0.203 A 
HETATM   12  N3  LIG X 999      46.045 130.003  18.793  1.00  0.00    -0.145 NA
HETATM   13  N2  LIG X 999      46.080 130.114  20.109  1.00  0.00    -0.240 N 
HETATM   14  C1  LIG X 999      45.227 131.093  20.445  1.00  0.00     0.240 A 
HETATM   15  H3  LIG X 999      46.674 129.539  20.746  1.00  0.00     0.193 HD
HETATM   16  O1  LIG X 999      44.652 131.604  19.385  1.00  0.00    -0.257 OA
BRANCH  14  17
HETATM   17  N1  LIG X 999      44.979 131.521  21.781  1.00  0.00    -0.364 N 
HETATM   18  H1  LIG X 999      44.777 130.818  22.527  1.00  0.00     0.159 HD
HETATM   19  H2  LIG X 999      44.998 132.535  22.023  1.00  0.00     0.159 HD
ENDBRANCH  14  17
ENDBRANCH   1  11
TORSDOF 2
