REMARK VINA RESULT:      -6.5      0.000      0.000
REMARK  2 active torsions:
REMARK  status: ('A' for Active; 'I' for Inactive)
REMARK    1  A    between atoms: C9_10  and  N2_11 
REMARK       I    between atoms: N2_11  and  C10_12 
REMARK    2  A    between atoms: C10_12  and  C11_14 
ROOT
HETATM    1  C11 LIG X 999      46.939 130.488  13.599  1.00  0.00     0.282 C 
HETATM    2 CL1  LIG X 999      47.613 132.137  13.590  1.00  0.00    -0.099 Cl
HETATM    3  C12 LIG X 999      48.032 129.514  13.676  1.00  0.00     0.089 C 
HETATM    4  N3  LIG X 999      48.895 128.744  13.737  1.00  0.00    -0.195 NA
ENDROOT
BRANCH   1   5
HETATM    5  C10 LIG X 999      46.012 130.311  14.761  1.00  0.00     0.276 C 
HETATM    6  N2  LIG X 999      45.389 131.464  15.344  1.00  0.00    -0.212 NA
HETATM    7  O1  LIG X 999      45.728 129.152  15.169  1.00  0.00    -0.268 OA
BRANCH   6   8
HETATM    8  C9  LIG X 999      44.681 131.511  16.591  1.00  0.00     0.061 A 
HETATM    9  C8  LIG X 999      43.341 131.920  16.583  1.00  0.00     0.032 A 
HETATM   10  C7  LIG X 999      42.612 132.000  17.772  1.00  0.00     0.014 A 
HETATM   11  C6  LIG X 999      43.220 131.688  18.994  1.00  0.00    -0.025 A 
HETATM   12  C5  LIG X 999      42.494 131.765  20.198  1.00  0.00     0.021 A 
HETATM   13  C14 LIG X 999      44.589 131.296  19.017  1.00  0.00    -0.023 A 
HETATM   14  C4  LIG X 999      43.146 131.459  21.392  1.00  0.00    -0.024 A 
HETATM   15  C3  LIG X 999      42.581 131.452  22.759  1.00  0.00     0.276 C 
HETATM   16  C16 LIG X 999      44.456 131.088  21.416  1.00  0.00    -0.024 A 
HETATM   17  N1  LIG X 999      43.737 131.187  23.673  1.00  0.00    -0.067 N 
HETATM   18  C1  LIG X 999      44.072 132.413  24.437  1.00  0.00     0.272 C 
HETATM   19  C2  LIG X 999      43.413 130.100  24.625  1.00  0.00     0.272 C 
HETATM   20  C17 LIG X 999      44.889 130.797  22.800  1.00  0.00     0.276 C 
HETATM   21  C15 LIG X 999      45.209 130.992  20.245  1.00  0.00     0.021 A 
HETATM   22  C13 LIG X 999      45.309 131.219  17.815  1.00  0.00     0.044 A 
ENDBRANCH   6   8
ENDBRANCH   1   5
TORSDOF 2
