REMARK VINA RESULT:      -4.4      3.685      6.137
REMARK  6 active torsions:
REMARK  status: ('A' for Active; 'I' for Inactive)
REMARK    1  A    between atoms: C8_8  and  O1_9 
REMARK    2  A    between atoms: O1_9  and  C9_10 
REMARK    3  A    between atoms: C9_10  and  C10_11 
REMARK    4  A    between atoms: C10_11  and  C11_12 
REMARK    5  A    between atoms: C11_12  and  N1_13 
REMARK    6  A    between atoms: C13_18  and  N4_19 
ROOT
HETATM    1  N1  LIG X 999      46.546 124.304  22.611  1.00  0.00    -0.116 NA
HETATM    2  N2  LIG X 999      47.244 123.903  21.680  1.00  0.00    -0.168 NA
HETATM    3  N3  LIG X 999      47.942 123.502  20.749  1.00  0.00     0.068 N 
ENDROOT
BRANCH   1   4
HETATM    4  C11 LIG X 999      47.145 124.901  23.797  1.00  0.00     0.191 C 
BRANCH   4   5
HETATM    5  C10 LIG X 999      46.167 125.872  24.468  1.00  0.00     0.051 C 
BRANCH   5   6
HETATM    6  C9  LIG X 999      45.453 126.741  23.434  1.00  0.00     0.170 C 
BRANCH   6   7
HETATM    7  O1  LIG X 999      44.287 127.285  24.016  1.00  0.00    -0.384 OA
BRANCH   7   8
HETATM    8  C8  LIG X 999      44.101 128.632  23.610  1.00  0.00     0.146 C 
HETATM    9  C7  LIG X 999      44.974 128.906  22.373  1.00  0.00     0.072 C 
HETATM   10  C5  LIG X 999      44.597 130.170  21.635  1.00  0.00    -0.047 A 
HETATM   11  C4  LIG X 999      43.328 130.778  21.796  1.00  0.00    -0.023 A 
HETATM   12  C6  LIG X 999      45.487 130.674  20.672  1.00  0.00     0.008 A 
HETATM   13  C3  LIG X 999      42.993 131.892  21.003  1.00  0.00     0.010 A 
HETATM   14  C13 LIG X 999      42.359 130.314  22.864  1.00  0.00     0.199 C 
HETATM   15  C2  LIG X 999      43.894 132.389  20.062  1.00  0.00     0.001 A 
HETATM   16  C1  LIG X 999      45.140 131.782  19.897  1.00  0.00     0.001 A 
HETATM   17  C12 LIG X 999      42.620 128.847  23.257  1.00  0.00     0.143 C 
HETATM   18 CL1  LIG X 999      41.565 128.366  24.624  1.00  0.00    -0.120 Cl
BRANCH  14  19
HETATM   19  N4  LIG X 999      42.469 131.173  24.042  1.00  0.00    -0.104 NA
HETATM   20  N5  LIG X 999      43.516 131.766  24.309  1.00  0.00    -0.167 NA
HETATM   21  N6  LIG X 999      44.560 132.357  24.577  1.00  0.00     0.068 N 
ENDBRANCH  14  19
ENDBRANCH   7   8
ENDBRANCH   6   7
ENDBRANCH   5   6
ENDBRANCH   4   5
ENDBRANCH   1   4
TORSDOF 6
