REMARK VINA RESULT:      -6.2      2.725      7.007
REMARK  4 active torsions:
REMARK  status: ('A' for Active; 'I' for Inactive)
REMARK    1  A    between atoms: O1_2  and  C1_3 
REMARK    2  A    between atoms: C1_3  and  C5_11 
REMARK       I    between atoms: N1_4  and  C2_5 
REMARK    3  A    between atoms: C2_5  and  O3_7 
REMARK    4  A    between atoms: O3_7  and  C3_8 
ROOT
HETATM    1  C5  LIG X 999      44.330 129.100  22.724  1.00  0.00     0.054 A 
HETATM    2  C6  LIG X 999      43.319 128.901  23.692  1.00  0.00     0.122 A 
HETATM    3  O4  LIG X 999      42.487 129.942  24.091  1.00  0.00    -0.191 OA
HETATM    4  C7  LIG X 999      43.141 127.646  24.283  1.00  0.00     0.053 A 
HETATM    5  C8  LIG X 999      43.962 126.569  23.930  1.00  0.00    -0.023 A 
HETATM    6  C9  LIG X 999      43.785 125.308  24.523  1.00  0.00     0.012 A 
HETATM    7  C10 LIG X 999      44.611 124.241  24.162  1.00  0.00     0.001 A 
HETATM    8  C11 LIG X 999      45.617 124.422  23.209  1.00  0.00     0.001 A 
HETATM    9  C12 LIG X 999      45.803 125.672  22.613  1.00  0.00     0.012 A 
HETATM   10  C13 LIG X 999      44.979 126.753  22.967  1.00  0.00    -0.025 A 
HETATM   11  C14 LIG X 999      45.156 128.011  22.374  1.00  0.00     0.031 A 
ENDROOT
BRANCH   1  12
HETATM   12  C1  LIG X 999      44.534 130.427  22.074  1.00  0.00     0.181 C 
HETATM   13  N1  LIG X 999      44.464 130.516  20.774  1.00  0.00    -0.162 NA
HETATM   14  C2  LIG X 999      44.729 131.661  19.953  1.00  0.00     0.390 C 
HETATM   15  O2  LIG X 999      45.522 132.564  20.337  1.00  0.00    -0.236 OA
BRANCH  12  16
HETATM   16  O1  LIG X 999      44.761 131.550  22.875  1.00  0.00    -0.344 OA
HETATM   17  H1  LIG X 999      44.896 131.511  23.876  1.00  0.00     0.219 HD
ENDBRANCH  12  16
BRANCH  14  18
HETATM   18  O3  LIG X 999      44.163 131.717  18.677  1.00  0.00    -0.282 OA
BRANCH  18  19
HETATM   19  C3  LIG X 999      44.927 131.619  17.476  1.00  0.00     0.225 C 
HETATM   20 CL1  LIG X 999      43.836 131.529  16.065  1.00  0.00    -0.095 Cl
HETATM   21  C4  LIG X 999      45.792 130.369  17.531  1.00  0.00     0.057 C 
ENDBRANCH  18  19
ENDBRANCH  14  18
ENDBRANCH   1  12
TORSDOF 4
