REMARK VINA RESULT:      -5.9      2.414      7.200
REMARK  7 active torsions:
REMARK  status: ('A' for Active; 'I' for Inactive)
REMARK    1  A    between atoms: S1_2  and  C1_3 
REMARK    2  A    between atoms: C1_3  and  N2_11 
REMARK    3  A    between atoms: N1_4  and  C2_6 
REMARK    4  A    between atoms: C2_6  and  C3_7 
REMARK    5  A    between atoms: C3_7  and  C4_8 
REMARK    6  A    between atoms: C4_8  and  S2_9 
REMARK    7  A    between atoms: N2_11  and  C5_14 
ROOT
HETATM    1  N2  LIG X 999      44.932 132.020  19.668  1.00  0.00     0.006 N 
HETATM    2  H10 LIG X 999      45.891 131.893  19.272  1.00  0.00     0.293 HD
HETATM    3  H11 LIG X 999      44.872 133.019  19.974  1.00  0.00     0.293 HD
ENDROOT
BRANCH   1   4
HETATM    4  C1  LIG X 999      43.941 131.783  18.636  1.00  0.00     0.240 C 
HETATM    5  N1  LIG X 999      44.244 131.398  17.431  1.00  0.00    -0.365 N 
HETATM    6  H2  LIG X 999      43.476 131.260  16.758  1.00  0.00     0.161 HD
BRANCH   4   7
HETATM    7  S1  LIG X 999      42.211 132.125  19.011  1.00  0.00    -0.100 SA
HETATM    8  H1  LIG X 999      42.282 131.471  20.254  1.00  0.00     0.110 HD
ENDBRANCH   4   7
BRANCH   5   9
HETATM    9  C2  LIG X 999      45.580 131.081  16.958  1.00  0.00     0.122 C 
BRANCH   9  10
HETATM   10  C3  LIG X 999      45.833 131.750  15.600  1.00  0.00     0.029 C 
BRANCH  10  11
HETATM   11  C4  LIG X 999      45.869 130.743  14.446  1.00  0.00     0.072 C 
BRANCH  11  12
HETATM   12  S2  LIG X 999      47.321 131.000  13.375  1.00  0.00    -0.182 SA
HETATM   13  H9  LIG X 999      46.576 131.659  12.380  1.00  0.00     0.101 HD
ENDBRANCH  11  12
ENDBRANCH  10  11
ENDBRANCH   9  10
ENDBRANCH   5   9
ENDBRANCH   1   4
BRANCH   1  14
HETATM   14  C5  LIG X 999      44.708 131.197  20.833  1.00  0.00     0.141 A 
HETATM   15  C6  LIG X 999      43.967 131.692  21.922  1.00  0.00     0.038 A 
HETATM   16  C7  LIG X 999      43.750 130.905  23.056  1.00  0.00     0.014 A 
HETATM   17  C8  LIG X 999      44.251 129.597  23.112  1.00  0.00    -0.026 A 
HETATM   18  C9  LIG X 999      44.044 128.801  24.248  1.00  0.00     0.012 A 
HETATM   19  C13 LIG X 999      44.965 129.073  22.009  1.00  0.00    -0.024 A 
HETATM   20  C10 LIG X 999      44.541 127.495  24.290  1.00  0.00     0.001 A 
HETATM   21  C11 LIG X 999      45.245 126.976  23.199  1.00  0.00     0.001 A 
HETATM   22  C12 LIG X 999      45.457 127.760  22.062  1.00  0.00     0.012 A 
HETATM   23  C14 LIG X 999      45.177 129.871  20.875  1.00  0.00     0.049 A 
ENDBRANCH   1  14
TORSDOF 7
