REMARK VINA RESULT:      -6.3      1.456      2.491
REMARK  5 active torsions:
REMARK  status: ('A' for Active; 'I' for Inactive)
REMARK    1  A    between atoms: C6_6  and  C7_7 
REMARK    2  A    between atoms: C7_7  and  N3_15 
REMARK    3  A    between atoms: N1_8  and  C8_9 
REMARK    4  A    between atoms: C8_9  and  C9_10 
REMARK    5  A    between atoms: C9_10  and  N2_11 
ROOT
HETATM    1  N3  LIG X 999      46.058 129.994  16.816  1.00  0.00    -0.052 NA
HETATM    2  N4  LIG X 999      45.508 129.125  16.138  1.00  0.00    -0.160 NA
HETATM    3  N5  LIG X 999      44.959 128.254  15.464  1.00  0.00     0.068 N 
ENDROOT
BRANCH   1   4
HETATM    4  C7  LIG X 999      45.435 131.258  17.097  1.00  0.00     0.191 C 
HETATM    5  N1  LIG X 999      45.606 132.261  16.284  1.00  0.00    -0.267 NA
BRANCH   4   6
HETATM    6  C6  LIG X 999      44.595 131.459  18.302  1.00  0.00     0.015 A 
HETATM    7  C5  LIG X 999      45.138 131.245  19.580  1.00  0.00     0.027 A 
HETATM    8  C4  LIG X 999      44.357 131.444  20.728  1.00  0.00    -0.025 A 
HETATM    9  C3  LIG X 999      44.893 131.220  22.006  1.00  0.00     0.012 A 
HETATM   10  C12 LIG X 999      43.014 131.874  20.598  1.00  0.00    -0.026 A 
HETATM   11  C2  LIG X 999      44.105 131.421  23.144  1.00  0.00     0.001 A 
HETATM   12  C1  LIG X 999      42.780 131.846  23.014  1.00  0.00     0.001 A 
HETATM   13  C13 LIG X 999      42.234 132.073  21.748  1.00  0.00     0.012 A 
HETATM   14  C11 LIG X 999      42.481 132.101  19.323  1.00  0.00     0.013 A 
HETATM   15  C10 LIG X 999      43.265 131.900  18.185  1.00  0.00     0.016 A 
ENDBRANCH   4   6
BRANCH   5  16
HETATM   16  C8  LIG X 999      46.424 132.230  15.073  1.00  0.00     0.178 C 
BRANCH  16  17
HETATM   17  C9  LIG X 999      45.825 131.288  14.018  1.00  0.00     0.251 C 
BRANCH  17  18
HETATM   18  N2  LIG X 999      46.817 130.334  13.523  1.00  0.00    -0.078 N 
HETATM   19  H9  LIG X 999      47.440 130.816  12.835  1.00  0.00     0.274 HD
HETATM   20  H10 LIG X 999      46.343 129.535  13.043  1.00  0.00     0.274 HD
HETATM   21  H11 LIG X 999      47.401 129.976  14.314  1.00  0.00     0.274 HD
ENDBRANCH  17  18
ENDBRANCH  16  17
ENDBRANCH   5  16
ENDBRANCH   1   4
TORSDOF 5
