REMARK VINA RESULT:      -4.9      5.773      7.492
REMARK  3 active torsions:
REMARK  status: ('A' for Active; 'I' for Inactive)
REMARK    1  A    between atoms: C3_3  and  S1_4 
REMARK    2  A    between atoms: S1_4  and  N1_7 
REMARK    3  A    between atoms: C10_16  and  N4_17 
ROOT
HETATM    1  N1  LIG X 999      45.022 131.416  21.354  1.00  0.00     0.026 NA
HETATM    2  N2  LIG X 999      44.608 131.549  20.203  1.00  0.00    -0.150 NA
HETATM    3  N3  LIG X 999      44.197 131.684  19.052  1.00  0.00     0.069 N 
ENDROOT
BRANCH   1   4
HETATM    4  S1  LIG X 999      43.905 131.277  22.665  1.00  0.00     0.311 S 
HETATM    5  O1  LIG X 999      42.603 131.918  22.273  1.00  0.00    -0.196 OA
HETATM    6  O2  LIG X 999      44.447 131.994  23.870  1.00  0.00    -0.196 OA
BRANCH   4   7
HETATM    7  C3  LIG X 999      43.639 129.577  23.039  1.00  0.00     0.084 A 
HETATM    8  C2  LIG X 999      42.424 129.155  23.587  1.00  0.00     0.026 A 
HETATM    9  C1  LIG X 999      42.211 127.804  23.868  1.00  0.00     0.009 A 
HETATM   10  C6  LIG X 999      43.214 126.855  23.615  1.00  0.00    -0.050 A 
HETATM   11  C5  LIG X 999      44.440 127.275  23.044  1.00  0.00    -0.023 A 
HETATM   12  C7  LIG X 999      42.899 125.394  23.836  1.00  0.00     0.039 C 
HETATM   13  C4  LIG X 999      44.638 128.637  22.763  1.00  0.00     0.035 A 
HETATM   14  C10 LIG X 999      45.578 126.299  22.801  1.00  0.00     0.179 C 
HETATM   15  C9  LIG X 999      45.070 124.854  22.685  1.00  0.00     0.035 C 
HETATM   16  C8  LIG X 999      44.148 124.508  23.855  1.00  0.00     0.007 C 
BRANCH  14  17
HETATM   17  N4  LIG X 999      46.552 126.381  23.887  1.00  0.00    -0.105 NA
HETATM   18  N5  LIG X 999      47.598 125.731  23.862  1.00  0.00    -0.167 NA
HETATM   19  N6  LIG X 999      48.643 125.084  23.836  1.00  0.00     0.068 N 
ENDBRANCH  14  17
ENDBRANCH   4   7
ENDBRANCH   1   4
TORSDOF 3
