REMARK VINA RESULT:      -6.2      2.994      6.894
REMARK  1 active torsions:
REMARK  status: ('A' for Active; 'I' for Inactive)
REMARK    1  A    between atoms: C11_13  and  N2_14 
ROOT
HETATM    1  N2  LIG X 999      43.035 131.594  23.408  1.00  0.00    -0.053 NA
HETATM    2  N3  LIG X 999      42.752 130.558  24.010  1.00  0.00    -0.160 NA
HETATM    3  N4  LIG X 999      42.471 129.530  24.623  1.00  0.00     0.068 N 
ENDROOT
BRANCH   1   4
HETATM    4  C11 LIG X 999      43.074 131.671  21.978  1.00  0.00     0.175 A 
HETATM    5  C10 LIG X 999      44.119 131.284  21.131  1.00  0.00     0.026 A 
HETATM    6  C5  LIG X 999      43.668 131.558  19.881  1.00  0.00     0.017 A 
HETATM    7  C9  LIG X 999      45.393 130.732  21.306  1.00  0.00     0.016 A 
HETATM    8  C4  LIG X 999      42.422 132.083  19.954  1.00  0.00     0.046 A 
HETATM    9  C6  LIG X 999      44.375 131.336  18.721  1.00  0.00     0.005 A 
HETATM   10  C3  LIG X 999      41.695 132.473  18.732  1.00  0.00     0.033 A 
HETATM   11  N5  LIG X 999      42.036 132.161  21.245  1.00  0.00    -0.337 N 
HETATM   12  C2  LIG X 999      42.304 132.294  17.538  1.00  0.00     0.034 A 
HETATM   13  C1  LIG X 999      43.690 131.712  17.455  1.00  0.00     0.059 A 
HETATM   14  N1  LIG X 999      44.273 131.539  16.312  1.00  0.00    -0.300 NA
HETATM   15  H1  LIG X 999      43.808 131.796  15.413  1.00  0.00     0.187 HD
HETATM   16  H7  LIG X 999      41.126 132.524  21.607  1.00  0.00     0.167 HD
HETATM   17  C7  LIG X 999      45.662 130.780  18.852  1.00  0.00     0.015 A 
HETATM   18  C8  LIG X 999      46.168 130.479  20.146  1.00  0.00     0.002 A 
ENDBRANCH   1   4
TORSDOF 1
