REMARK VINA RESULT:      -6.7      0.000      0.000
REMARK  5 active torsions:
REMARK  status: ('A' for Active; 'I' for Inactive)
REMARK    1  A    between atoms: C6_6  and  C7_7 
REMARK       I    between atoms: C7_7  and  N1_9 
REMARK    2  A    between atoms: N1_9  and  C8_11 
REMARK    3  A    between atoms: C8_11  and  C9_12 
REMARK    4  A    between atoms: C9_12  and  N2_13 
REMARK    5  A    between atoms: C13_19  and  N5_20 
ROOT
HETATM    1  N2  LIG X 999      43.373 128.786  24.149  1.00  0.00    -0.114 NA
HETATM    2  N3  LIG X 999      44.187 128.321  23.351  1.00  0.00    -0.168 NA
HETATM    3  N4  LIG X 999      45.000 127.854  22.554  1.00  0.00     0.068 N 
ENDROOT
BRANCH   1   4
HETATM    4  C9  LIG X 999      43.283 130.223  24.379  1.00  0.00     0.208 C 
BRANCH   4   5
HETATM    5  C8  LIG X 999      42.578 130.891  23.200  1.00  0.00     0.147 C 
BRANCH   5   6
HETATM    6  N1  LIG X 999      43.441 130.913  22.018  1.00  0.00    -0.355 N 
HETATM    7  C7  LIG X 999      43.109 131.710  20.870  1.00  0.00     0.251 C 
HETATM    8  O1  LIG X 999      42.143 132.520  20.935  1.00  0.00    -0.268 OA
HETATM    9  H4  LIG X 999      44.336 130.374  22.027  1.00  0.00     0.162 HD
BRANCH   7  10
HETATM   10  C6  LIG X 999      43.892 131.614  19.615  1.00  0.00     0.032 A 
HETATM   11  C1  LIG X 999      45.280 131.400  19.641  1.00  0.00     0.017 A 
HETATM   12  C2  LIG X 999      46.006 131.312  18.452  1.00  0.00     0.011 A 
HETATM   13  C3  LIG X 999      45.365 131.434  17.210  1.00  0.00    -0.024 A 
HETATM   14  C4  LIG X 999      43.962 131.615  17.171  1.00  0.00    -0.049 A 
HETATM   15  C13 LIG X 999      46.182 131.263  15.948  1.00  0.00     0.179 C 
HETATM   16  C5  LIG X 999      43.244 131.716  18.372  1.00  0.00     0.024 A 
HETATM   17  C10 LIG X 999      43.226 131.822  15.867  1.00  0.00     0.039 C 
HETATM   18  C11 LIG X 999      44.016 131.327  14.653  1.00  0.00     0.007 C 
HETATM   19  C12 LIG X 999      45.458 131.830  14.714  1.00  0.00     0.035 C 
BRANCH  15  20
HETATM   20  N5  LIG X 999      46.475 129.843  15.766  1.00  0.00    -0.105 NA
HETATM   21  N6  LIG X 999      47.206 129.454  14.854  1.00  0.00    -0.167 NA
HETATM   22  N7  LIG X 999      47.934 129.064  13.943  1.00  0.00     0.068 N 
ENDBRANCH  15  20
ENDBRANCH   7  10
ENDBRANCH   5   6
ENDBRANCH   4   5
ENDBRANCH   1   4
TORSDOF 5
