REMARK VINA RESULT:      -2.6      3.793      6.414
REMARK  5 active torsions:
REMARK  status: ('A' for Active; 'I' for Inactive)
REMARK    1  A    between atoms: O1_2  and  C1_3 
REMARK    2  A    between atoms: C1_3  and  C15_22 
REMARK    3  A    between atoms: N1_4  and  C2_5 
REMARK    4  A    between atoms: C3_6  and  O2_7 
REMARK    5  A    between atoms: O2_7  and  C4_8 
REMARK       I    between atoms: C4_8  and  N2_10 
ROOT
HETATM    1  C2  LIG X 999      44.636 129.547  21.858  1.00  0.00     0.104 A 
HETATM    2  C3  LIG X 999      44.101 130.526  22.720  1.00  0.00     0.110 A 
HETATM    3  C7  LIG X 999      44.030 130.276  24.100  1.00  0.00     0.041 A 
HETATM    4  C8  LIG X 999      44.486 129.067  24.625  1.00  0.00     0.015 A 
HETATM    5  C9  LIG X 999      45.038 128.093  23.783  1.00  0.00    -0.024 A 
HETATM    6  C10 LIG X 999      45.512 126.884  24.316  1.00  0.00     0.012 A 
HETATM    7  C11 LIG X 999      46.070 125.917  23.477  1.00  0.00     0.001 A 
HETATM    8  C12 LIG X 999      46.162 126.149  22.104  1.00  0.00     0.001 A 
HETATM    9  C13 LIG X 999      45.694 127.346  21.558  1.00  0.00     0.014 A 
HETATM   10  C14 LIG X 999      45.128 128.335  22.388  1.00  0.00     0.006 A 
ENDROOT
BRANCH   1  11
HETATM   11  N1  LIG X 999      44.754 129.818  20.450  1.00  0.00    -0.221 NA
HETATM   12  C1  LIG X 999      45.560 130.687  19.908  1.00  0.00     0.176 C 
BRANCH  12  13
HETATM   13  O1  LIG X 999      46.338 131.555  20.680  1.00  0.00    -0.344 OA
HETATM   14  H1  LIG X 999      46.214 131.668  21.677  1.00  0.00     0.219 HD
ENDBRANCH  12  13
BRANCH  12  15
HETATM   15  C15 LIG X 999      45.641 130.777  18.445  1.00  0.00     0.053 A 
HETATM   16  C16 LIG X 999      45.111 131.760  17.627  1.00  0.00     0.156 A 
HETATM   17  N3  LIG X 999      45.410 131.476  16.345  1.00  0.00    -0.185 NA
HETATM   18  N4  LIG X 999      46.095 130.342  16.336  1.00  0.00    -0.285 N 
HETATM   19  C17 LIG X 999      46.652 129.739  15.133  1.00  0.00     0.179 C 
HETATM   20  C18 LIG X 999      46.266 129.892  17.593  1.00  0.00     0.129 A 
ENDBRANCH  12  15
ENDBRANCH   1  11
BRANCH   2  21
HETATM   21  O2  LIG X 999      43.697 131.755  22.176  1.00  0.00    -0.254 OA
BRANCH  21  22
HETATM   22  C4  LIG X 999      42.369 132.158  21.973  1.00  0.00     0.461 C 
HETATM   23  O3  LIG X 999      41.548 132.169  22.931  1.00  0.00    -0.230 OA
HETATM   24  N2  LIG X 999      41.918 132.482  20.644  1.00  0.00     0.009 N 
HETATM   25  H2  LIG X 999      40.916 132.787  20.679  1.00  0.00     0.292 HD
HETATM   26  C5  LIG X 999      42.012 131.293  19.782  1.00  0.00     0.282 C 
HETATM   27  C6  LIG X 999      42.719 133.588  20.097  1.00  0.00     0.282 C 
ENDBRANCH  21  22
ENDBRANCH   2  21
TORSDOF 5
