REMARK VINA RESULT:      -5.5      6.293      8.916
REMARK  4 active torsions:
REMARK  status: ('A' for Active; 'I' for Inactive)
REMARK    1  A    between atoms: C2_2  and  N1_3 
REMARK    2  A    between atoms: C3_6  and  O1_7 
REMARK    3  A    between atoms: O1_7  and  C4_8 
REMARK    4  A    between atoms: C4_8  and  C5_9 
ROOT
HETATM    1  N1  LIG X 999      45.627 123.339  22.360  1.00  0.00    -0.070 NA
HETATM    2  N2  LIG X 999      46.687 123.436  21.739  1.00  0.00    -0.162 NA
HETATM    3  N3  LIG X 999      47.745 123.530  21.120  1.00  0.00     0.068 N 
ENDROOT
BRANCH   1   4
HETATM    4  C2  LIG X 999      44.851 124.486  22.743  1.00  0.00     0.127 A 
HETATM    5  C1  LIG X 999      45.312 125.793  22.499  1.00  0.00     0.049 A 
HETATM    6  C14 LIG X 999      44.542 126.900  22.878  1.00  0.00    -0.023 A 
HETATM    7  C9  LIG X 999      43.287 126.698  23.515  1.00  0.00    -0.022 A 
HETATM    8  C13 LIG X 999      45.001 128.210  22.636  1.00  0.00     0.021 A 
HETATM    9  C8  LIG X 999      42.834 125.394  23.757  1.00  0.00     0.051 A 
HETATM   10  C10 LIG X 999      42.510 127.808  23.900  1.00  0.00     0.021 A 
HETATM   11  C3  LIG X 999      43.611 124.283  23.370  1.00  0.00     0.102 A 
HETATM   12  C11 LIG X 999      42.997 129.089  23.635  1.00  0.00    -0.024 A 
HETATM   13  C12 LIG X 999      44.199 129.283  23.025  1.00  0.00    -0.024 A 
HETATM   14  C18 LIG X 999      42.368 130.385  23.966  1.00  0.00     0.276 C 
HETATM   15  C15 LIG X 999      44.487 130.727  22.891  1.00  0.00     0.276 C 
HETATM   16  N4  LIG X 999      43.244 131.429  23.345  1.00  0.00    -0.067 N 
HETATM   17  C16 LIG X 999      43.571 132.489  24.327  1.00  0.00     0.272 C 
HETATM   18  C17 LIG X 999      42.555 132.044  22.185  1.00  0.00     0.272 C 
BRANCH  11  19
HETATM   19  O1  LIG X 999      43.186 122.960  23.593  1.00  0.00    -0.337 OA
BRANCH  19  20
HETATM   20  C4  LIG X 999      41.989 122.376  23.084  1.00  0.00     0.269 C 
BRANCH  20  21
HETATM   21  C5  LIG X 999      40.813 123.067  23.623  1.00  0.00    -0.080 C 
HETATM   22  C6  LIG X 999      39.849 123.638  24.070  1.00  0.00    -0.109 C 
HETATM   23  C7  LIG X 999      38.683 124.330  24.617  1.00  0.00     0.112 C 
ENDBRANCH  20  21
ENDBRANCH  19  20
ENDBRANCH  11  19
ENDBRANCH   1   4
TORSDOF 4
