REMARK VINA RESULT:      -7.7      1.661      6.861
REMARK  4 active torsions:
REMARK  status: ('A' for Active; 'I' for Inactive)
REMARK       I    between atoms: N1_1  and  C1_2 
REMARK    1  A    between atoms: C1_2  and  C2_4 
REMARK    2  A    between atoms: C11_13  and  O2_14 
REMARK    3  A    between atoms: O2_14  and  C12_15 
REMARK    4  A    between atoms: C12_15  and  C13_17 
ROOT
HETATM    1  C2  LIG X 999      43.225 131.902  19.163  1.00  0.00     0.068 A 
HETATM    2  C3  LIG X 999      42.448 131.949  20.337  1.00  0.00     0.032 A 
HETATM    3  C4  LIG X 999      43.028 131.733  21.594  1.00  0.00    -0.025 A 
HETATM    4  C5  LIG X 999      42.246 131.780  22.761  1.00  0.00     0.012 A 
HETATM    5  C6  LIG X 999      42.836 131.573  24.010  1.00  0.00     0.001 A 
HETATM    6  C7  LIG X 999      44.206 131.320  24.107  1.00  0.00     0.001 A 
HETATM    7  C8  LIG X 999      44.994 131.271  22.954  1.00  0.00     0.012 A 
HETATM    8  C9  LIG X 999      44.412 131.474  21.692  1.00  0.00    -0.023 A 
HETATM    9  C10 LIG X 999      45.192 131.429  20.531  1.00  0.00     0.050 A 
HETATM   10  C11 LIG X 999      44.611 131.625  19.264  1.00  0.00     0.096 A 
ENDROOT
BRANCH  10  11
HETATM   11  O2  LIG X 999      45.404 131.601  18.105  1.00  0.00    -0.274 OA
BRANCH  11  12
HETATM   12  C12 LIG X 999      45.827 130.446  17.434  1.00  0.00     0.298 C 
HETATM   13  O3  LIG X 999      45.721 129.314  17.981  1.00  0.00    -0.259 OA
BRANCH  12  14
HETATM   14  C13 LIG X 999      46.343 130.553  16.051  1.00  0.00     0.039 A 
HETATM   15  C14 LIG X 999      46.964 129.449  15.437  1.00  0.00     0.017 A 
HETATM   16  C15 LIG X 999      47.453 129.549  14.131  1.00  0.00     0.001 A 
HETATM   17  C16 LIG X 999      47.326 130.747  13.423  1.00  0.00     0.000 A 
HETATM   18  C17 LIG X 999      46.710 131.848  14.022  1.00  0.00     0.001 A 
HETATM   19  C18 LIG X 999      46.220 131.754  15.328  1.00  0.00     0.017 A 
ENDBRANCH  12  14
ENDBRANCH  11  12
ENDBRANCH  10  11
BRANCH   1  20
HETATM   20  C1  LIG X 999      42.560 132.135  17.851  1.00  0.00     0.273 C 
HETATM   21  N1  LIG X 999      41.373 132.920  17.750  1.00  0.00    -0.263 NA
HETATM   22  H1  LIG X 999      40.912 133.083  16.827  1.00  0.00     0.190 HD
HETATM   23  O1  LIG X 999      43.049 131.643  16.798  1.00  0.00    -0.266 OA
ENDBRANCH   1  20
TORSDOF 4
