REMARK VINA RESULT:      -3.2      4.102      5.696
REMARK  4 active torsions:
REMARK  status: ('A' for Active; 'I' for Inactive)
REMARK    1  A    between atoms: C3_3  and  O1_4 
REMARK    2  A    between atoms: O1_4  and  C4_5 
REMARK    3  A    between atoms: C9_12  and  N2_13 
REMARK    4  A    between atoms: C11_17  and  C12_18 
ROOT
HETATM    1  C1  LIG X 999      45.654 132.011  16.062  1.00  0.00     0.014 C 
HETATM    2  C2  LIG X 999      45.729 131.086  16.833  1.00  0.00    -0.091 C 
HETATM    3  C3  LIG X 999      45.822 129.963  17.771  1.00  0.00     0.268 C 
ENDROOT
BRANCH   3   4
HETATM    4  O1  LIG X 999      46.173 130.429  19.073  1.00  0.00    -0.339 OA
BRANCH   4   5
HETATM    5  C4  LIG X 999      45.571 130.032  20.281  1.00  0.00     0.085 A 
HETATM    6  C5  LIG X 999      45.838 128.746  20.849  1.00  0.00     0.052 A 
HETATM    7  C6  LIG X 999      45.228 128.364  22.055  1.00  0.00     0.008 A 
HETATM    8  C7  LIG X 999      44.380 129.269  22.643  1.00  0.00     0.018 A 
HETATM    9  C15 LIG X 999      45.407 127.070  22.768  1.00  0.00     0.059 A 
HETATM   10  C8  LIG X 999      43.710 129.071  23.804  1.00  0.00     0.046 A 
HETATM   11  C10 LIG X 999      44.090 130.500  22.148  1.00  0.00     0.042 A 
HETATM   12  N1  LIG X 999      42.972 130.161  24.097  1.00  0.00    -0.337 N 
HETATM   13  C13 LIG X 999      43.849 127.811  24.556  1.00  0.00     0.033 A 
HETATM   14  H5  LIG X 999      42.358 130.294  24.930  1.00  0.00     0.167 HD
HETATM   15  C9  LIG X 999      43.202 131.043  23.084  1.00  0.00     0.176 A 
HETATM   16  C14 LIG X 999      44.663 126.854  24.056  1.00  0.00     0.034 A 
HETATM   17  C11 LIG X 999      44.675 130.938  20.942  1.00  0.00     0.050 A 
HETATM   18  N5  LIG X 999      46.187 126.154  22.289  1.00  0.00    -0.300 NA
HETATM   19  H9  LIG X 999      46.327 125.240  22.775  1.00  0.00     0.187 HD
BRANCH  15  20
HETATM   20  N2  LIG X 999      42.608 132.341  23.014  1.00  0.00    -0.053 NA
HETATM   21  N3  LIG X 999      41.863 132.655  22.085  1.00  0.00    -0.160 NA
HETATM   22  N4  LIG X 999      41.119 132.969  21.158  1.00  0.00     0.068 N 
ENDBRANCH  15  20
BRANCH  17  23
HETATM   23  C12 LIG X 999      44.369 132.279  20.387  1.00  0.00     0.273 C 
HETATM   24  O2  LIG X 999      43.707 132.417  19.325  1.00  0.00    -0.301 OA
ENDBRANCH  17  23
ENDBRANCH   4   5
ENDBRANCH   3   4
TORSDOF 4
