REMARK VINA RESULT:      -6.9      3.843      6.643
REMARK  3 active torsions:
REMARK  status: ('A' for Active; 'I' for Inactive)
REMARK    1  A    between atoms: C6_6  and  C7_7 
REMARK    2  A    between atoms: C7_7  and  N1_8 
REMARK    3  A    between atoms: C8_12  and  N4_13 
ROOT
HETATM    1  N1  LIG X 999      45.471 130.729  19.691  1.00  0.00    -0.065 NA
HETATM    2  N2  LIG X 999      46.081 131.440  20.489  1.00  0.00    -0.164 NA
HETATM    3  N3  LIG X 999      46.690 132.150  21.286  1.00  0.00     0.068 N 
ENDROOT
BRANCH   1   4
HETATM    4  C7  LIG X 999      44.771 131.316  18.555  1.00  0.00     0.267 A 
HETATM    5  O1  LIG X 999      44.169 132.546  18.890  1.00  0.00    -0.314 OA
HETATM    6  C8  LIG X 999      43.296 131.465  18.638  1.00  0.00     0.349 A 
BRANCH   4   7
HETATM    7  C6  LIG X 999      45.457 131.337  17.222  1.00  0.00     0.007 A 
HETATM    8  C5  LIG X 999      46.134 130.201  16.756  1.00  0.00     0.024 A 
HETATM    9  C4  LIG X 999      46.755 130.214  15.497  1.00  0.00    -0.025 A 
HETATM   10  C3  LIG X 999      47.440 129.083  15.025  1.00  0.00     0.012 A 
HETATM   11  C11 LIG X 999      46.686 131.377  14.693  1.00  0.00    -0.026 A 
HETATM   12  C2  LIG X 999      48.054 129.108  13.769  1.00  0.00     0.001 A 
HETATM   13  C1  LIG X 999      47.987 130.258  12.977  1.00  0.00     0.001 A 
HETATM   14  C12 LIG X 999      47.306 131.390  13.434  1.00  0.00     0.012 A 
HETATM   15  C10 LIG X 999      45.997 132.506  15.163  1.00  0.00     0.013 A 
HETATM   16  C9  LIG X 999      45.383 132.482  16.417  1.00  0.00     0.013 A 
ENDBRANCH   4   7
BRANCH   6  17
HETATM   17  N4  LIG X 999      42.670 131.020  19.874  1.00  0.00    -0.077 NA
HETATM   18  N5  LIG X 999      42.606 131.768  20.849  1.00  0.00    -0.165 NA
HETATM   19  N6  LIG X 999      42.542 132.516  21.823  1.00  0.00     0.068 N 
ENDBRANCH   6  17
ENDBRANCH   1   4
TORSDOF 3
