REMARK VINA RESULT:      -0.5      7.478      8.879
REMARK  4 active torsions:
REMARK  status: ('A' for Active; 'I' for Inactive)
REMARK    1  A    between atoms: C5_5  and  O1_6 
REMARK    2  A    between atoms: O1_6  and  C6_7 
REMARK       I    between atoms: C6_7  and  N1_9 
REMARK    3  A    between atoms: C9_12  and  N2_13 
REMARK    4  A    between atoms: C11_18  and  N5_19 
ROOT
HETATM    1  N2  LIG X 999      45.653 129.092  21.109  1.00  0.00    -0.068 NA
HETATM    2  N3  LIG X 999      45.387 127.992  21.596  1.00  0.00    -0.162 NA
HETATM    3  N4  LIG X 999      45.127 126.893  22.083  1.00  0.00     0.068 N 
ENDROOT
BRANCH   1   4
HETATM    4  C9  LIG X 999      45.002 130.307  21.518  1.00  0.00     0.151 C 
HETATM    5  C5  LIG X 999      44.547 131.154  20.475  1.00  0.00     0.114 C 
HETATM    6  C4  LIG X 999      43.541 132.146  20.610  1.00  0.00     0.040 C 
HETATM    7  C3  LIG X 999      42.606 132.228  21.644  1.00  0.00     0.003 C 
HETATM    8  C2  LIG X 999      42.112 131.114  22.325  1.00  0.00     0.000 C 
HETATM    9  C1  LIG X 999      41.900 131.123  23.707  1.00  0.00     0.000 C 
HETATM   10  C13 LIG X 999      42.675 131.857  24.625  1.00  0.00     0.002 C 
HETATM   11  C12 LIG X 999      43.971 132.366  24.397  1.00  0.00     0.036 C 
HETATM   12  C11 LIG X 999      44.858 131.936  23.380  1.00  0.00     0.117 C 
HETATM   13  C10 LIG X 999      44.853 130.612  22.897  1.00  0.00     0.100 C 
HETATM   14 CL1  LIG X 999      44.622 129.297  24.056  1.00  0.00    -0.079 Cl
BRANCH   5  15
HETATM   15  O1  LIG X 999      45.135 130.958  19.215  1.00  0.00    -0.259 OA
BRANCH  15  16
HETATM   16  C6  LIG X 999      44.520 131.247  17.988  1.00  0.00     0.367 C 
HETATM   17  O2  LIG X 999      43.469 131.944  17.952  1.00  0.00    -0.238 OA
HETATM   18  N1  LIG X 999      45.125 130.794  16.765  1.00  0.00    -0.336 N 
HETATM   19  C7  LIG X 999      44.498 131.112  15.479  1.00  0.00     0.154 C 
HETATM   20  C8  LIG X 999      46.361 130.011  16.824  1.00  0.00     0.154 C 
ENDBRANCH  15  16
ENDBRANCH   5  15
BRANCH  12  21
HETATM   21  N5  LIG X 999      45.814 132.851  22.822  1.00  0.00    -0.071 NA
HETATM   22  N6  LIG X 999      46.513 133.585  23.523  1.00  0.00    -0.162 NA
HETATM   23  N7  LIG X 999      47.210 134.319  24.221  1.00  0.00     0.068 N 
ENDBRANCH  12  21
ENDBRANCH   1   4
TORSDOF 4
