MODEL 1
REMARK VINA RESULT:      -9.3      0.000      0.000
REMARK  5 active torsions:
REMARK  status: ('A' for Active; 'I' for Inactive)
REMARK    1  A    between atoms: C2_2  and  C3_3 
REMARK    2  A    between atoms: C2_2  and  N1_13 
REMARK    3  A    between atoms: C14_15  and  C15_16 
REMARK    4  A    between atoms: C15_16  and  C16_17 
REMARK       I    between atoms: C16_17  and  N2_19 
REMARK    5  A    between atoms: N2_19  and  C17_20 
ROOT
HETATM    1  N1  LIG X 999      44.489 131.798  19.422  1.00  0.00    -0.274 N 
HETATM    2  C13 LIG X 999      43.688 131.748  20.502  1.00  0.00     0.137 A 
HETATM    3  C14 LIG X 999      44.493 131.388  21.558  1.00  0.00     0.078 A 
HETATM    4  N4  LIG X 999      45.747 131.205  21.098  1.00  0.00    -0.163 NA
HETATM    5  N5  LIG X 999      45.715 131.464  19.799  1.00  0.00     0.005 NA
ENDROOT
BRANCH   1   6
HETATM    6  C2  LIG X 999      44.111 132.078  18.034  1.00  0.00     0.134 C 
HETATM    7  C1  LIG X 999      42.612 131.831  17.809  1.00  0.00     0.039 C 
BRANCH   6   8
HETATM    8  C3  LIG X 999      44.993 131.295  17.078  1.00  0.00    -0.033 A 
HETATM    9  C4  LIG X 999      45.343 129.954  17.331  1.00  0.00     0.010 A 
HETATM   10  C5  LIG X 999      46.189 129.261  16.460  1.00  0.00     0.013 A 
HETATM   11  C6  LIG X 999      46.714 129.898  15.328  1.00  0.00    -0.026 A 
HETATM   12  C7  LIG X 999      47.565 129.209  14.449  1.00  0.00     0.012 A 
HETATM   13  C11 LIG X 999      46.387 131.252  15.073  1.00  0.00    -0.025 A 
HETATM   14  C8  LIG X 999      48.089 129.860  13.328  1.00  0.00     0.001 A 
HETATM   15  C9  LIG X 999      47.770 131.197  13.076  1.00  0.00     0.001 A 
HETATM   16  C10 LIG X 999      46.921 131.893  13.944  1.00  0.00     0.012 A 
HETATM   17  C12 LIG X 999      45.536 131.940  15.951  1.00  0.00     0.021 A 
ENDBRANCH   6   8
ENDBRANCH   1   6
BRANCH   3  18
HETATM   18  C15 LIG X 999      44.055 131.108  22.960  1.00  0.00     0.167 C 
BRANCH  18  19
HETATM   19  C16 LIG X 999      43.641 129.677  23.084  1.00  0.00     0.251 C 
HETATM   20  O1  LIG X 999      42.418 129.376  23.043  1.00  0.00    -0.271 OA
HETATM   21  N2  LIG X 999      44.645 128.667  23.247  1.00  0.00    -0.189 NA
BRANCH  21  22
HETATM   22  C17 LIG X 999      44.456 127.254  23.111  1.00  0.00     0.173 A 
HETATM   23  N3  LIG X 999      43.326 126.583  23.433  1.00  0.00    -0.344 N 
HETATM   24  C18 LIG X 999      43.415 125.259  23.139  1.00  0.00     0.097 A 
HETATM   25  H15 LIG X 999      42.462 127.012  23.830  1.00  0.00     0.167 HD
HETATM   26  C19 LIG X 999      44.618 124.869  22.558  1.00  0.00     0.070 A 
HETATM   27  S1  LIG X 999      45.593 126.234  22.410  1.00  0.00    -0.062 SA
ENDBRANCH  21  22
ENDBRANCH  18  19
ENDBRANCH   3  18
TORSDOF 5
ENDMDL
MODEL 2
REMARK VINA RESULT:      -8.7      2.016      2.950
REMARK  5 active torsions:
REMARK  status: ('A' for Active; 'I' for Inactive)
REMARK    1  A    between atoms: C2_2  and  C3_3 
REMARK    2  A    between atoms: C2_2  and  N1_13 
REMARK    3  A    between atoms: C14_15  and  C15_16 
REMARK    4  A    between atoms: C15_16  and  C16_17 
REMARK       I    between atoms: C16_17  and  N2_19 
REMARK    5  A    between atoms: N2_19  and  C17_20 
ROOT
HETATM    1  N1  LIG X 999      43.673 130.908  21.504  1.00  0.00    -0.274 N 
HETATM    2  C13 LIG X 999      44.618 130.000  21.813  1.00  0.00     0.137 A 
HETATM    3  C14 LIG X 999      44.113 129.268  22.864  1.00  0.00     0.078 A 
HETATM    4  N4  LIG X 999      42.897 129.757  23.183  1.00  0.00    -0.163 NA
HETATM    5  N5  LIG X 999      42.656 130.749  22.338  1.00  0.00     0.005 NA
ENDROOT
BRANCH   1   6
HETATM    6  C2  LIG X 999      43.742 131.966  20.493  1.00  0.00     0.134 C 
HETATM    7  C1  LIG X 999      42.356 132.574  20.234  1.00  0.00     0.039 C 
BRANCH   6   8
HETATM    8  C3  LIG X 999      44.409 131.447  19.230  1.00  0.00    -0.033 A 
HETATM    9  C4  LIG X 999      45.614 130.720  19.281  1.00  0.00     0.010 A 
HETATM   10  C5  LIG X 999      46.235 130.286  18.106  1.00  0.00     0.013 A 
HETATM   11  C6  LIG X 999      45.671 130.582  16.858  1.00  0.00    -0.026 A 
HETATM   12  C7  LIG X 999      46.289 130.149  15.673  1.00  0.00     0.012 A 
HETATM   13  C11 LIG X 999      44.471 131.329  16.792  1.00  0.00    -0.025 A 
HETATM   14  C8  LIG X 999      45.721 130.459  14.434  1.00  0.00     0.001 A 
HETATM   15  C9  LIG X 999      44.538 131.200  14.367  1.00  0.00     0.001 A 
HETATM   16  C10 LIG X 999      43.912 131.634  15.540  1.00  0.00     0.012 A 
HETATM   17  C12 LIG X 999      43.853 131.761  17.975  1.00  0.00     0.021 A 
ENDBRANCH   6   8
ENDBRANCH   1   6
BRANCH   3  18
HETATM   18  C15 LIG X 999      44.823 128.198  23.629  1.00  0.00     0.167 C 
BRANCH  18  19
HETATM   19  C16 LIG X 999      44.868 126.943  22.819  1.00  0.00     0.251 C 
HETATM   20  O1  LIG X 999      45.908 126.659  22.166  1.00  0.00    -0.271 OA
HETATM   21  N2  LIG X 999      43.724 126.079  22.798  1.00  0.00    -0.189 NA
BRANCH  21  22
HETATM   22  C17 LIG X 999      43.687 124.733  22.310  1.00  0.00     0.173 A 
HETATM   23  N3  LIG X 999      44.674 123.819  22.464  1.00  0.00    -0.344 N 
HETATM   24  C18 LIG X 999      44.333 122.607  21.951  1.00  0.00     0.097 A 
HETATM   25  H15 LIG X 999      45.583 123.988  22.945  1.00  0.00     0.167 HD
HETATM   26  C19 LIG X 999      43.057 122.543  21.399  1.00  0.00     0.070 A 
HETATM   27  S1  LIG X 999      42.339 124.057  21.568  1.00  0.00    -0.062 SA
ENDBRANCH  21  22
ENDBRANCH  18  19
ENDBRANCH   3  18
TORSDOF 5
ENDMDL
MODEL 3
REMARK VINA RESULT:      -8.7      1.658      2.404
REMARK  5 active torsions:
REMARK  status: ('A' for Active; 'I' for Inactive)
REMARK    1  A    between atoms: C2_2  and  C3_3 
REMARK    2  A    between atoms: C2_2  and  N1_13 
REMARK    3  A    between atoms: C14_15  and  C15_16 
REMARK    4  A    between atoms: C15_16  and  C16_17 
REMARK       I    between atoms: C16_17  and  N2_19 
REMARK    5  A    between atoms: N2_19  and  C17_20 
ROOT
HETATM    1  N1  LIG X 999      43.629 131.261  21.328  1.00  0.00    -0.274 N 
HETATM    2  C13 LIG X 999      42.659 130.965  22.214  1.00  0.00     0.137 A 
HETATM    3  C14 LIG X 999      43.201 130.038  23.076  1.00  0.00     0.078 A 
HETATM    4  N4  LIG X 999      44.464 129.776  22.685  1.00  0.00    -0.163 NA
HETATM    5  N5  LIG X 999      44.697 130.534  21.624  1.00  0.00     0.005 NA
ENDROOT
BRANCH   1   6
HETATM    6  C2  LIG X 999      43.544 132.152  20.168  1.00  0.00     0.134 C 
HETATM    7  C1  LIG X 999      42.083 132.493  19.838  1.00  0.00     0.039 C 
BRANCH   6   8
HETATM    8  C3  LIG X 999      44.296 131.558  18.990  1.00  0.00    -0.033 A 
HETATM    9  C4  LIG X 999      45.484 130.823  19.171  1.00  0.00     0.010 A 
HETATM   10  C5  LIG X 999      46.185 130.319  18.071  1.00  0.00     0.013 A 
HETATM   11  C6  LIG X 999      45.721 130.549  16.770  1.00  0.00    -0.026 A 
HETATM   12  C7  LIG X 999      46.420 130.046  15.661  1.00  0.00     0.012 A 
HETATM   13  C11 LIG X 999      44.539 131.303  16.573  1.00  0.00    -0.025 A 
HETATM   14  C8  LIG X 999      45.950 130.292  14.367  1.00  0.00     0.001 A 
HETATM   15  C9  LIG X 999      44.785 131.039  14.170  1.00  0.00     0.001 A 
HETATM   16  C10 LIG X 999      44.079 131.543  15.268  1.00  0.00     0.012 A 
HETATM   17  C12 LIG X 999      43.840 131.805  17.681  1.00  0.00     0.021 A 
ENDBRANCH   6   8
ENDBRANCH   1   6
BRANCH   3  18
HETATM   18  C15 LIG X 999      42.491 129.327  24.183  1.00  0.00     0.167 C 
BRANCH  18  19
HETATM   19  C16 LIG X 999      41.943 128.031  23.681  1.00  0.00     0.251 C 
HETATM   20  O1  LIG X 999      40.748 127.971  23.283  1.00  0.00    -0.271 OA
HETATM   21  N2  LIG X 999      42.787 126.873  23.659  1.00  0.00    -0.189 NA
BRANCH  21  22
HETATM   22  C17 LIG X 999      42.522 125.643  22.973  1.00  0.00     0.173 A 
HETATM   23  N3  LIG X 999      41.299 125.217  22.579  1.00  0.00    -0.344 N 
HETATM   24  C18 LIG X 999      41.362 124.043  21.896  1.00  0.00     0.097 A 
HETATM   25  H15 LIG X 999      40.403 125.725  22.738  1.00  0.00     0.167 HD
HETATM   26  C19 LIG X 999      42.646 123.535  21.723  1.00  0.00     0.070 A 
HETATM   27  S1  LIG X 999      43.730 124.599  22.450  1.00  0.00    -0.062 SA
ENDBRANCH  21  22
ENDBRANCH  18  19
ENDBRANCH   3  18
TORSDOF 5
ENDMDL
MODEL 4
REMARK VINA RESULT:      -8.7      2.076      2.351
REMARK  5 active torsions:
REMARK  status: ('A' for Active; 'I' for Inactive)
REMARK    1  A    between atoms: C2_2  and  C3_3 
REMARK    2  A    between atoms: C2_2  and  N1_13 
REMARK    3  A    between atoms: C14_15  and  C15_16 
REMARK    4  A    between atoms: C15_16  and  C16_17 
REMARK       I    between atoms: C16_17  and  N2_19 
REMARK    5  A    between atoms: N2_19  and  C17_20 
ROOT
HETATM    1  N1  LIG X 999      43.693 131.760  20.456  1.00  0.00    -0.274 N 
HETATM    2  C13 LIG X 999      42.809 131.333  21.377  1.00  0.00     0.137 A 
HETATM    3  C14 LIG X 999      43.548 130.997  22.489  1.00  0.00     0.078 A 
HETATM    4  N4  LIG X 999      44.853 131.200  22.214  1.00  0.00    -0.163 NA
HETATM    5  N5  LIG X 999      44.909 131.667  20.975  1.00  0.00     0.005 NA
ENDROOT
BRANCH   1   6
HETATM    6  C2  LIG X 999      43.424 132.178  19.078  1.00  0.00     0.134 C 
HETATM    7  C1  LIG X 999      41.947 131.966  18.715  1.00  0.00     0.039 C 
BRANCH   6   8
HETATM    8  C3  LIG X 999      44.377 131.485  18.120  1.00  0.00    -0.033 A 
HETATM    9  C4  LIG X 999      45.359 130.588  18.581  1.00  0.00     0.010 A 
HETATM   10  C5  LIG X 999      46.255 129.991  17.689  1.00  0.00     0.013 A 
HETATM   11  C6  LIG X 999      46.195 130.289  16.321  1.00  0.00    -0.026 A 
HETATM   12  C7  LIG X 999      47.092 129.694  15.419  1.00  0.00     0.012 A 
HETATM   13  C11 LIG X 999      45.226 131.206  15.847  1.00  0.00    -0.025 A 
HETATM   14  C8  LIG X 999      47.028 130.008  14.058  1.00  0.00     0.001 A 
HETATM   15  C9  LIG X 999      46.073 130.916  13.589  1.00  0.00     0.001 A 
HETATM   16  C10 LIG X 999      45.174 131.513  14.478  1.00  0.00     0.012 A 
HETATM   17  C12 LIG X 999      44.330 131.800  16.749  1.00  0.00     0.021 A 
ENDBRANCH   6   8
ENDBRANCH   1   6
BRANCH   3  18
HETATM   18  C15 LIG X 999      43.034 130.381  23.750  1.00  0.00     0.167 C 
BRANCH  18  19
HETATM   19  C16 LIG X 999      42.689 128.947  23.508  1.00  0.00     0.251 C 
HETATM   20  O1  LIG X 999      43.589 128.142  23.147  1.00  0.00    -0.271 OA
HETATM   21  N2  LIG X 999      41.337 128.509  23.693  1.00  0.00    -0.189 NA
BRANCH  21  22
HETATM   22  C17 LIG X 999      40.888 127.150  23.771  1.00  0.00     0.173 A 
HETATM   23  N3  LIG X 999      41.694 126.065  23.837  1.00  0.00    -0.344 N 
HETATM   24  C18 LIG X 999      40.988 124.911  23.965  1.00  0.00     0.097 A 
HETATM   25  H15 LIG X 999      42.737 126.086  23.826  1.00  0.00     0.167 HD
HETATM   26  C19 LIG X 999      39.607 125.073  24.023  1.00  0.00     0.070 A 
HETATM   27  S1  LIG X 999      39.271 126.720  23.912  1.00  0.00    -0.062 SA
ENDBRANCH  21  22
ENDBRANCH  18  19
ENDBRANCH   3  18
TORSDOF 5
ENDMDL
MODEL 5
REMARK VINA RESULT:      -8.4      2.850      8.033
REMARK  5 active torsions:
REMARK  status: ('A' for Active; 'I' for Inactive)
REMARK    1  A    between atoms: C2_2  and  C3_3 
REMARK    2  A    between atoms: C2_2  and  N1_13 
REMARK    3  A    between atoms: C14_15  and  C15_16 
REMARK    4  A    between atoms: C15_16  and  C16_17 
REMARK       I    between atoms: C16_17  and  N2_19 
REMARK    5  A    between atoms: N2_19  and  C17_20 
ROOT
HETATM    1  N1  LIG X 999      43.869 131.421  21.580  1.00  0.00    -0.274 N 
HETATM    2  C13 LIG X 999      43.350 131.272  20.347  1.00  0.00     0.137 A 
HETATM    3  C14 LIG X 999      44.312 131.722  19.472  1.00  0.00     0.078 A 
HETATM    4  N4  LIG X 999      45.372 132.154  20.185  1.00  0.00    -0.163 NA
HETATM    5  N5  LIG X 999      45.076 131.955  21.461  1.00  0.00     0.005 NA
ENDROOT
BRANCH   1   6
HETATM    6  C2  LIG X 999      43.223 131.143  22.866  1.00  0.00     0.134 C 
HETATM    7  C1  LIG X 999      43.879 131.945  23.999  1.00  0.00     0.039 C 
BRANCH   6   8
HETATM    8  C3  LIG X 999      43.200 129.648  23.132  1.00  0.00    -0.033 A 
HETATM    9  C4  LIG X 999      42.084 129.023  23.723  1.00  0.00     0.010 A 
HETATM   10  C5  LIG X 999      42.097 127.653  23.998  1.00  0.00     0.013 A 
HETATM   11  C6  LIG X 999      43.228 126.882  23.701  1.00  0.00    -0.026 A 
HETATM   12  C7  LIG X 999      43.248 125.505  23.975  1.00  0.00     0.012 A 
HETATM   13  C11 LIG X 999      44.364 127.501  23.126  1.00  0.00    -0.025 A 
HETATM   14  C8  LIG X 999      44.388 124.749  23.682  1.00  0.00     0.001 A 
HETATM   15  C9  LIG X 999      45.512 125.359  23.117  1.00  0.00     0.001 A 
HETATM   16  C10 LIG X 999      45.502 126.730  22.838  1.00  0.00     0.012 A 
HETATM   17  C12 LIG X 999      44.344 128.877  22.852  1.00  0.00     0.021 A 
ENDBRANCH   6   8
ENDBRANCH   1   6
BRANCH   3  18
HETATM   18  C15 LIG X 999      44.180 131.850  17.988  1.00  0.00     0.167 C 
BRANCH  18  19
HETATM   19  C16 LIG X 999      45.285 131.100  17.316  1.00  0.00     0.251 C 
HETATM   20  O1  LIG X 999      45.747 130.058  17.852  1.00  0.00    -0.271 OA
HETATM   21  N2  LIG X 999      45.801 131.581  16.068  1.00  0.00    -0.189 NA
BRANCH  21  22
HETATM   22  C17 LIG X 999      46.650 130.859  15.167  1.00  0.00     0.173 A 
HETATM   23  N3  LIG X 999      47.137 129.615  15.383  1.00  0.00    -0.344 N 
HETATM   24  C18 LIG X 999      47.863 129.160  14.327  1.00  0.00     0.097 A 
HETATM   25  H15 LIG X 999      46.965 129.038  16.234  1.00  0.00     0.167 HD
HETATM   26  C19 LIG X 999      47.940 130.037  13.249  1.00  0.00     0.070 A 
HETATM   27  S1  LIG X 999      47.066 131.422  13.640  1.00  0.00    -0.062 SA
ENDBRANCH  21  22
ENDBRANCH  18  19
ENDBRANCH   3  18
TORSDOF 5
ENDMDL
MODEL 6
REMARK VINA RESULT:      -8.3      3.004      8.459
REMARK  5 active torsions:
REMARK  status: ('A' for Active; 'I' for Inactive)
REMARK    1  A    between atoms: C2_2  and  C3_3 
REMARK    2  A    between atoms: C2_2  and  N1_13 
REMARK    3  A    between atoms: C14_15  and  C15_16 
REMARK    4  A    between atoms: C15_16  and  C16_17 
REMARK       I    between atoms: C16_17  and  N2_19 
REMARK    5  A    between atoms: N2_19  and  C17_20 
ROOT
HETATM    1  N1  LIG X 999      43.815 131.372  21.750  1.00  0.00    -0.274 N 
HETATM    2  C13 LIG X 999      43.269 131.294  20.522  1.00  0.00     0.137 A 
HETATM    3  C14 LIG X 999      44.260 131.662  19.640  1.00  0.00     0.078 A 
HETATM    4  N4  LIG X 999      45.366 131.976  20.345  1.00  0.00    -0.163 NA
HETATM    5  N5  LIG X 999      45.067 131.787  21.622  1.00  0.00     0.005 NA
ENDROOT
BRANCH   1   6
HETATM    6  C2  LIG X 999      43.161 131.139  23.040  1.00  0.00     0.134 C 
HETATM    7  C1  LIG X 999      43.852 131.927  24.162  1.00  0.00     0.039 C 
BRANCH   6   8
HETATM    8  C3  LIG X 999      43.075 129.649  23.327  1.00  0.00    -0.033 A 
HETATM    9  C4  LIG X 999      44.214 128.823  23.272  1.00  0.00     0.010 A 
HETATM   10  C5  LIG X 999      44.108 127.447  23.499  1.00  0.00     0.013 A 
HETATM   11  C6  LIG X 999      42.861 126.869  23.770  1.00  0.00    -0.026 A 
HETATM   12  C7  LIG X 999      42.748 125.488  23.998  1.00  0.00     0.012 A 
HETATM   13  C11 LIG X 999      41.705 127.685  23.807  1.00  0.00    -0.025 A 
HETATM   14  C8  LIG X 999      41.496 124.922  24.259  1.00  0.00     0.001 A 
HETATM   15  C9  LIG X 999      40.353 125.726  24.292  1.00  0.00     0.001 A 
HETATM   16  C10 LIG X 999      40.454 127.103  24.069  1.00  0.00     0.012 A 
HETATM   17  C12 LIG X 999      41.819 129.065  23.580  1.00  0.00     0.021 A 
ENDBRANCH   6   8
ENDBRANCH   1   6
BRANCH   3  18
HETATM   18  C15 LIG X 999      44.122 131.825  18.161  1.00  0.00     0.167 C 
BRANCH  18  19
HETATM   19  C16 LIG X 999      45.224 131.091  17.467  1.00  0.00     0.251 C 
HETATM   20  O1  LIG X 999      45.722 130.063  18.001  1.00  0.00    -0.271 OA
HETATM   21  N2  LIG X 999      45.697 131.567  16.201  1.00  0.00    -0.189 NA
BRANCH  21  22
HETATM   22  C17 LIG X 999      46.536 130.853  15.285  1.00  0.00     0.173 A 
HETATM   23  N3  LIG X 999      47.010 129.600  15.476  1.00  0.00    -0.344 N 
HETATM   24  C18 LIG X 999      47.728 129.156  14.411  1.00  0.00     0.097 A 
HETATM   25  H15 LIG X 999      46.833 129.009  16.318  1.00  0.00     0.167 HD
HETATM   26  C19 LIG X 999      47.813 130.052  13.349  1.00  0.00     0.070 A 
HETATM   27  S1  LIG X 999      46.955 131.439  13.767  1.00  0.00    -0.062 SA
ENDBRANCH  21  22
ENDBRANCH  18  19
ENDBRANCH   3  18
TORSDOF 5
ENDMDL
MODEL 7
REMARK VINA RESULT:      -7.7      3.069      8.667
REMARK  5 active torsions:
REMARK  status: ('A' for Active; 'I' for Inactive)
REMARK    1  A    between atoms: C2_2  and  C3_3 
REMARK    2  A    between atoms: C2_2  and  N1_13 
REMARK    3  A    between atoms: C14_15  and  C15_16 
REMARK    4  A    between atoms: C15_16  and  C16_17 
REMARK       I    between atoms: C16_17  and  N2_19 
REMARK    5  A    between atoms: N2_19  and  C17_20 
ROOT
HETATM    1  N1  LIG X 999      43.491 129.994  23.175  1.00  0.00    -0.274 N 
HETATM    2  C13 LIG X 999      43.439 130.157  21.840  1.00  0.00     0.137 A 
HETATM    3  C14 LIG X 999      43.123 131.480  21.629  1.00  0.00     0.078 A 
HETATM    4  N4  LIG X 999      42.968 132.079  22.827  1.00  0.00    -0.163 NA
HETATM    5  N5  LIG X 999      43.201 131.154  23.746  1.00  0.00     0.005 NA
ENDROOT
BRANCH   1   6
HETATM    6  C2  LIG X 999      43.733 128.756  23.920  1.00  0.00     0.134 C 
HETATM    7  C1  LIG X 999      45.002 128.049  23.422  1.00  0.00     0.039 C 
BRANCH   6   8
HETATM    8  C3  LIG X 999      42.502 127.866  23.879  1.00  0.00    -0.033 A 
HETATM    9  C4  LIG X 999      41.235 128.346  24.261  1.00  0.00     0.010 A 
HETATM   10  C5  LIG X 999      40.120 127.502  24.256  1.00  0.00     0.013 A 
HETATM   11  C6  LIG X 999      40.253 126.159  23.881  1.00  0.00    -0.026 A 
HETATM   12  C7  LIG X 999      39.138 125.304  23.873  1.00  0.00     0.012 A 
HETATM   13  C11 LIG X 999      41.525 125.658  23.514  1.00  0.00    -0.025 A 
HETATM   14  C8  LIG X 999      39.287 123.963  23.506  1.00  0.00     0.001 A 
HETATM   15  C9  LIG X 999      40.543 123.466  23.146  1.00  0.00     0.001 A 
HETATM   16  C10 LIG X 999      41.660 124.309  23.148  1.00  0.00     0.012 A 
HETATM   17  C12 LIG X 999      42.638 126.512  23.521  1.00  0.00     0.021 A 
ENDBRANCH   6   8
ENDBRANCH   1   6
BRANCH   3  18
HETATM   18  C15 LIG X 999      42.858 132.136  20.312  1.00  0.00     0.167 C 
BRANCH  18  19
HETATM   19  C16 LIG X 999      44.019 131.916  19.396  1.00  0.00     0.251 C 
HETATM   20  O1  LIG X 999      45.193 132.006  19.845  1.00  0.00    -0.271 OA
HETATM   21  N2  LIG X 999      43.777 131.606  18.018  1.00  0.00    -0.189 NA
BRANCH  21  22
HETATM   22  C17 LIG X 999      44.737 131.108  17.079  1.00  0.00     0.173 A 
HETATM   23  N3  LIG X 999      45.793 130.320  17.388  1.00  0.00    -0.344 N 
HETATM   24  C18 LIG X 999      46.497 129.951  16.285  1.00  0.00     0.097 A 
HETATM   25  H15 LIG X 999      46.042 129.992  18.346  1.00  0.00     0.167 HD
HETATM   26  C19 LIG X 999      45.989 130.430  15.080  1.00  0.00     0.070 A 
HETATM   27  S1  LIG X 999      44.613 131.341  15.420  1.00  0.00    -0.062 SA
ENDBRANCH  21  22
ENDBRANCH  18  19
ENDBRANCH   3  18
TORSDOF 5
ENDMDL
MODEL 8
REMARK VINA RESULT:      -7.4      2.291      4.167
REMARK  5 active torsions:
REMARK  status: ('A' for Active; 'I' for Inactive)
REMARK    1  A    between atoms: C2_2  and  C3_3 
REMARK    2  A    between atoms: C2_2  and  N1_13 
REMARK    3  A    between atoms: C14_15  and  C15_16 
REMARK    4  A    between atoms: C15_16  and  C16_17 
REMARK       I    between atoms: C16_17  and  N2_19 
REMARK    5  A    between atoms: N2_19  and  C17_20 
ROOT
HETATM    1  N1  LIG X 999      44.100 129.987  22.545  1.00  0.00    -0.274 N 
HETATM    2  C13 LIG X 999      43.346 129.236  23.370  1.00  0.00     0.137 A 
HETATM    3  C14 LIG X 999      43.910 127.980  23.363  1.00  0.00     0.078 A 
HETATM    4  N4  LIG X 999      44.967 127.989  22.526  1.00  0.00    -0.163 NA
HETATM    5  N5  LIG X 999      45.059 129.221  22.047  1.00  0.00     0.005 NA
ENDROOT
BRANCH   1   6
HETATM    6  C2  LIG X 999      43.889 131.385  22.160  1.00  0.00     0.134 C 
HETATM    7  C1  LIG X 999      42.678 131.983  22.890  1.00  0.00     0.039 C 
BRANCH   6   8
HETATM    8  C3  LIG X 999      43.792 131.507  20.649  1.00  0.00    -0.033 A 
HETATM    9  C4  LIG X 999      42.592 131.884  20.017  1.00  0.00     0.010 A 
HETATM   10  C5  LIG X 999      42.510 131.951  18.623  1.00  0.00     0.013 A 
HETATM   11  C6  LIG X 999      43.622 131.631  17.833  1.00  0.00    -0.026 A 
HETATM   12  C7  LIG X 999      43.548 131.696  16.432  1.00  0.00     0.012 A 
HETATM   13  C11 LIG X 999      44.829 131.230  18.455  1.00  0.00    -0.025 A 
HETATM   14  C8  LIG X 999      44.663 131.364  15.656  1.00  0.00     0.001 A 
HETATM   15  C9  LIG X 999      45.854 130.966  16.269  1.00  0.00     0.001 A 
HETATM   16  C10 LIG X 999      45.941 130.899  17.663  1.00  0.00     0.012 A 
HETATM   17  C12 LIG X 999      44.903 131.166  19.855  1.00  0.00     0.021 A 
ENDBRANCH   6   8
ENDBRANCH   1   6
BRANCH   3  18
HETATM   18  C15 LIG X 999      43.384 126.761  24.051  1.00  0.00     0.167 C 
BRANCH  18  19
HETATM   19  C16 LIG X 999      44.040 125.541  23.490  1.00  0.00     0.251 C 
HETATM   20  O1  LIG X 999      43.455 124.875  22.594  1.00  0.00    -0.271 OA
HETATM   21  N2  LIG X 999      45.327 125.147  23.982  1.00  0.00    -0.189 NA
BRANCH  21  22
HETATM   22  C17 LIG X 999      46.206 124.187  23.383  1.00  0.00     0.173 A 
HETATM   23  N3  LIG X 999      46.646 124.223  22.104  1.00  0.00    -0.344 N 
HETATM   24  C18 LIG X 999      47.518 123.215  21.834  1.00  0.00     0.097 A 
HETATM   25  H15 LIG X 999      46.389 124.946  21.397  1.00  0.00     0.167 HD
HETATM   26  C19 LIG X 999      47.795 122.378  22.911  1.00  0.00     0.070 A 
HETATM   27  S1  LIG X 999      46.917 122.928  24.239  1.00  0.00    -0.062 SA
ENDBRANCH  21  22
ENDBRANCH  18  19
ENDBRANCH   3  18
TORSDOF 5
ENDMDL
MODEL 9
REMARK VINA RESULT:      -7.2      2.051      3.231
REMARK  5 active torsions:
REMARK  status: ('A' for Active; 'I' for Inactive)
REMARK    1  A    between atoms: C2_2  and  C3_3 
REMARK    2  A    between atoms: C2_2  and  N1_13 
REMARK    3  A    between atoms: C14_15  and  C15_16 
REMARK    4  A    between atoms: C15_16  and  C16_17 
REMARK       I    between atoms: C16_17  and  N2_19 
REMARK    5  A    between atoms: N2_19  and  C17_20 
ROOT
HETATM    1  N1  LIG X 999      44.492 130.569  21.403  1.00  0.00    -0.274 N 
HETATM    2  C13 LIG X 999      44.026 130.034  22.547  1.00  0.00     0.137 A 
HETATM    3  C14 LIG X 999      44.730 128.866  22.736  1.00  0.00     0.078 A 
HETATM    4  N4  LIG X 999      45.581 128.707  21.703  1.00  0.00    -0.163 NA
HETATM    5  N5  LIG X 999      45.417 129.757  20.912  1.00  0.00     0.005 NA
ENDROOT
BRANCH   1   6
HETATM    6  C2  LIG X 999      44.031 131.784  20.727  1.00  0.00     0.134 C 
HETATM    7  C1  LIG X 999      42.628 132.186  21.206  1.00  0.00     0.039 C 
BRANCH   6   8
HETATM    8  C3  LIG X 999      44.119 131.616  19.220  1.00  0.00    -0.033 A 
HETATM    9  C4  LIG X 999      43.036 131.937  18.379  1.00  0.00     0.010 A 
HETATM   10  C5  LIG X 999      43.121 131.737  16.998  1.00  0.00     0.013 A 
HETATM   11  C6  LIG X 999      44.285 131.200  16.432  1.00  0.00    -0.026 A 
HETATM   12  C7  LIG X 999      44.377 130.995  15.045  1.00  0.00     0.012 A 
HETATM   13  C11 LIG X 999      45.373 130.853  17.268  1.00  0.00    -0.025 A 
HETATM   14  C8  LIG X 999      45.541 130.450  14.494  1.00  0.00     0.001 A 
HETATM   15  C9  LIG X 999      46.616 130.104  15.319  1.00  0.00     0.001 A 
HETATM   16  C10 LIG X 999      46.535 130.305  16.701  1.00  0.00     0.012 A 
HETATM   17  C12 LIG X 999      45.281 131.058  18.653  1.00  0.00     0.021 A 
ENDBRANCH   6   8
ENDBRANCH   1   6
BRANCH   3  18
HETATM   18  C15 LIG X 999      44.515 127.860  23.821  1.00  0.00     0.167 C 
BRANCH  18  19
HETATM   19  C16 LIG X 999      43.667 126.740  23.311  1.00  0.00     0.251 C 
HETATM   20  O1  LIG X 999      44.200 125.800  22.662  1.00  0.00    -0.271 OA
HETATM   21  N2  LIG X 999      42.257 126.753  23.569  1.00  0.00    -0.189 NA
BRANCH  21  22
HETATM   22  C17 LIG X 999      41.354 125.654  23.397  1.00  0.00     0.173 A 
HETATM   23  N3  LIG X 999      40.187 125.493  24.063  1.00  0.00    -0.344 N 
HETATM   24  C18 LIG X 999      39.510 124.389  23.649  1.00  0.00     0.097 A 
HETATM   25  H15 LIG X 999      39.811 126.141  24.789  1.00  0.00     0.167 HD
HETATM   26  C19 LIG X 999      40.129 123.672  22.629  1.00  0.00     0.070 A 
HETATM   27  S1  LIG X 999      41.568 124.456  22.240  1.00  0.00    -0.062 SA
ENDBRANCH  21  22
ENDBRANCH  18  19
ENDBRANCH   3  18
TORSDOF 5
ENDMDL
