REMARK VINA RESULT:      -5.9      2.159      7.192
REMARK  7 active torsions:
REMARK  status: ('A' for Active; 'I' for Inactive)
REMARK    1  A    between atoms: S1_2  and  C1_3 
REMARK    2  A    between atoms: C1_3  and  N2_11 
REMARK    3  A    between atoms: N1_4  and  C2_6 
REMARK    4  A    between atoms: C2_6  and  C3_7 
REMARK    5  A    between atoms: C3_7  and  C4_8 
REMARK    6  A    between atoms: C4_8  and  S2_9 
REMARK    7  A    between atoms: N2_11  and  C5_14 
ROOT
HETATM    1  N2  LIG X 999      44.990 132.035  18.672  1.00  0.00     0.006 N 
HETATM    2  H10 LIG X 999      45.926 131.853  18.242  1.00  0.00     0.293 HD
HETATM    3  H11 LIG X 999      44.961 133.060  18.884  1.00  0.00     0.293 HD
ENDROOT
BRANCH   1   4
HETATM    4  C1  LIG X 999      43.944 131.720  17.719  1.00  0.00     0.240 C 
HETATM    5  N1  LIG X 999      44.182 131.369  16.489  1.00  0.00    -0.365 N 
HETATM    6  H2  LIG X 999      43.377 131.169  15.876  1.00  0.00     0.161 HD
BRANCH   4   7
HETATM    7  S1  LIG X 999      42.227 131.911  18.232  1.00  0.00    -0.100 SA
HETATM    8  H1  LIG X 999      42.574 132.010  19.592  1.00  0.00     0.110 HD
ENDBRANCH   4   7
BRANCH   5   9
HETATM    9  C2  LIG X 999      45.498 131.169  15.908  1.00  0.00     0.122 C 
BRANCH   9  10
HETATM   10  C3  LIG X 999      45.568 129.799  15.218  1.00  0.00     0.029 C 
BRANCH  10  11
HETATM   11  C4  LIG X 999      46.892 129.581  14.477  1.00  0.00     0.072 C 
BRANCH  11  12
HETATM   12  S2  LIG X 999      47.280 130.975  13.370  1.00  0.00    -0.182 SA
HETATM   13  H9  LIG X 999      48.653 130.947  13.679  1.00  0.00     0.101 HD
ENDBRANCH  11  12
ENDBRANCH  10  11
ENDBRANCH   9  10
ENDBRANCH   5   9
ENDBRANCH   1   4
BRANCH   1  14
HETATM   14  C5  LIG X 999      44.815 131.330  19.920  1.00  0.00     0.141 A 
HETATM   15  C6  LIG X 999      45.557 130.166  20.190  1.00  0.00     0.038 A 
HETATM   16  C7  LIG X 999      45.391 129.475  21.392  1.00  0.00     0.014 A 
HETATM   17  C8  LIG X 999      44.493 129.949  22.359  1.00  0.00    -0.026 A 
HETATM   18  C9  LIG X 999      44.314 129.259  23.567  1.00  0.00     0.012 A 
HETATM   19  C13 LIG X 999      43.769 131.140  22.118  1.00  0.00    -0.024 A 
HETATM   20  C10 LIG X 999      43.423 129.746  24.528  1.00  0.00     0.001 A 
HETATM   21  C11 LIG X 999      42.708 130.924  24.291  1.00  0.00     0.001 A 
HETATM   22  C12 LIG X 999      42.879 131.620  23.091  1.00  0.00     0.012 A 
HETATM   23  C14 LIG X 999      43.944 131.828  20.908  1.00  0.00     0.049 A 
ENDBRANCH   1  14
TORSDOF 7
