REMARK VINA RESULT:      -7.3      1.391      2.473
REMARK  2 active torsions:
REMARK  status: ('A' for Active; 'I' for Inactive)
REMARK    1  A    between atoms: O1_2  and  C2_3 
REMARK    2  A    between atoms: C11_12  and  N1_13 
ROOT
HETATM    1  C2  LIG X 999      44.877 131.462  16.345  1.00  0.00     0.095 A 
HETATM    2  C3  LIG X 999      43.984 131.885  17.350  1.00  0.00     0.051 A 
HETATM    3  C4  LIG X 999      44.178 131.502  18.684  1.00  0.00    -0.023 A 
HETATM    4  C5  LIG X 999      43.283 131.924  19.688  1.00  0.00     0.021 A 
HETATM    5  C6  LIG X 999      43.517 131.521  21.004  1.00  0.00    -0.024 A 
HETATM    6  C7  LIG X 999      44.576 130.731  21.330  1.00  0.00    -0.024 A 
HETATM    7  C8  LIG X 999      45.480 130.286  20.364  1.00  0.00     0.021 A 
HETATM    8  C9  LIG X 999      45.284 130.677  19.025  1.00  0.00    -0.023 A 
HETATM    9  C10 LIG X 999      46.168 130.257  18.024  1.00  0.00     0.044 A 
HETATM   10  C11 LIG X 999      45.972 130.644  16.690  1.00  0.00     0.060 A 
HETATM   11  C12 LIG X 999      44.573 130.430  22.778  1.00  0.00     0.276 C 
HETATM   12  N2  LIG X 999      43.471 131.261  23.360  1.00  0.00    -0.067 N 
HETATM   13  C13 LIG X 999      44.042 132.361  24.174  1.00  0.00     0.272 C 
HETATM   14  C14 LIG X 999      42.592 130.435  24.217  1.00  0.00     0.272 C 
HETATM   15  C15 LIG X 999      42.705 131.823  22.203  1.00  0.00     0.276 C 
ENDROOT
BRANCH  10  16
HETATM   16  N1  LIG X 999      46.893 130.200  15.687  1.00  0.00    -0.397 N 
HETATM   17  H8  LIG X 999      47.557 130.871  15.239  1.00  0.00     0.156 HD
HETATM   18  H9  LIG X 999      46.927 129.203  15.380  1.00  0.00     0.156 HD
ENDBRANCH  10  16
BRANCH   1  19
HETATM   19  O1  LIG X 999      44.707 131.832  15.001  1.00  0.00    -0.354 OA
HETATM   20  C1  LIG X 999      43.567 131.511  14.211  1.00  0.00     0.210 C 
ENDBRANCH   1  19
TORSDOF 2
