REMARK VINA RESULT:      -8.0      1.789      2.695
REMARK  2 active torsions:
REMARK  status: ('A' for Active; 'I' for Inactive)
REMARK    1  A    between atoms: C6_6  and  C7_7 
REMARK    2  A    between atoms: C7_7  and  N1_8 
ROOT
HETATM    1  N1  LIG X 999      43.224 131.469  20.740  1.00  0.00    -0.106 NA
HETATM    2  N2  LIG X 999      42.979 131.635  21.935  1.00  0.00    -0.167 NA
HETATM    3  N3  LIG X 999      42.734 131.801  23.129  1.00  0.00     0.068 N 
ENDROOT
BRANCH   1   4
HETATM    4  C7  LIG X 999      44.598 131.475  20.246  1.00  0.00     0.174 C 
HETATM    5  C8  LIG X 999      45.375 130.328  20.890  1.00  0.00     0.042 C 
BRANCH   4   6
HETATM    6  C6  LIG X 999      44.629 131.352  18.737  1.00  0.00    -0.030 A 
HETATM    7  C5  LIG X 999      45.740 130.789  18.085  1.00  0.00     0.021 A 
HETATM    8  C4  LIG X 999      45.772 130.693  16.686  1.00  0.00    -0.025 A 
HETATM    9  C3  LIG X 999      46.878 130.127  16.032  1.00  0.00     0.012 A 
HETATM   10  C11 LIG X 999      44.679 131.173  15.924  1.00  0.00    -0.026 A 
HETATM   11  C2  LIG X 999      46.897 130.036  14.637  1.00  0.00     0.001 A 
HETATM   12  C1  LIG X 999      45.818 130.510  13.886  1.00  0.00     0.001 A 
HETATM   13  C12 LIG X 999      44.713 131.078  14.525  1.00  0.00     0.012 A 
HETATM   14  C10 LIG X 999      43.578 131.744  16.577  1.00  0.00     0.013 A 
HETATM   15  C9  LIG X 999      43.554 131.835  17.971  1.00  0.00     0.010 A 
ENDBRANCH   4   6
ENDBRANCH   1   4
TORSDOF 2
