MODEL 1
REMARK VINA RESULT:      -8.1      0.000      0.000
REMARK  1 active torsions:
REMARK  status: ('A' for Active; 'I' for Inactive)
REMARK    1  A    between atoms: C9_10  and  N2_11 
ROOT
HETATM    1  C1  LIG X 999      46.128 132.082  15.248  1.00  0.00     0.272 C 
HETATM    2  N1  LIG X 999      45.354 130.962  15.836  1.00  0.00    -0.067 N 
HETATM    3  C2  LIG X 999      45.159 129.918  14.805  1.00  0.00     0.272 C 
HETATM    4  C3  LIG X 999      44.034 131.461  16.338  1.00  0.00     0.276 C 
HETATM    5  C4  LIG X 999      44.128 131.416  17.814  1.00  0.00    -0.024 A 
HETATM    6  C5  LIG X 999      43.194 131.874  18.745  1.00  0.00     0.021 A 
HETATM    7  C6  LIG X 999      43.474 131.711  20.116  1.00  0.00    -0.025 A 
HETATM    8  C7  LIG X 999      42.568 132.158  21.087  1.00  0.00     0.014 A 
HETATM    9  C8  LIG X 999      42.853 131.990  22.445  1.00  0.00     0.030 A 
HETATM   10  C9  LIG X 999      44.046 131.375  22.851  1.00  0.00     0.026 A 
HETATM   11  C10 LIG X 999      44.960 130.922  21.888  1.00  0.00     0.041 A 
HETATM   12  C11 LIG X 999      44.687 131.085  20.522  1.00  0.00    -0.023 A 
HETATM   13  C12 LIG X 999      45.600 130.631  19.549  1.00  0.00     0.021 A 
HETATM   14  C13 LIG X 999      45.288 130.818  18.202  1.00  0.00    -0.024 A 
HETATM   15  C14 LIG X 999      46.079 130.405  17.022  1.00  0.00     0.276 C 
ENDROOT
BRANCH  10  16
HETATM   16  N2  LIG X 999      44.329 131.207  24.243  1.00  0.00    -0.399 N 
HETATM   17  H12 LIG X 999      43.676 131.575  24.970  1.00  0.00     0.156 HD
HETATM   18  H13 LIG X 999      45.195 130.715  24.558  1.00  0.00     0.156 HD
ENDBRANCH  10  16
TORSDOF 1
ENDMDL
MODEL 2
REMARK VINA RESULT:      -7.6      1.046      5.799
REMARK  1 active torsions:
REMARK  status: ('A' for Active; 'I' for Inactive)
REMARK    1  A    between atoms: C9_10  and  N2_11 
ROOT
HETATM    1  C1  LIG X 999      43.010 129.950  22.747  1.00  0.00     0.272 C 
HETATM    2  N1  LIG X 999      43.739 131.128  22.219  1.00  0.00    -0.067 N 
HETATM    3  C2  LIG X 999      43.995 132.074  23.329  1.00  0.00     0.272 C 
HETATM    4  C3  LIG X 999      42.934 131.786  21.140  1.00  0.00     0.276 C 
HETATM    5  C4  LIG X 999      43.648 131.495  19.877  1.00  0.00    -0.024 A 
HETATM    6  C5  LIG X 999      43.247 131.802  18.577  1.00  0.00     0.021 A 
HETATM    7  C6  LIG X 999      44.096 131.453  17.509  1.00  0.00    -0.025 A 
HETATM    8  C7  LIG X 999      43.734 131.738  16.185  1.00  0.00     0.014 A 
HETATM    9  C8  LIG X 999      44.585 131.389  15.133  1.00  0.00     0.030 A 
HETATM   10  C9  LIG X 999      45.807 130.751  15.387  1.00  0.00     0.026 A 
HETATM   11  C10 LIG X 999      46.181 130.462  16.707  1.00  0.00     0.041 A 
HETATM   12  C11 LIG X 999      45.337 130.805  17.773  1.00  0.00    -0.023 A 
HETATM   13  C12 LIG X 999      45.708 130.519  19.102  1.00  0.00     0.021 A 
HETATM   14  C13 LIG X 999      44.834 130.875  20.131  1.00  0.00    -0.024 A 
HETATM   15  C14 LIG X 999      45.025 130.694  21.586  1.00  0.00     0.276 C 
ENDROOT
BRANCH  10  16
HETATM   16  N2  LIG X 999      46.671 130.399  14.303  1.00  0.00    -0.399 N 
HETATM   17  H12 LIG X 999      46.818 131.052  13.502  1.00  0.00     0.156 HD
HETATM   18  H13 LIG X 999      47.169 129.481  14.292  1.00  0.00     0.156 HD
ENDBRANCH  10  16
TORSDOF 1
ENDMDL
MODEL 3
REMARK VINA RESULT:      -7.0      1.092      6.110
REMARK  1 active torsions:
REMARK  status: ('A' for Active; 'I' for Inactive)
REMARK    1  A    between atoms: C9_10  and  N2_11 
ROOT
HETATM    1  C1  LIG X 999      44.048 132.453  24.187  1.00  0.00     0.272 C 
HETATM    2  N1  LIG X 999      43.500 131.317  23.406  1.00  0.00    -0.067 N 
HETATM    3  C2  LIG X 999      42.684 130.467  24.302  1.00  0.00     0.272 C 
HETATM    4  C3  LIG X 999      44.618 130.525  22.800  1.00  0.00     0.276 C 
HETATM    5  C4  LIG X 999      44.563 130.806  21.348  1.00  0.00    -0.024 A 
HETATM    6  C5  LIG X 999      45.455 130.386  20.361  1.00  0.00     0.021 A 
HETATM    7  C6  LIG X 999      45.201 130.749  19.024  1.00  0.00    -0.025 A 
HETATM    8  C7  LIG X 999      46.071 130.354  17.999  1.00  0.00     0.014 A 
HETATM    9  C8  LIG X 999      45.809 130.716  16.675  1.00  0.00     0.030 A 
HETATM   10  C9  LIG X 999      44.675 131.479  16.357  1.00  0.00     0.026 A 
HETATM   11  C10 LIG X 999      43.797 131.879  17.374  1.00  0.00     0.041 A 
HETATM   12  C11 LIG X 999      44.048 131.523  18.707  1.00  0.00    -0.023 A 
HETATM   13  C12 LIG X 999      43.168 131.921  19.734  1.00  0.00     0.021 A 
HETATM   14  C13 LIG X 999      43.461 131.546  21.046  1.00  0.00    -0.024 A 
HETATM   15  C14 LIG X 999      42.675 131.830  22.266  1.00  0.00     0.276 C 
ENDROOT
BRANCH  10  16
HETATM   16  N2  LIG X 999      44.416 131.845  14.999  1.00  0.00    -0.399 N 
HETATM   17  H12 LIG X 999      43.763 131.282  14.409  1.00  0.00     0.156 HD
HETATM   18  H13 LIG X 999      44.875 132.680  14.573  1.00  0.00     0.156 HD
ENDBRANCH  10  16
TORSDOF 1
ENDMDL
MODEL 4
REMARK VINA RESULT:      -6.3      2.072      6.595
REMARK  1 active torsions:
REMARK  status: ('A' for Active; 'I' for Inactive)
REMARK    1  A    between atoms: C9_10  and  N2_11 
ROOT
HETATM    1  C1  LIG X 999      45.413 132.196  20.936  1.00  0.00     0.272 C 
HETATM    2  N1  LIG X 999      44.537 131.549  19.930  1.00  0.00    -0.067 N 
HETATM    3  C2  LIG X 999      43.198 131.333  20.524  1.00  0.00     0.272 C 
HETATM    4  C3  LIG X 999      45.136 130.247  19.491  1.00  0.00     0.276 C 
HETATM    5  C4  LIG X 999      45.600 130.470  18.104  1.00  0.00    -0.024 A 
HETATM    6  C5  LIG X 999      46.318 129.593  17.291  1.00  0.00     0.021 A 
HETATM    7  C6  LIG X 999      46.641 130.000  15.981  1.00  0.00    -0.025 A 
HETATM    8  C7  LIG X 999      47.364 129.154  15.129  1.00  0.00     0.014 A 
HETATM    9  C8  LIG X 999      47.678 129.565  13.831  1.00  0.00     0.030 A 
HETATM   10  C9  LIG X 999      47.275 130.826  13.367  1.00  0.00     0.026 A 
HETATM   11  C10 LIG X 999      46.550 131.680  14.210  1.00  0.00     0.041 A 
HETATM   12  C11 LIG X 999      46.230 131.281  15.516  1.00  0.00    -0.023 A 
HETATM   13  C12 LIG X 999      45.499 132.134  16.368  1.00  0.00     0.021 A 
HETATM   14  C13 LIG X 999      45.206 131.696  17.660  1.00  0.00    -0.024 A 
HETATM   15  C14 LIG X 999      44.441 132.407  18.706  1.00  0.00     0.276 C 
ENDROOT
BRANCH  10  16
HETATM   16  N2  LIG X 999      47.601 131.238  12.037  1.00  0.00    -0.399 N 
HETATM   17  H12 LIG X 999      46.918 131.780  11.462  1.00  0.00     0.156 HD
HETATM   18  H13 LIG X 999      48.527 131.002  11.615  1.00  0.00     0.156 HD
ENDBRANCH  10  16
TORSDOF 1
ENDMDL
MODEL 5
REMARK VINA RESULT:      -5.9      2.078      6.341
REMARK  1 active torsions:
REMARK  status: ('A' for Active; 'I' for Inactive)
REMARK    1  A    between atoms: C9_10  and  N2_11 
ROOT
HETATM    1  C1  LIG X 999      42.880 130.957  20.077  1.00  0.00     0.272 C 
HETATM    2  N1  LIG X 999      44.279 131.437  19.965  1.00  0.00    -0.067 N 
HETATM    3  C2  LIG X 999      44.689 132.033  21.256  1.00  0.00     0.272 C 
HETATM    4  C3  LIG X 999      44.387 132.444  18.860  1.00  0.00     0.276 C 
HETATM    5  C4  LIG X 999      45.136 131.768  17.778  1.00  0.00    -0.024 A 
HETATM    6  C5  LIG X 999      45.409 132.250  16.497  1.00  0.00     0.021 A 
HETATM    7  C6  LIG X 999      46.166 131.446  15.622  1.00  0.00    -0.025 A 
HETATM    8  C7  LIG X 999      46.462 131.886  14.325  1.00  0.00     0.014 A 
HETATM    9  C8  LIG X 999      47.216 131.082  13.465  1.00  0.00     0.030 A 
HETATM   10  C9  LIG X 999      47.683 129.829  13.888  1.00  0.00     0.026 A 
HETATM   11  C10 LIG X 999      47.394 129.379  15.184  1.00  0.00     0.041 A 
HETATM   12  C11 LIG X 999      46.637 130.175  16.057  1.00  0.00    -0.023 A 
HETATM   13  C12 LIG X 999      46.345 129.729  17.362  1.00  0.00     0.021 A 
HETATM   14  C13 LIG X 999      45.586 130.553  18.195  1.00  0.00    -0.024 A 
HETATM   15  C14 LIG X 999      45.182 130.301  19.595  1.00  0.00     0.276 C 
ENDROOT
BRANCH  10  16
HETATM   16  N2  LIG X 999      48.453 129.014  13.001  1.00  0.00    -0.399 N 
HETATM   17  H12 LIG X 999      48.292 127.984  12.944  1.00  0.00     0.156 HD
HETATM   18  H13 LIG X 999      49.193 129.434  12.395  1.00  0.00     0.156 HD
ENDBRANCH  10  16
TORSDOF 1
ENDMDL
