REMARK VINA RESULT:      -6.5      1.809      2.426
REMARK  1 active torsions:
REMARK  status: ('A' for Active; 'I' for Inactive)
REMARK    1  A    between atoms: C8_8  and  N1_9 
ROOT
HETATM    1  N1  LIG X 999      43.925 131.373  16.297  1.00  0.00    -0.072 NA
HETATM    2  N2  LIG X 999      45.016 131.746  15.867  1.00  0.00    -0.162 NA
HETATM    3  N3  LIG X 999      46.108 132.112  15.434  1.00  0.00     0.068 N 
ENDROOT
BRANCH   1   4
HETATM    4  C8  LIG X 999      43.480 131.651  17.633  1.00  0.00     0.104 A 
HETATM    5  C7  LIG X 999      42.221 132.293  17.788  1.00  0.00     0.038 A 
HETATM    6  C6  LIG X 999      41.682 132.561  19.066  1.00  0.00     0.035 A 
HETATM    7  C5  LIG X 999      42.423 132.183  20.182  1.00  0.00     0.073 A 
HETATM    8  C4  LIG X 999      43.642 131.592  20.023  1.00  0.00     0.021 A 
HETATM    9  N4  LIG X 999      42.103 132.381  21.563  1.00  0.00    -0.209 NA
HETATM   10  C3  LIG X 999      44.229 131.361  21.225  1.00  0.00     0.047 A 
HETATM   11  C9  LIG X 999      44.234 131.317  18.796  1.00  0.00     0.009 A 
HETATM   12  C2  LIG X 999      45.510 130.823  21.304  1.00  0.00     0.018 A 
HETATM   13  C11 LIG X 999      43.270 131.848  22.211  1.00  0.00     0.278 A 
HETATM   14  C1  LIG X 999      46.173 130.535  20.090  1.00  0.00     0.002 A 
HETATM   15  C10 LIG X 999      45.548 130.788  18.841  1.00  0.00     0.015 A 
HETATM   16  O1  LIG X 999      43.427 131.824  23.461  1.00  0.00    -0.265 OA
ENDBRANCH   1   4
TORSDOF 1
