REMARK VINA RESULT:      -7.8      2.945      8.465
REMARK  6 active torsions:
REMARK  status: ('A' for Active; 'I' for Inactive)
REMARK    1  A    between atoms: C4_5  and  C5_6 
REMARK       I    between atoms: C5_6  and  N2_8 
REMARK    2  A    between atoms: N2_8  and  C6_9 
REMARK    3  A    between atoms: C6_9  and  O2_10 
REMARK    4  A    between atoms: O2_10  and  C7_11 
REMARK    5  A    between atoms: C7_11  and  O4_13 
REMARK    6  A    between atoms: O4_13  and  C8_14 
ROOT
HETATM    1  C7  LIG X 999      43.739 131.370  21.717  1.00  0.00     0.413 C 
HETATM    2  O3  LIG X 999      42.632 131.971  21.772  1.00  0.00    -0.229 OA
ENDROOT
BRANCH   1   3
HETATM    3  O2  LIG X 999      44.506 131.401  20.549  1.00  0.00    -0.276 OA
BRANCH   3   4
HETATM    4  C6  LIG X 999      44.043 131.932  19.309  1.00  0.00     0.334 C 
BRANCH   4   5
HETATM    5  N2  LIG X 999      44.927 131.518  18.225  1.00  0.00    -0.224 NA
HETATM    6  C5  LIG X 999      44.531 131.424  16.853  1.00  0.00     0.292 C 
HETATM    7  O1  LIG X 999      43.392 131.819  16.486  1.00  0.00    -0.264 OA
BRANCH   6   8
HETATM    8  C4  LIG X 999      45.468 130.879  15.861  1.00  0.00     0.119 A 
HETATM    9  C3  LIG X 999      45.929 129.573  15.800  1.00  0.00     0.055 A 
HETATM   10  C2  LIG X 999      46.792 129.557  14.720  1.00  0.00     0.112 A 
HETATM   11  N1  LIG X 999      46.818 130.788  14.173  1.00  0.00    -0.307 N 
HETATM   12  C1  LIG X 999      47.662 131.215  13.065  1.00  0.00     0.177 C 
HETATM   13  N3  LIG X 999      46.031 131.593  14.868  1.00  0.00    -0.294 N 
HETATM   14  H15 LIG X 999      45.893 132.610  14.671  1.00  0.00     0.187 HD
ENDBRANCH   6   8
ENDBRANCH   4   5
ENDBRANCH   3   4
ENDBRANCH   1   3
BRANCH   1  15
HETATM   15  O4  LIG X 999      44.203 130.623  22.805  1.00  0.00    -0.256 OA
BRANCH  15  16
HETATM   16  C8  LIG X 999      43.965 129.256  23.014  1.00  0.00     0.082 A 
HETATM   17  C9  LIG X 999      42.813 128.787  23.671  1.00  0.00     0.038 A 
HETATM   18  C10 LIG X 999      42.617 127.417  23.868  1.00  0.00     0.015 A 
HETATM   19  C11 LIG X 999      43.574 126.495  23.418  1.00  0.00    -0.026 A 
HETATM   20  C12 LIG X 999      43.387 125.117  23.607  1.00  0.00     0.012 A 
HETATM   21  C16 LIG X 999      44.743 126.962  22.772  1.00  0.00    -0.023 A 
HETATM   22  C13 LIG X 999      44.351 124.211  23.159  1.00  0.00     0.001 A 
HETATM   23  C14 LIG X 999      45.506 124.670  22.521  1.00  0.00     0.001 A 
HETATM   24  C15 LIG X 999      45.705 126.040  22.327  1.00  0.00     0.012 A 
HETATM   25  C17 LIG X 999      44.931 128.339  22.581  1.00  0.00     0.049 A 
ENDBRANCH  15  16
ENDBRANCH   1  15
TORSDOF 6
