REMARK VINA RESULT:      -7.8      3.895      5.968
REMARK  3 active torsions:
REMARK  status: ('A' for Active; 'I' for Inactive)
REMARK    1  A    between atoms: N1_1  and  C1_2 
REMARK    2  A    between atoms: C1_2  and  C2_3 
REMARK    3  A    between atoms: C2_3  and  C3_5 
ROOT
HETATM    1  C3  LIG X 999      43.892 131.609  18.855  1.00  0.00     0.012 A 
HETATM    2  C4  LIG X 999      45.110 130.978  19.172  1.00  0.00     0.016 A 
HETATM    3  C5  LIG X 999      45.974 130.543  18.164  1.00  0.00     0.013 A 
HETATM    4  C6  LIG X 999      45.638 130.727  16.818  1.00  0.00    -0.026 A 
HETATM    5  C7  LIG X 999      46.501 130.292  15.798  1.00  0.00     0.012 A 
HETATM    6  C8  LIG X 999      46.154 130.480  14.458  1.00  0.00     0.001 A 
HETATM    7  C9  LIG X 999      44.946 131.099  14.125  1.00  0.00     0.001 A 
HETATM    8  C10 LIG X 999      44.078 131.536  15.130  1.00  0.00     0.012 A 
HETATM    9  C11 LIG X 999      44.416 131.355  16.481  1.00  0.00    -0.025 A 
HETATM   10  C12 LIG X 999      43.553 131.790  17.499  1.00  0.00     0.027 A 
ENDROOT
BRANCH   1  11
HETATM   11  C2  LIG X 999      42.987 132.062  19.946  1.00  0.00     0.187 C 
HETATM   12  O1  LIG X 999      42.063 132.879  19.682  1.00  0.00    -0.290 OA
BRANCH  11  13
HETATM   13  C1  LIG X 999      43.171 131.598  21.369  1.00  0.00     0.350 C 
BRANCH  13  14
HETATM   14  N1  LIG X 999      42.119 132.122  22.236  1.00  0.00     0.085 N 
HETATM   15  H1  LIG X 999      42.573 132.487  23.105  1.00  0.00     0.313 HD
HETATM   16  H2  LIG X 999      41.511 131.324  22.532  1.00  0.00     0.313 HD
ENDBRANCH  13  14
ENDBRANCH  11  13
ENDBRANCH   1  11
TORSDOF 3
