REMARK VINA RESULT:      -8.1      0.000      0.000
REMARK  1 active torsions:
REMARK  status: ('A' for Active; 'I' for Inactive)
REMARK    1  A    between atoms: C9_10  and  N2_11 
ROOT
HETATM    1  C1  LIG X 999      45.221 129.879  14.819  1.00  0.00     0.272 C 
HETATM    2  N1  LIG X 999      45.413 130.926  15.850  1.00  0.00    -0.067 N 
HETATM    3  C2  LIG X 999      46.205 132.035  15.268  1.00  0.00     0.272 C 
HETATM    4  C3  LIG X 999      44.092 131.439  16.334  1.00  0.00     0.276 C 
HETATM    5  C4  LIG X 999      44.166 131.400  17.810  1.00  0.00    -0.024 A 
HETATM    6  C5  LIG X 999      43.225 131.869  18.728  1.00  0.00     0.021 A 
HETATM    7  C6  LIG X 999      43.487 131.710  20.103  1.00  0.00    -0.025 A 
HETATM    8  C7  LIG X 999      42.572 132.170  21.061  1.00  0.00     0.014 A 
HETATM    9  C8  LIG X 999      42.839 132.005  22.423  1.00  0.00     0.030 A 
HETATM   10  C9  LIG X 999      44.021 131.379  22.846  1.00  0.00     0.026 A 
HETATM   11  C10 LIG X 999      44.942 130.914  21.896  1.00  0.00     0.041 A 
HETATM   12  C11 LIG X 999      44.688 131.073  20.527  1.00  0.00    -0.023 A 
HETATM   13  C12 LIG X 999      45.609 130.607  19.567  1.00  0.00     0.021 A 
HETATM   14  C13 LIG X 999      45.315 130.791  18.215  1.00  0.00    -0.024 A 
HETATM   15  C14 LIG X 999      46.117 130.366  17.047  1.00  0.00     0.276 C 
ENDROOT
BRANCH  10  16
HETATM   16  N2  LIG X 999      44.285 131.214  24.242  1.00  0.00    -0.399 N 
HETATM   17  H12 LIG X 999      43.819 130.456  24.788  1.00  0.00     0.156 HD
HETATM   18  H13 LIG X 999      44.947 131.850  24.739  1.00  0.00     0.156 HD
ENDBRANCH  10  16
TORSDOF 1
