REMARK VINA RESULT:      -6.7      0.000      0.000
REMARK  4 active torsions:
REMARK  status: ('A' for Active; 'I' for Inactive)
REMARK    1  A    between atoms: C1_1  and  C2_6 
REMARK    2  A    between atoms: N1_2  and  N2_3 
REMARK    3  A    between atoms: C2_6  and  C3_8 
REMARK    4  A    between atoms: C11_16  and  N4_17 
ROOT
HETATM    1  N4  LIG X 999      45.415 129.051  20.958  1.00  0.00    -0.105 NA
HETATM    2  N5  LIG X 999      45.230 128.497  22.042  1.00  0.00    -0.167 NA
HETATM    3  N6  LIG X 999      45.045 127.944  23.125  1.00  0.00     0.068 N 
ENDROOT
BRANCH   1   4
HETATM    4  C11 LIG X 999      45.663 130.488  20.872  1.00  0.00     0.179 C 
HETATM    5  C10 LIG X 999      44.381 131.224  21.198  1.00  0.00    -0.024 A 
HETATM    6  C5  LIG X 999      43.559 131.777  20.184  1.00  0.00    -0.049 A 
HETATM    7  C9  LIG X 999      43.951 131.276  22.536  1.00  0.00     0.010 A 
HETATM    8  C4  LIG X 999      44.002 131.822  18.740  1.00  0.00     0.051 C 
HETATM    9  C6  LIG X 999      42.353 132.403  20.539  1.00  0.00     0.007 A 
HETATM   10  C3  LIG X 999      45.096 130.790  18.424  1.00  0.00     0.068 C 
HETATM   11  C12 LIG X 999      46.208 130.864  19.482  1.00  0.00     0.048 C 
HETATM   12  C7  LIG X 999      41.945 132.452  21.873  1.00  0.00     0.001 A 
HETATM   13  C8  LIG X 999      42.742 131.889  22.870  1.00  0.00     0.001 A 
BRANCH  10  14
HETATM   14  C2  LIG X 999      45.651 131.025  17.040  1.00  0.00     0.172 C 
HETATM   15  O1  LIG X 999      45.528 132.156  16.496  1.00  0.00    -0.291 OA
BRANCH  14  16
HETATM   16  C1  LIG X 999      46.307 129.932  16.306  1.00  0.00     0.190 C 
HETATM   17  N1  LIG X 999      46.915 130.167  15.186  1.00  0.00    -0.165 NA
BRANCH  17  18
HETATM   18  N2  LIG X 999      47.548 129.148  14.462  1.00  0.00    -0.177 N 
HETATM   19  H2  LIG X 999      47.381 128.141  14.691  1.00  0.00     0.214 HD
HETATM   20  N3  LIG X 999      48.336 129.446  13.513  1.00  0.00    -0.031 N 
ENDBRANCH  17  18
ENDBRANCH  14  16
ENDBRANCH  10  14
ENDBRANCH   1   4
TORSDOF 4
