MODEL 1
REMARK VINA RESULT:      -5.5      0.000      0.000
REMARK  0 active torsions:
REMARK  status: ('A' for Active; 'I' for Inactive)
ROOT
HETATM    1  C1  LIG X 999      46.797 129.568  15.347  1.00  0.00     0.000 A 
HETATM    2  C2  LIG X 999      46.317 130.881  15.322  1.00  0.00     0.000 A 
HETATM    3  C3  LIG X 999      46.692 131.744  14.287  1.00  0.00     0.000 A 
HETATM    4  C4  LIG X 999      47.550 131.294  13.277  1.00  0.00     0.000 A 
HETATM    5  C5  LIG X 999      48.031 129.980  13.302  1.00  0.00     0.000 A 
HETATM    6  C6  LIG X 999      47.655 129.118  14.337  1.00  0.00     0.000 A 
ENDROOT
TORSDOF 0
ENDMDL
MODEL 2
REMARK VINA RESULT:      -5.5      0.032      2.420
REMARK  0 active torsions:
REMARK  status: ('A' for Active; 'I' for Inactive)
ROOT
HETATM    1  C1  LIG X 999      46.682 131.758  14.321  1.00  0.00     0.000 A 
HETATM    2  C2  LIG X 999      47.532 131.311  13.304  1.00  0.00     0.000 A 
HETATM    3  C3  LIG X 999      48.005 129.995  13.316  1.00  0.00     0.000 A 
HETATM    4  C4  LIG X 999      47.631 129.126  14.348  1.00  0.00     0.000 A 
HETATM    5  C5  LIG X 999      46.781 129.574  15.365  1.00  0.00     0.000 A 
HETATM    6  C6  LIG X 999      46.308 130.889  15.352  1.00  0.00     0.000 A 
ENDROOT
TORSDOF 0
ENDMDL
MODEL 3
REMARK VINA RESULT:      -5.5      0.672      2.075
REMARK  0 active torsions:
REMARK  status: ('A' for Active; 'I' for Inactive)
ROOT
HETATM    1  C1  LIG X 999      46.337 131.344  13.498  1.00  0.00     0.000 A 
HETATM    2  C2  LIG X 999      45.748 130.529  14.471  1.00  0.00     0.000 A 
HETATM    3  C3  LIG X 999      46.412 129.382  14.918  1.00  0.00     0.000 A 
HETATM    4  C4  LIG X 999      47.665 129.048  14.390  1.00  0.00     0.000 A 
HETATM    5  C5  LIG X 999      48.253 129.863  13.418  1.00  0.00     0.000 A 
HETATM    6  C6  LIG X 999      47.590 131.010  12.971  1.00  0.00     0.000 A 
ENDROOT
TORSDOF 0
ENDMDL
MODEL 4
REMARK VINA RESULT:      -5.4      0.146      1.981
REMARK  0 active torsions:
REMARK  status: ('A' for Active; 'I' for Inactive)
ROOT
HETATM    1  C1  LIG X 999      47.911 130.060  13.314  1.00  0.00     0.000 A 
HETATM    2  C2  LIG X 999      47.415 131.366  13.385  1.00  0.00     0.000 A 
HETATM    3  C3  LIG X 999      46.614 131.752  14.464  1.00  0.00     0.000 A 
HETATM    4  C4  LIG X 999      46.307 130.831  15.473  1.00  0.00     0.000 A 
HETATM    5  C5  LIG X 999      46.804 129.525  15.402  1.00  0.00     0.000 A 
HETATM    6  C6  LIG X 999      47.604 129.140  14.322  1.00  0.00     0.000 A 
ENDROOT
TORSDOF 0
ENDMDL
MODEL 5
REMARK VINA RESULT:      -5.4      1.097      1.713
REMARK  0 active torsions:
REMARK  status: ('A' for Active; 'I' for Inactive)
ROOT
HETATM    1  C1  LIG X 999      46.059 129.310  15.215  1.00  0.00     0.000 A 
HETATM    2  C2  LIG X 999      45.459 130.120  16.185  1.00  0.00     0.000 A 
HETATM    3  C3  LIG X 999      45.586 131.510  16.111  1.00  0.00     0.000 A 
HETATM    4  C4  LIG X 999      46.315 132.092  15.067  1.00  0.00     0.000 A 
HETATM    5  C5  LIG X 999      46.915 131.282  14.097  1.00  0.00     0.000 A 
HETATM    6  C6  LIG X 999      46.788 129.892  14.172  1.00  0.00     0.000 A 
ENDROOT
TORSDOF 0
ENDMDL
MODEL 6
REMARK VINA RESULT:      -5.4      1.177      2.457
REMARK  0 active torsions:
REMARK  status: ('A' for Active; 'I' for Inactive)
ROOT
HETATM    1  C1  LIG X 999      45.849 129.342  15.239  1.00  0.00     0.000 A 
HETATM    2  C2  LIG X 999      46.661 129.863  14.226  1.00  0.00     0.000 A 
HETATM    3  C3  LIG X 999      46.890 131.240  14.152  1.00  0.00     0.000 A 
HETATM    4  C4  LIG X 999      46.305 132.099  15.090  1.00  0.00     0.000 A 
HETATM    5  C5  LIG X 999      45.493 131.578  16.103  1.00  0.00     0.000 A 
HETATM    6  C6  LIG X 999      45.264 130.201  16.177  1.00  0.00     0.000 A 
ENDROOT
TORSDOF 0
ENDMDL
MODEL 7
REMARK VINA RESULT:      -5.3      1.120      2.865
REMARK  0 active torsions:
REMARK  status: ('A' for Active; 'I' for Inactive)
ROOT
HETATM    1  C1  LIG X 999      46.228 132.063  15.219  1.00  0.00     0.000 A 
HETATM    2  C2  LIG X 999      46.866 131.363  14.189  1.00  0.00     0.000 A 
HETATM    3  C3  LIG X 999      46.782 129.968  14.136  1.00  0.00     0.000 A 
HETATM    4  C4  LIG X 999      46.062 129.272  15.114  1.00  0.00     0.000 A 
HETATM    5  C5  LIG X 999      45.424 129.972  16.143  1.00  0.00     0.000 A 
HETATM    6  C6  LIG X 999      45.508 131.367  16.197  1.00  0.00     0.000 A 
ENDROOT
TORSDOF 0
ENDMDL
MODEL 8
REMARK VINA RESULT:      -5.3      1.098      2.361
REMARK  0 active torsions:
REMARK  status: ('A' for Active; 'I' for Inactive)
ROOT
HETATM    1  C1  LIG X 999      46.241 132.052  15.214  1.00  0.00     0.000 A 
HETATM    2  C2  LIG X 999      45.541 131.338  16.192  1.00  0.00     0.000 A 
HETATM    3  C3  LIG X 999      45.483 129.942  16.132  1.00  0.00     0.000 A 
HETATM    4  C4  LIG X 999      46.124 129.259  15.091  1.00  0.00     0.000 A 
HETATM    5  C5  LIG X 999      46.824 129.974  14.113  1.00  0.00     0.000 A 
HETATM    6  C6  LIG X 999      46.882 131.369  14.174  1.00  0.00     0.000 A 
ENDROOT
TORSDOF 0
ENDMDL
MODEL 9
REMARK VINA RESULT:      -4.0      4.871      6.456
REMARK  0 active torsions:
REMARK  status: ('A' for Active; 'I' for Inactive)
ROOT
HETATM    1  C1  LIG X 999      42.392 131.949  18.680  1.00  0.00     0.000 A 
HETATM    2  C2  LIG X 999      43.383 131.698  17.726  1.00  0.00     0.000 A 
HETATM    3  C3  LIG X 999      44.703 131.475  18.130  1.00  0.00     0.000 A 
HETATM    4  C4  LIG X 999      45.034 131.504  19.490  1.00  0.00     0.000 A 
HETATM    5  C5  LIG X 999      44.043 131.755  20.444  1.00  0.00     0.000 A 
HETATM    6  C6  LIG X 999      42.723 131.979  20.040  1.00  0.00     0.000 A 
ENDROOT
TORSDOF 0
ENDMDL
