MODEL 1
REMARK VINA RESULT:      -8.9      0.000      0.000
REMARK  3 active torsions:
REMARK  status: ('A' for Active; 'I' for Inactive)
REMARK    1  A    between atoms: C1_1  and  C2_6 
REMARK    2  A    between atoms: N1_2  and  N2_3 
REMARK    3  A    between atoms: C2_6  and  C3_8 
ROOT
HETATM    1  C3  LIG X 999      45.617 131.047  17.259  1.00  0.00     0.016 A 
HETATM    2  C4  LIG X 999      45.422 132.232  16.529  1.00  0.00     0.016 A 
HETATM    3  C5  LIG X 999      45.942 132.368  15.240  1.00  0.00     0.013 A 
HETATM    4  C6  LIG X 999      46.678 131.325  14.661  1.00  0.00    -0.026 A 
HETATM    5  C7  LIG X 999      47.204 131.453  13.367  1.00  0.00     0.012 A 
HETATM    6  C8  LIG X 999      47.942 130.407  12.804  1.00  0.00     0.001 A 
HETATM    7  C9  LIG X 999      48.161 129.231  13.527  1.00  0.00     0.001 A 
HETATM    8  C10 LIG X 999      47.642 129.092  14.817  1.00  0.00     0.012 A 
HETATM    9  C11 LIG X 999      46.896 130.133  15.394  1.00  0.00    -0.025 A 
HETATM   10  C12 LIG X 999      46.370 130.005  16.688  1.00  0.00     0.028 A 
ENDROOT
BRANCH   1  11
HETATM   11  C2  LIG X 999      45.066 130.932  18.632  1.00  0.00     0.201 C 
HETATM   12  O1  LIG X 999      45.595 130.120  19.438  1.00  0.00    -0.286 OA
BRANCH  11  13
HETATM   13  C1  LIG X 999      43.929 131.742  19.107  1.00  0.00     0.195 C 
HETATM   14  N1  LIG X 999      42.833 131.828  18.416  1.00  0.00    -0.164 NA
BRANCH  14  15
HETATM   15  N2  LIG X 999      41.726 132.609  18.799  1.00  0.00    -0.177 N 
HETATM   16  H2  LIG X 999      40.977 132.804  18.100  1.00  0.00     0.214 HD
HETATM   17  N3  LIG X 999      41.611 133.076  19.977  1.00  0.00    -0.031 N 
ENDBRANCH  14  15
ENDBRANCH  11  13
ENDBRANCH   1  11
TORSDOF 3
ENDMDL
MODEL 2
REMARK VINA RESULT:      -8.6      3.711      6.483
REMARK  3 active torsions:
REMARK  status: ('A' for Active; 'I' for Inactive)
REMARK    1  A    between atoms: C1_1  and  C2_6 
REMARK    2  A    between atoms: N1_2  and  N2_3 
REMARK    3  A    between atoms: C2_6  and  C3_8 
ROOT
HETATM    1  C3  LIG X 999      44.635 131.164  16.577  1.00  0.00     0.016 A 
HETATM    2  C4  LIG X 999      45.743 130.676  17.292  1.00  0.00     0.016 A 
HETATM    3  C5  LIG X 999      45.751 130.689  18.689  1.00  0.00     0.013 A 
HETATM    4  C6  LIG X 999      44.656 131.202  19.397  1.00  0.00    -0.026 A 
HETATM    5  C7  LIG X 999      44.655 131.219  20.800  1.00  0.00     0.012 A 
HETATM    6  C8  LIG X 999      43.558 131.740  21.494  1.00  0.00     0.001 A 
HETATM    7  C9  LIG X 999      42.460 132.247  20.795  1.00  0.00     0.001 A 
HETATM    8  C10 LIG X 999      42.449 132.236  19.399  1.00  0.00     0.012 A 
HETATM    9  C11 LIG X 999      43.541 131.713  18.688  1.00  0.00    -0.025 A 
HETATM   10  C12 LIG X 999      43.542 131.696  17.285  1.00  0.00     0.028 A 
ENDROOT
BRANCH   1  11
HETATM   11  C2  LIG X 999      44.656 131.152  15.094  1.00  0.00     0.201 C 
HETATM   12  O1  LIG X 999      43.703 131.685  14.464  1.00  0.00    -0.286 OA
BRANCH  11  13
HETATM   13  C1  LIG X 999      45.757 130.555  14.316  1.00  0.00     0.195 C 
HETATM   14  N1  LIG X 999      46.771 131.270  13.933  1.00  0.00    -0.164 NA
BRANCH  14  15
HETATM   15  N2  LIG X 999      47.837 130.768  13.163  1.00  0.00    -0.177 N 
HETATM   16  H2  LIG X 999      48.223 131.353  12.390  1.00  0.00     0.214 HD
HETATM   17  N3  LIG X 999      48.346 129.625  13.389  1.00  0.00    -0.031 N 
ENDBRANCH  14  15
ENDBRANCH  11  13
ENDBRANCH   1  11
TORSDOF 3
ENDMDL
MODEL 3
REMARK VINA RESULT:      -8.6      3.604      6.392
REMARK  3 active torsions:
REMARK  status: ('A' for Active; 'I' for Inactive)
REMARK    1  A    between atoms: C1_1  and  C2_6 
REMARK    2  A    between atoms: N1_2  and  N2_3 
REMARK    3  A    between atoms: C2_6  and  C3_8 
ROOT
HETATM    1  C3  LIG X 999      44.416 131.499  16.976  1.00  0.00     0.016 A 
HETATM    2  C4  LIG X 999      43.063 131.826  17.171  1.00  0.00     0.016 A 
HETATM    3  C5  LIG X 999      42.533 131.924  18.460  1.00  0.00     0.013 A 
HETATM    4  C6  LIG X 999      43.344 131.686  19.577  1.00  0.00    -0.026 A 
HETATM    5  C7  LIG X 999      42.820 131.782  20.876  1.00  0.00     0.012 A 
HETATM    6  C8  LIG X 999      43.639 131.535  21.982  1.00  0.00     0.001 A 
HETATM    7  C9  LIG X 999      44.981 131.189  21.801  1.00  0.00     0.001 A 
HETATM    8  C10 LIG X 999      45.513 131.090  20.513  1.00  0.00     0.012 A 
HETATM    9  C11 LIG X 999      44.704 131.339  19.393  1.00  0.00    -0.025 A 
HETATM   10  C12 LIG X 999      45.228 131.242  18.095  1.00  0.00     0.028 A 
ENDROOT
BRANCH   1  11
HETATM   11  C2  LIG X 999      44.952 131.388  15.597  1.00  0.00     0.201 C 
HETATM   12  O1  LIG X 999      44.248 131.791  14.632  1.00  0.00    -0.286 OA
BRANCH  11  13
HETATM   13  C1  LIG X 999      46.288 130.840  15.301  1.00  0.00     0.195 C 
HETATM   14  N1  LIG X 999      46.426 129.716  14.665  1.00  0.00    -0.164 NA
BRANCH  14  15
HETATM   15  N2  LIG X 999      47.672 129.126  14.381  1.00  0.00    -0.177 N 
HETATM   16  H2  LIG X 999      48.000 128.329  14.969  1.00  0.00     0.214 HD
HETATM   17  N3  LIG X 999      48.403 129.532  13.424  1.00  0.00    -0.031 N 
ENDBRANCH  14  15
ENDBRANCH  11  13
ENDBRANCH   1  11
TORSDOF 3
ENDMDL
MODEL 4
REMARK VINA RESULT:      -8.2      2.181      3.055
REMARK  3 active torsions:
REMARK  status: ('A' for Active; 'I' for Inactive)
REMARK    1  A    between atoms: C1_1  and  C2_6 
REMARK    2  A    between atoms: N1_2  and  N2_3 
REMARK    3  A    between atoms: C2_6  and  C3_8 
ROOT
HETATM    1  C3  LIG X 999      43.906 131.549  18.126  1.00  0.00     0.016 A 
HETATM    2  C4  LIG X 999      45.007 130.874  18.682  1.00  0.00     0.016 A 
HETATM    3  C5  LIG X 999      46.026 130.379  17.865  1.00  0.00     0.013 A 
HETATM    4  C6  LIG X 999      45.957 130.539  16.475  1.00  0.00    -0.026 A 
HETATM    5  C7  LIG X 999      46.976 130.045  15.646  1.00  0.00     0.012 A 
HETATM    6  C8  LIG X 999      46.892 130.206  14.259  1.00  0.00     0.001 A 
HETATM    7  C9  LIG X 999      45.793 130.857  13.692  1.00  0.00     0.001 A 
HETATM    8  C10 LIG X 999      44.772 131.353  14.507  1.00  0.00     0.012 A 
HETATM    9  C11 LIG X 999      44.845 131.202  15.901  1.00  0.00    -0.025 A 
HETATM   10  C12 LIG X 999      43.826 131.696  16.730  1.00  0.00     0.028 A 
ENDROOT
BRANCH   1  11
HETATM   11  C2  LIG X 999      42.831 132.054  19.014  1.00  0.00     0.201 C 
HETATM   12  O1  LIG X 999      41.709 132.339  18.515  1.00  0.00    -0.286 OA
BRANCH  11  13
HETATM   13  C1  LIG X 999      43.008 132.222  20.468  1.00  0.00     0.195 C 
HETATM   14  N1  LIG X 999      42.706 131.267  21.295  1.00  0.00    -0.164 NA
BRANCH  14  15
HETATM   15  N2  LIG X 999      42.823 131.376  22.693  1.00  0.00    -0.177 N 
HETATM   16  H2  LIG X 999      41.965 131.543  23.262  1.00  0.00     0.214 HD
HETATM   17  N3  LIG X 999      43.945 131.270  23.282  1.00  0.00    -0.031 N 
ENDBRANCH  14  15
ENDBRANCH  11  13
ENDBRANCH   1  11
TORSDOF 3
ENDMDL
MODEL 5
REMARK VINA RESULT:      -8.1      3.470      6.884
REMARK  3 active torsions:
REMARK  status: ('A' for Active; 'I' for Inactive)
REMARK    1  A    between atoms: C1_1  and  C2_6 
REMARK    2  A    between atoms: N1_2  and  N2_3 
REMARK    3  A    between atoms: C2_6  and  C3_8 
ROOT
HETATM    1  C3  LIG X 999      44.604 131.379  18.360  1.00  0.00     0.016 A 
HETATM    2  C4  LIG X 999      45.680 130.708  18.967  1.00  0.00     0.016 A 
HETATM    3  C5  LIG X 999      45.696 130.490  20.346  1.00  0.00     0.013 A 
HETATM    4  C6  LIG X 999      44.643 130.950  21.147  1.00  0.00    -0.026 A 
HETATM    5  C7  LIG X 999      44.651 130.736  22.534  1.00  0.00     0.012 A 
HETATM    6  C8  LIG X 999      43.597 131.206  23.322  1.00  0.00     0.001 A 
HETATM    7  C9  LIG X 999      42.531 131.893  22.735  1.00  0.00     0.001 A 
HETATM    8  C10 LIG X 999      42.511 132.113  21.355  1.00  0.00     0.012 A 
HETATM    9  C11 LIG X 999      43.562 131.643  20.550  1.00  0.00    -0.025 A 
HETATM   10  C12 LIG X 999      43.553 131.857  19.164  1.00  0.00     0.028 A 
ENDROOT
BRANCH   1  11
HETATM   11  C2  LIG X 999      44.615 131.610  16.894  1.00  0.00     0.201 C 
HETATM   12  O1  LIG X 999      43.518 131.680  16.277  1.00  0.00    -0.286 OA
BRANCH  11  13
HETATM   13  C1  LIG X 999      45.859 131.780  16.123  1.00  0.00     0.195 C 
HETATM   14  N1  LIG X 999      45.883 131.588  14.838  1.00  0.00    -0.164 NA
BRANCH  14  15
HETATM   15  N2  LIG X 999      47.045 131.704  14.052  1.00  0.00    -0.177 N 
HETATM   16  H2  LIG X 999      47.766 132.411  14.315  1.00  0.00     0.214 HD
HETATM   17  N3  LIG X 999      47.242 130.966  13.036  1.00  0.00    -0.031 N 
ENDBRANCH  14  15
ENDBRANCH  11  13
ENDBRANCH   1  11
TORSDOF 3
ENDMDL
MODEL 6
REMARK VINA RESULT:      -8.1      1.693      2.392
REMARK  3 active torsions:
REMARK  status: ('A' for Active; 'I' for Inactive)
REMARK    1  A    between atoms: C1_1  and  C2_6 
REMARK    2  A    between atoms: N1_2  and  N2_3 
REMARK    3  A    between atoms: C2_6  and  C3_8 
ROOT
HETATM    1  C3  LIG X 999      44.724 131.170  17.083  1.00  0.00     0.016 A 
HETATM    2  C4  LIG X 999      45.573 130.178  17.603  1.00  0.00     0.016 A 
HETATM    3  C5  LIG X 999      46.599 129.638  16.825  1.00  0.00     0.013 A 
HETATM    4  C6  LIG X 999      46.787 130.070  15.505  1.00  0.00    -0.026 A 
HETATM    5  C7  LIG X 999      47.815 129.533  14.715  1.00  0.00     0.012 A 
HETATM    6  C8  LIG X 999      47.987 129.968  13.397  1.00  0.00     0.001 A 
HETATM    7  C9  LIG X 999      47.136 130.939  12.861  1.00  0.00     0.001 A 
HETATM    8  C10 LIG X 999      46.109 131.481  13.637  1.00  0.00     0.012 A 
HETATM    9  C11 LIG X 999      45.927 131.056  14.963  1.00  0.00    -0.025 A 
HETATM   10  C12 LIG X 999      44.899 131.593  15.753  1.00  0.00     0.028 A 
ENDROOT
BRANCH   1  11
HETATM   11  C2  LIG X 999      43.634 131.719  17.926  1.00  0.00     0.201 C 
HETATM   12  O1  LIG X 999      42.578 132.129  17.371  1.00  0.00    -0.286 OA
BRANCH  11  13
HETATM   13  C1  LIG X 999      43.720 131.791  19.395  1.00  0.00     0.195 C 
HETATM   14  N1  LIG X 999      42.659 131.677  20.136  1.00  0.00    -0.164 NA
BRANCH  14  15
HETATM   15  N2  LIG X 999      42.672 131.768  21.540  1.00  0.00    -0.177 N 
HETATM   16  H2  LIG X 999      41.810 132.087  22.035  1.00  0.00     0.214 HD
HETATM   17  N3  LIG X 999      43.701 131.465  22.222  1.00  0.00    -0.031 N 
ENDBRANCH  14  15
ENDBRANCH  11  13
ENDBRANCH   1  11
TORSDOF 3
ENDMDL
MODEL 7
REMARK VINA RESULT:      -8.1      1.857      2.218
REMARK  3 active torsions:
REMARK  status: ('A' for Active; 'I' for Inactive)
REMARK    1  A    between atoms: C1_1  and  C2_6 
REMARK    2  A    between atoms: N1_2  and  N2_3 
REMARK    3  A    between atoms: C2_6  and  C3_8 
ROOT
HETATM    1  C3  LIG X 999      45.017 130.994  18.416  1.00  0.00     0.016 A 
HETATM    2  C4  LIG X 999      44.003 131.677  17.721  1.00  0.00     0.016 A 
HETATM    3  C5  LIG X 999      44.029 131.764  16.328  1.00  0.00     0.013 A 
HETATM    4  C6  LIG X 999      45.077 131.180  15.603  1.00  0.00    -0.026 A 
HETATM    5  C7  LIG X 999      45.111 131.263  14.202  1.00  0.00     0.012 A 
HETATM    6  C8  LIG X 999      46.166 130.682  13.491  1.00  0.00     0.001 A 
HETATM    7  C9  LIG X 999      47.191 130.019  14.171  1.00  0.00     0.001 A 
HETATM    8  C10 LIG X 999      47.168 129.930  15.565  1.00  0.00     0.012 A 
HETATM    9  C11 LIG X 999      46.113 130.505  16.292  1.00  0.00    -0.025 A 
HETATM   10  C12 LIG X 999      46.079 130.423  17.692  1.00  0.00     0.028 A 
ENDROOT
BRANCH   1  11
HETATM   11  C2  LIG X 999      44.974 130.927  19.897  1.00  0.00     0.201 C 
HETATM   12  O1  LIG X 999      45.834 130.233  20.504  1.00  0.00    -0.286 OA
BRANCH  11  13
HETATM   13  C1  LIG X 999      43.976 131.655  20.701  1.00  0.00     0.195 C 
HETATM   14  N1  LIG X 999      43.411 131.100  21.731  1.00  0.00    -0.164 NA
BRANCH  14  15
HETATM   15  N2  LIG X 999      42.429 131.730  22.518  1.00  0.00    -0.177 N 
HETATM   16  H2  LIG X 999      41.647 132.234  22.046  1.00  0.00     0.214 HD
HETATM   17  N3  LIG X 999      42.465 131.695  23.789  1.00  0.00    -0.031 N 
ENDBRANCH  14  15
ENDBRANCH  11  13
ENDBRANCH   1  11
TORSDOF 3
ENDMDL
MODEL 8
REMARK VINA RESULT:      -7.8      2.023      2.175
REMARK  3 active torsions:
REMARK  status: ('A' for Active; 'I' for Inactive)
REMARK    1  A    between atoms: C1_1  and  C2_6 
REMARK    2  A    between atoms: N1_2  and  N2_3 
REMARK    3  A    between atoms: C2_6  and  C3_8 
ROOT
HETATM    1  C3  LIG X 999      45.338 131.281  17.061  1.00  0.00     0.016 A 
HETATM    2  C4  LIG X 999      45.388 132.458  16.293  1.00  0.00     0.016 A 
HETATM    3  C5  LIG X 999      46.085 132.489  15.083  1.00  0.00     0.013 A 
HETATM    4  C6  LIG X 999      46.757 131.348  14.624  1.00  0.00    -0.026 A 
HETATM    5  C7  LIG X 999      47.460 131.370  13.410  1.00  0.00     0.012 A 
HETATM    6  C8  LIG X 999      48.131 130.226  12.968  1.00  0.00     0.001 A 
HETATM    7  C9  LIG X 999      48.107 129.057  13.732  1.00  0.00     0.001 A 
HETATM    8  C10 LIG X 999      47.411 129.022  14.942  1.00  0.00     0.012 A 
HETATM    9  C11 LIG X 999      46.729 130.162  15.398  1.00  0.00    -0.025 A 
HETATM   10  C12 LIG X 999      46.026 130.140  16.612  1.00  0.00     0.028 A 
ENDROOT
BRANCH   1  11
HETATM   11  C2  LIG X 999      44.602 131.277  18.349  1.00  0.00     0.201 C 
HETATM   12  O1  LIG X 999      43.407 131.678  18.372  1.00  0.00    -0.286 OA
BRANCH  11  13
HETATM   13  C1  LIG X 999      45.202 130.804  19.610  1.00  0.00     0.195 C 
HETATM   14  N1  LIG X 999      44.584 130.952  20.743  1.00  0.00    -0.164 NA
BRANCH  14  15
HETATM   15  N2  LIG X 999      45.117 130.551  21.982  1.00  0.00    -0.177 N 
HETATM   16  H2  LIG X 999      45.946 131.057  22.365  1.00  0.00     0.214 HD
HETATM   17  N3  LIG X 999      44.610 129.596  22.651  1.00  0.00    -0.031 N 
ENDBRANCH  14  15
ENDBRANCH  11  13
ENDBRANCH   1  11
TORSDOF 3
ENDMDL
MODEL 9
REMARK VINA RESULT:      -7.3      2.864      3.302
REMARK  3 active torsions:
REMARK  status: ('A' for Active; 'I' for Inactive)
REMARK    1  A    between atoms: C1_1  and  C2_6 
REMARK    2  A    between atoms: N1_2  and  N2_3 
REMARK    3  A    between atoms: C2_6  and  C3_8 
ROOT
HETATM    1  C3  LIG X 999      44.630 131.316  18.715  1.00  0.00     0.016 A 
HETATM    2  C4  LIG X 999      43.546 131.816  17.972  1.00  0.00     0.016 A 
HETATM    3  C5  LIG X 999      43.552 131.760  16.576  1.00  0.00     0.013 A 
HETATM    4  C6  LIG X 999      44.649 131.214  15.896  1.00  0.00    -0.026 A 
HETATM    5  C7  LIG X 999      44.664 131.154  14.494  1.00  0.00     0.012 A 
HETATM    6  C8  LIG X 999      45.768 130.613  13.828  1.00  0.00     0.001 A 
HETATM    7  C9  LIG X 999      46.861 130.131  14.554  1.00  0.00     0.001 A 
HETATM    8  C10 LIG X 999      46.858 130.186  15.950  1.00  0.00     0.012 A 
HETATM    9  C11 LIG X 999      45.755 130.724  16.632  1.00  0.00    -0.025 A 
HETATM   10  C12 LIG X 999      45.739 130.784  18.034  1.00  0.00     0.028 A 
ENDROOT
BRANCH   1  11
HETATM   11  C2  LIG X 999      44.605 131.399  20.196  1.00  0.00     0.201 C 
HETATM   12  O1  LIG X 999      43.511 131.232  20.800  1.00  0.00    -0.286 OA
BRANCH  11  13
HETATM   13  C1  LIG X 999      45.813 131.651  21.002  1.00  0.00     0.195 C 
HETATM   14  N1  LIG X 999      46.334 132.838  21.075  1.00  0.00    -0.164 NA
BRANCH  14  15
HETATM   15  N2  LIG X 999      47.503 133.136  21.801  1.00  0.00    -0.177 N 
HETATM   16  H2  LIG X 999      48.042 132.356  22.234  1.00  0.00     0.214 HD
HETATM   17  N3  LIG X 999      47.922 134.329  21.935  1.00  0.00    -0.031 N 
ENDBRANCH  14  15
ENDBRANCH  11  13
ENDBRANCH   1  11
TORSDOF 3
ENDMDL
