REMARK VINA RESULT:      -7.3      0.000      0.000
REMARK  4 active torsions:
REMARK  status: ('A' for Active; 'I' for Inactive)
REMARK    1  A    between atoms: C1_2  and  C2_4 
REMARK    2  A    between atoms: C8_10  and  C9_11 
REMARK       I    between atoms: C9_11  and  N1_13 
REMARK    3  A    between atoms: N1_13  and  S1_14 
REMARK    4  A    between atoms: S1_14  and  C10_17 
ROOT
HETATM    1  C9  LIG X 999      44.241 129.281  23.739  1.00  0.00     0.259 C 
HETATM    2  O3  LIG X 999      43.921 130.121  24.624  1.00  0.00    -0.270 OA
HETATM    3  N1  LIG X 999      44.249 129.660  22.362  1.00  0.00    -0.122 NA
ENDROOT
BRANCH   3   4
HETATM    4  S1  LIG X 999      44.094 131.309  21.862  1.00  0.00     0.286 S 
HETATM    5  O4  LIG X 999      45.230 132.120  22.421  1.00  0.00    -0.198 OA
HETATM    6  O5  LIG X 999      42.802 131.868  22.387  1.00  0.00    -0.198 OA
BRANCH   4   7
HETATM    7  C10 LIG X 999      44.091 131.372  20.103  1.00  0.00     0.082 A 
HETATM    8  C11 LIG X 999      42.968 131.867  19.425  1.00  0.00     0.026 A 
HETATM    9  C12 LIG X 999      42.930 131.867  18.029  1.00  0.00     0.014 A 
HETATM   10  C13 LIG X 999      44.013 131.365  17.293  1.00  0.00    -0.026 A 
HETATM   11  C14 LIG X 999      43.982 131.353  15.889  1.00  0.00     0.012 A 
HETATM   12  C18 LIG X 999      45.148 130.860  17.973  1.00  0.00    -0.025 A 
HETATM   13  C15 LIG X 999      45.066 130.844  15.168  1.00  0.00     0.001 A 
HETATM   14  C16 LIG X 999      46.185 130.345  15.839  1.00  0.00     0.001 A 
HETATM   15  C17 LIG X 999      46.229 130.351  17.237  1.00  0.00     0.012 A 
HETATM   16  C19 LIG X 999      45.178 130.868  19.375  1.00  0.00     0.037 A 
ENDBRANCH   4   7
ENDBRANCH   3   4
BRANCH   1  17
HETATM   17  C8  LIG X 999      44.686 127.886  24.118  1.00  0.00     0.099 C 
HETATM   18  C2  LIG X 999      43.535 126.837  24.212  1.00  0.00     0.104 C 
HETATM   19  C3  LIG X 999      43.984 125.757  23.195  1.00  0.00     0.001 C 
HETATM   20  C4  LIG X 999      45.179 124.991  23.796  1.00  0.00     0.006 C 
HETATM   21  C7  LIG X 999      44.671 126.571  22.121  1.00  0.00     0.011 C 
HETATM   22  C5  LIG X 999      46.319 126.022  23.717  1.00  0.00     0.006 C 
HETATM   23  C6  LIG X 999      45.635 127.243  23.073  1.00  0.00    -0.000 C 
BRANCH  18  24
HETATM   24  C1  LIG X 999      42.146 127.367  23.921  1.00  0.00     0.178 C 
HETATM   25  O1  LIG X 999      41.431 126.794  23.059  1.00  0.00    -0.648 OA
HETATM   26  O2  LIG X 999      41.627 128.448  24.625  1.00  0.00    -0.648 OA
ENDBRANCH  18  24
ENDBRANCH   1  17
TORSDOF 4
