REMARK VINA RESULT:      -6.8      1.791      8.027
REMARK  8 active torsions:
REMARK  status: ('A' for Active; 'I' for Inactive)
REMARK    1  A    between atoms: O1_2  and  C1_3 
REMARK    2  A    between atoms: C1_3  and  N1_4 
REMARK    3  A    between atoms: N1_4  and  C2_5 
REMARK    4  A    between atoms: C2_5  and  C3_6 
REMARK    5  A    between atoms: C3_6  and  C4_7 
REMARK    6  A    between atoms: C4_7  and  O2_8 
REMARK    7  A    between atoms: O2_8  and  C5_9 
REMARK    8  A    between atoms: C15_19  and  C16_20 
ROOT
HETATM    1  C4  LIG X 999      43.835 131.039  21.722  1.00  0.00     0.177 C 
ENDROOT
BRANCH   1   2
HETATM    2  C3  LIG X 999      45.171 131.349  21.025  1.00  0.00     0.048 C 
BRANCH   2   3
HETATM    3  C2  LIG X 999      45.005 132.217  19.772  1.00  0.00     0.154 C 
BRANCH   3   4
HETATM    4  N1  LIG X 999      44.920 131.369  18.590  1.00  0.00    -0.267 NA
BRANCH   4   5
HETATM    5  C1  LIG X 999      43.995 131.603  17.525  1.00  0.00     0.153 C 
HETATM    6  C15 LIG X 999      44.340 131.339  16.257  1.00  0.00     0.034 C 
BRANCH   5   7
HETATM    7  O1  LIG X 999      42.729 132.114  17.816  1.00  0.00    -0.345 OA
HETATM    8  H1  LIG X 999      41.932 131.950  17.211  1.00  0.00     0.219 HD
ENDBRANCH   5   7
BRANCH   6   9
HETATM    9  C16 LIG X 999      45.675 130.739  15.879  1.00  0.00     0.004 C 
HETATM   10  C17 LIG X 999      46.379 131.610  14.835  1.00  0.00     0.013 C 
HETATM   11  C18 LIG X 999      45.487 129.312  15.354  1.00  0.00     0.013 C 
ENDBRANCH   6   9
ENDBRANCH   4   5
ENDBRANCH   3   4
ENDBRANCH   2   3
ENDBRANCH   1   2
BRANCH   1  12
HETATM   12  O2  LIG X 999      44.016 130.335  22.953  1.00  0.00    -0.351 OA
BRANCH  12  13
HETATM   13  C5  LIG X 999      43.861 128.953  23.144  1.00  0.00     0.069 A 
HETATM   14  C6  LIG X 999      42.704 128.387  23.713  1.00  0.00     0.037 A 
HETATM   15  C7  LIG X 999      42.583 127.000  23.839  1.00  0.00     0.015 A 
HETATM   16  C8  LIG X 999      43.618 126.159  23.408  1.00  0.00    -0.026 A 
HETATM   17  C9  LIG X 999      43.496 124.765  23.507  1.00  0.00     0.012 A 
HETATM   18  C13 LIG X 999      44.795 126.722  22.860  1.00  0.00    -0.023 A 
HETATM   19  C10 LIG X 999      44.532 123.937  23.064  1.00  0.00     0.001 A 
HETATM   20  C11 LIG X 999      45.694 124.493  22.524  1.00  0.00     0.001 A 
HETATM   21  C12 LIG X 999      45.828 125.881  22.421  1.00  0.00     0.012 A 
HETATM   22  C14 LIG X 999      44.906 128.115  22.738  1.00  0.00     0.049 A 
ENDBRANCH  12  13
ENDBRANCH   1  12
TORSDOF 8
