REMARK VINA RESULT:      -4.8      4.380      7.373
REMARK  3 active torsions:
REMARK  status: ('A' for Active; 'I' for Inactive)
REMARK    1  A    between atoms: N2_3  and  N3_4 
REMARK    2  A    between atoms: C1_5  and  C2_6 
REMARK    3  A    between atoms: C3_8  and  C4_9 
REMARK       I    between atoms: N4_19  and  C14_20 
ROOT
HETATM    1  C2  LIG X 999      43.256 129.342  23.893  1.00  0.00     0.259 C 
HETATM    2  O1  LIG X 999      43.433 129.290  22.489  1.00  0.00    -0.335 OA
HETATM    3  C3  LIG X 999      44.269 130.372  22.158  1.00  0.00     0.280 C 
HETATM    4  N4  LIG X 999      44.280 131.238  23.316  1.00  0.00    -0.247 N 
HETATM    5  C14 LIG X 999      44.988 132.485  23.407  1.00  0.00     0.232 C 
HETATM    6  O2  LIG X 999      45.747 132.852  22.469  1.00  0.00    -0.272 OA
HETATM    7  C15 LIG X 999      44.861 133.346  24.624  1.00  0.00     0.119 C 
HETATM    8  N5  LIG X 999      43.591 130.679  24.388  1.00  0.00    -0.199 NA
HETATM    9  H15 LIG X 999      44.267 130.575  25.180  1.00  0.00     0.150 HD
ENDROOT
BRANCH   3  10
HETATM   10  C4  LIG X 999      43.714 131.101  20.940  1.00  0.00     0.003 A 
HETATM   11  C5  LIG X 999      42.552 131.875  21.128  1.00  0.00     0.012 A 
HETATM   12  C6  LIG X 999      41.958 132.558  20.071  1.00  0.00     0.002 A 
HETATM   13  C7  LIG X 999      42.511 132.496  18.798  1.00  0.00     0.012 A 
HETATM   14  C8  LIG X 999      43.681 131.761  18.571  1.00  0.00    -0.025 A 
HETATM   15  C9  LIG X 999      44.234 131.729  17.280  1.00  0.00     0.012 A 
HETATM   16  C13 LIG X 999      44.310 131.061  19.641  1.00  0.00    -0.015 A 
HETATM   17  C10 LIG X 999      45.408 131.022  17.034  1.00  0.00     0.001 A 
HETATM   18  C11 LIG X 999      46.046 130.348  18.072  1.00  0.00     0.001 A 
HETATM   19  C12 LIG X 999      45.511 130.365  19.362  1.00  0.00     0.013 A 
ENDBRANCH   3  10
BRANCH   1  20
HETATM   20  C1  LIG X 999      41.842 129.004  24.246  1.00  0.00     0.164 C 
HETATM   21  N3  LIG X 999      41.253 127.987  23.703  1.00  0.00    -0.143 NA
BRANCH  21  22
HETATM   22  N2  LIG X 999      39.931 127.668  24.031  1.00  0.00    -0.052 NA
HETATM   23  N1  LIG X 999      39.109 127.356  23.115  1.00  0.00    -0.184 NA
HETATM   24  H1  LIG X 999      38.123 127.119  23.359  1.00  0.00     0.214 HD
ENDBRANCH  21  22
ENDBRANCH   1  20
TORSDOF 3
