REMARK VINA RESULT:      -7.2      2.051      3.231
REMARK  5 active torsions:
REMARK  status: ('A' for Active; 'I' for Inactive)
REMARK    1  A    between atoms: C2_2  and  C3_3 
REMARK    2  A    between atoms: C2_2  and  N1_13 
REMARK    3  A    between atoms: C14_15  and  C15_16 
REMARK    4  A    between atoms: C15_16  and  C16_17 
REMARK       I    between atoms: C16_17  and  N2_19 
REMARK    5  A    between atoms: N2_19  and  C17_20 
ROOT
HETATM    1  N1  LIG X 999      44.492 130.569  21.403  1.00  0.00    -0.274 N 
HETATM    2  C13 LIG X 999      44.026 130.034  22.547  1.00  0.00     0.137 A 
HETATM    3  C14 LIG X 999      44.730 128.866  22.736  1.00  0.00     0.078 A 
HETATM    4  N4  LIG X 999      45.581 128.707  21.703  1.00  0.00    -0.163 NA
HETATM    5  N5  LIG X 999      45.417 129.757  20.912  1.00  0.00     0.005 NA
ENDROOT
BRANCH   1   6
HETATM    6  C2  LIG X 999      44.031 131.784  20.727  1.00  0.00     0.134 C 
HETATM    7  C1  LIG X 999      42.628 132.186  21.206  1.00  0.00     0.039 C 
BRANCH   6   8
HETATM    8  C3  LIG X 999      44.119 131.616  19.220  1.00  0.00    -0.033 A 
HETATM    9  C4  LIG X 999      43.036 131.937  18.379  1.00  0.00     0.010 A 
HETATM   10  C5  LIG X 999      43.121 131.737  16.998  1.00  0.00     0.013 A 
HETATM   11  C6  LIG X 999      44.285 131.200  16.432  1.00  0.00    -0.026 A 
HETATM   12  C7  LIG X 999      44.377 130.995  15.045  1.00  0.00     0.012 A 
HETATM   13  C11 LIG X 999      45.373 130.853  17.268  1.00  0.00    -0.025 A 
HETATM   14  C8  LIG X 999      45.541 130.450  14.494  1.00  0.00     0.001 A 
HETATM   15  C9  LIG X 999      46.616 130.104  15.319  1.00  0.00     0.001 A 
HETATM   16  C10 LIG X 999      46.535 130.305  16.701  1.00  0.00     0.012 A 
HETATM   17  C12 LIG X 999      45.281 131.058  18.653  1.00  0.00     0.021 A 
ENDBRANCH   6   8
ENDBRANCH   1   6
BRANCH   3  18
HETATM   18  C15 LIG X 999      44.515 127.860  23.821  1.00  0.00     0.167 C 
BRANCH  18  19
HETATM   19  C16 LIG X 999      43.667 126.740  23.311  1.00  0.00     0.251 C 
HETATM   20  O1  LIG X 999      44.200 125.800  22.662  1.00  0.00    -0.271 OA
HETATM   21  N2  LIG X 999      42.257 126.753  23.569  1.00  0.00    -0.189 NA
BRANCH  21  22
HETATM   22  C17 LIG X 999      41.354 125.654  23.397  1.00  0.00     0.173 A 
HETATM   23  N3  LIG X 999      40.187 125.493  24.063  1.00  0.00    -0.344 N 
HETATM   24  C18 LIG X 999      39.510 124.389  23.649  1.00  0.00     0.097 A 
HETATM   25  H15 LIG X 999      39.811 126.141  24.789  1.00  0.00     0.167 HD
HETATM   26  C19 LIG X 999      40.129 123.672  22.629  1.00  0.00     0.070 A 
HETATM   27  S1  LIG X 999      41.568 124.456  22.240  1.00  0.00    -0.062 SA
ENDBRANCH  21  22
ENDBRANCH  18  19
ENDBRANCH   3  18
TORSDOF 5
