REMARK VINA RESULT:      -7.1      3.678      5.316
REMARK  7 active torsions:
REMARK  status: ('A' for Active; 'I' for Inactive)
REMARK    1  A    between atoms: N1_2  and  C2_3 
REMARK    2  A    between atoms: C2_3  and  C4_5 
REMARK    3  A    between atoms: C4_5  and  C5_6 
REMARK    4  A    between atoms: C5_6  and  C6_7 
REMARK    5  A    between atoms: C6_7  and  C7_8 
REMARK    6  A    between atoms: C7_8  and  N2_9 
REMARK    7  A    between atoms: N2_9  and  C8_10 
ROOT
HETATM    1  C8  LIG X 999      44.172 130.000  22.684  1.00  0.00     0.101 C 
HETATM    2  C9  LIG X 999      45.001 128.884  22.522  1.00  0.00     0.056 C 
HETATM    3  C10 LIG X 999      44.560 127.608  22.900  1.00  0.00    -0.045 C 
HETATM    4  C11 LIG X 999      45.618 126.534  22.970  1.00  0.00     0.049 C 
HETATM    5  C12 LIG X 999      43.207 127.432  23.326  1.00  0.00     0.008 C 
HETATM    6  C13 LIG X 999      42.466 128.615  23.610  1.00  0.00     0.045 C 
HETATM    7  C14 LIG X 999      41.230 128.536  24.263  1.00  0.00     0.031 C 
HETATM    8  C15 LIG X 999      40.695 127.307  24.625  1.00  0.00     0.014 C 
HETATM    9  C16 LIG X 999      41.330 126.123  24.242  1.00  0.00    -0.025 C 
HETATM   10  C17 LIG X 999      40.711 124.893  24.522  1.00  0.00     0.012 C 
HETATM   11  C18 LIG X 999      41.253 123.707  24.035  1.00  0.00     0.001 C 
HETATM   12  C19 LIG X 999      42.390 123.741  23.233  1.00  0.00     0.001 C 
HETATM   13  C20 LIG X 999      43.023 124.956  22.959  1.00  0.00     0.013 C 
HETATM   14  C21 LIG X 999      42.561 126.167  23.528  1.00  0.00    -0.013 C 
HETATM   15  N3  LIG X 999      42.956 129.841  23.268  1.00  0.00    -0.342 N 
HETATM   16  H28 LIG X 999      42.377 130.693  23.449  1.00  0.00     0.167 HD
ENDROOT
BRANCH   1  17
HETATM   17  N2  LIG X 999      44.606 131.323  22.312  1.00  0.00    -0.376 N 
HETATM   18  H17 LIG X 999      44.301 132.126  22.907  1.00  0.00     0.161 HD
BRANCH  17  19
HETATM   19  C7  LIG X 999      45.394 131.642  21.119  1.00  0.00     0.121 C 
BRANCH  19  20
HETATM   20  C6  LIG X 999      44.602 131.375  19.831  1.00  0.00     0.020 C 
BRANCH  20  21
HETATM   21  C5  LIG X 999      45.513 130.936  18.676  1.00  0.00     0.004 C 
BRANCH  21  22
HETATM   22  C4  LIG X 999      45.050 131.551  17.347  1.00  0.00     0.035 C 
BRANCH  22  23
HETATM   23  C2  LIG X 999      45.734 130.886  16.139  1.00  0.00     0.216 C 
HETATM   24  C3  LIG X 999      44.789 129.845  15.511  1.00  0.00     0.042 C 
BRANCH  23  25
HETATM   25  N1  LIG X 999      46.122 131.923  15.163  1.00  0.00     0.083 N 
HETATM   26  C1  LIG X 999      46.926 131.378  14.066  1.00  0.00     0.307 C 
HETATM   27  H4  LIG X 999      45.270 132.381  14.761  1.00  0.00     0.315 HD
ENDBRANCH  23  25
ENDBRANCH  22  23
ENDBRANCH  21  22
ENDBRANCH  20  21
ENDBRANCH  19  20
ENDBRANCH  17  19
ENDBRANCH   1  17
TORSDOF 7
