REMARK VINA RESULT:      -5.0      6.426      8.292
REMARK  1 active torsions:
REMARK  status: ('A' for Active; 'I' for Inactive)
REMARK    1  A    between atoms: C10_11  and  N2_12 
ROOT
HETATM    1  N2  LIG X 999      46.823 125.854  22.746  1.00  0.00    -0.052 NA
HETATM    2  N3  LIG X 999      47.414 125.051  22.022  1.00  0.00    -0.160 NA
HETATM    3  N4  LIG X 999      48.005 124.251  21.300  1.00  0.00     0.068 N 
ENDROOT
BRANCH   1   4
HETATM    4  C10 LIG X 999      45.397 125.860  22.839  1.00  0.00     0.186 C 
HETATM    5  N1  LIG X 999      44.739 126.957  23.288  1.00  0.00    -0.226 NA
HETATM    6  C9  LIG X 999      43.387 126.995  23.409  1.00  0.00     0.071 C 
HETATM    7  C8  LIG X 999      42.791 128.187  23.816  1.00  0.00     0.033 C 
HETATM    8  C14 LIG X 999      42.598 125.849  23.104  1.00  0.00     0.010 C 
HETATM    9  C7  LIG X 999      41.412 128.279  23.947  1.00  0.00     0.014 C 
HETATM   10  C5  LIG X 999      40.611 127.146  23.779  1.00  0.00    -0.025 C 
HETATM   11  C4  LIG X 999      41.198 125.897  23.422  1.00  0.00    -0.013 C 
HETATM   12  C6  LIG X 999      39.232 127.242  24.021  1.00  0.00     0.012 C 
HETATM   13  C3  LIG X 999      40.375 124.748  23.504  1.00  0.00     0.013 C 
HETATM   14  C2  LIG X 999      39.007 124.856  23.761  1.00  0.00     0.001 C 
HETATM   15  C1  LIG X 999      38.431 126.103  23.991  1.00  0.00     0.001 C 
HETATM   16  C12 LIG X 999      43.270 124.756  22.466  1.00  0.00    -0.045 C 
HETATM   17  C11 LIG X 999      44.674 124.754  22.407  1.00  0.00     0.063 C 
HETATM   18  C13 LIG X 999      42.573 123.653  21.707  1.00  0.00     0.049 C 
ENDBRANCH   1   4
TORSDOF 1
