REMARK VINA RESULT:      -5.4      6.481      8.563
REMARK  2 active torsions:
REMARK  status: ('A' for Active; 'I' for Inactive)
REMARK    1  A    between atoms: C2_5  and  C3_6 
REMARK    2  A    between atoms: N3_18  and  C13_19 
ROOT
HETATM    1  H1  LIG X 999      45.672 127.472  21.792  1.00  0.00     0.190 HD
HETATM    2  N1  LIG X 999      46.039 126.547  22.112  1.00  0.00    -0.260 NA
HETATM    3  C1  LIG X 999      45.231 125.583  22.415  1.00  0.00     0.268 A 
HETATM    4  O1  LIG X 999      43.922 125.678  22.363  1.00  0.00    -0.257 OA
HETATM    5  C2  LIG X 999      43.478 124.502  22.762  1.00  0.00     0.177 A 
HETATM    6  N2  LIG X 999      44.507 123.683  23.070  1.00  0.00    -0.269 N 
HETATM    7  H9  LIG X 999      44.455 122.689  23.384  1.00  0.00     0.190 HD
HETATM    8  N3  LIG X 999      45.619 124.365  22.844  1.00  0.00    -0.212 N 
ENDROOT
BRANCH   5   9
HETATM    9  C3  LIG X 999      42.048 124.137  22.894  1.00  0.00     0.028 A 
HETATM   10  C4  LIG X 999      41.683 122.805  22.630  1.00  0.00     0.017 A 
HETATM   11  C5  LIG X 999      40.369 122.375  22.803  1.00  0.00     0.002 A 
HETATM   12  C6  LIG X 999      39.390 123.264  23.239  1.00  0.00     0.012 A 
HETATM   13  C7  LIG X 999      39.714 124.604  23.491  1.00  0.00    -0.025 A 
HETATM   14  C8  LIG X 999      38.715 125.497  23.910  1.00  0.00     0.012 A 
HETATM   15  C12 LIG X 999      41.050 125.061  23.307  1.00  0.00    -0.011 A 
HETATM   16  C9  LIG X 999      39.018 126.840  24.130  1.00  0.00     0.001 A 
HETATM   17  C10 LIG X 999      40.315 127.307  23.924  1.00  0.00     0.001 A 
HETATM   18  C11 LIG X 999      41.322 126.433  23.509  1.00  0.00     0.013 A 
ENDBRANCH   5   9
BRANCH   8  19
HETATM   19  C13 LIG X 999      46.953 123.856  23.024  1.00  0.00     0.105 A 
HETATM   20  C14 LIG X 999      47.507 123.748  24.310  1.00  0.00     0.054 A 
HETATM   21  C15 LIG X 999      48.809 123.265  24.462  1.00  0.00     0.122 A 
HETATM   22  N4  LIG X 999      49.534 122.901  23.372  1.00  0.00    -0.230 NA
HETATM   23  C16 LIG X 999      49.027 122.996  22.115  1.00  0.00     0.251 A 
HETATM   24  F1  LIG X 999      49.783 122.617  21.055  1.00  0.00    -0.181 F 
HETATM   25  C17 LIG X 999      47.729 123.476  21.915  1.00  0.00     0.202 A 
HETATM   26  F2  LIG X 999      47.222 123.534  20.657  1.00  0.00    -0.199 F 
ENDBRANCH   8  19
TORSDOF 2
