REMARK VINA RESULT:      -7.2      1.691      6.216
REMARK  1 active torsions:
REMARK  status: ('A' for Active; 'I' for Inactive)
REMARK    1  A    between atoms: C11_13  and  N2_14 
ROOT
HETATM    1  N2  LIG X 999      41.900 132.844  20.485  1.00  0.00    -0.053 NA
HETATM    2  N3  LIG X 999      42.040 132.498  21.659  1.00  0.00    -0.160 NA
HETATM    3  N4  LIG X 999      42.179 132.152  22.831  1.00  0.00     0.068 N 
ENDROOT
BRANCH   1   4
HETATM    4  C11 LIG X 999      42.729 132.308  19.453  1.00  0.00     0.175 A 
HETATM    5  C10 LIG X 999      43.951 131.683  19.656  1.00  0.00     0.026 A 
HETATM    6  C5  LIG X 999      44.379 131.338  18.420  1.00  0.00     0.017 A 
HETATM    7  C9  LIG X 999      44.721 131.384  20.782  1.00  0.00     0.016 A 
HETATM    8  C4  LIG X 999      43.466 131.733  17.502  1.00  0.00     0.046 A 
HETATM    9  C6  LIG X 999      45.562 130.688  18.152  1.00  0.00     0.005 A 
HETATM   10  C3  LIG X 999      43.688 131.479  16.067  1.00  0.00     0.033 A 
HETATM   11  N5  LIG X 999      42.428 132.339  18.121  1.00  0.00    -0.337 N 
HETATM   12  C2  LIG X 999      44.823 130.844  15.695  1.00  0.00     0.034 A 
HETATM   13  C1  LIG X 999      45.838 130.407  16.719  1.00  0.00     0.059 A 
HETATM   14  N1  LIG X 999      46.925 129.799  16.363  1.00  0.00    -0.300 NA
HETATM   15  H1  LIG X 999      47.136 129.592  15.361  1.00  0.00     0.187 HD
HETATM   16  H7  LIG X 999      41.578 132.745  17.670  1.00  0.00     0.167 HD
HETATM   17  C7  LIG X 999      46.377 130.364  19.257  1.00  0.00     0.015 A 
HETATM   18  C8  LIG X 999      45.953 130.713  20.571  1.00  0.00     0.002 A 
ENDBRANCH   1   4
TORSDOF 1
