REMARK VINA RESULT:      -7.7      4.655      6.735
REMARK  5 active torsions:
REMARK  status: ('A' for Active; 'I' for Inactive)
REMARK    1  A    between atoms: C3_3  and  O1_4 
REMARK    2  A    between atoms: O1_4  and  C4_5 
REMARK    3  A    between atoms: C5_6  and  C6_7 
REMARK    4  A    between atoms: C6_7  and  O2_8 
REMARK    5  A    between atoms: C10_13  and  N1_14 
ROOT
HETATM    1  C1  LIG X 999      45.037 127.800  22.781  1.00  0.00     0.014 C 
HETATM    2  C2  LIG X 999      44.453 128.853  22.748  1.00  0.00    -0.091 C 
HETATM    3  C3  LIG X 999      43.745 130.134  22.708  1.00  0.00     0.268 C 
ENDROOT
BRANCH   3   4
HETATM    4  O1  LIG X 999      44.514 131.069  21.959  1.00  0.00    -0.339 OA
BRANCH   4   5
HETATM    5  C4  LIG X 999      44.501 131.175  20.558  1.00  0.00     0.079 A 
HETATM    6  C5  LIG X 999      43.459 131.898  19.942  1.00  0.00    -0.001 A 
HETATM    7  C7  LIG X 999      43.407 131.994  18.542  1.00  0.00     0.024 A 
HETATM    8  C8  LIG X 999      44.396 131.399  17.748  1.00  0.00    -0.023 A 
HETATM    9  C9  LIG X 999      44.348 131.503  16.349  1.00  0.00     0.046 A 
HETATM   10  C13 LIG X 999      45.450 130.686  18.363  1.00  0.00    -0.023 A 
HETATM   11  C10 LIG X 999      45.344 130.903  15.557  1.00  0.00     0.094 A 
HETATM   12  C11 LIG X 999      46.385 130.201  16.175  1.00  0.00     0.035 A 
HETATM   13  C12 LIG X 999      46.440 130.091  17.567  1.00  0.00     0.014 A 
HETATM   14  C14 LIG X 999      45.496 130.578  19.759  1.00  0.00     0.049 A 
BRANCH   6  15
HETATM   15  C6  LIG X 999      42.369 132.525  20.773  1.00  0.00     0.205 C 
BRANCH  15  16
HETATM   16  O2  LIG X 999      41.524 133.292  19.958  1.00  0.00    -0.396 OA
HETATM   17  H6  LIG X 999      41.045 132.655  19.367  1.00  0.00     0.209 HD
ENDBRANCH  15  16
ENDBRANCH   6  15
BRANCH  11  18
HETATM   18  N1  LIG X 999      45.326 130.990  14.126  1.00  0.00    -0.073 NA
HETATM   19  N2  LIG X 999      46.359 130.987  13.452  1.00  0.00    -0.162 NA
HETATM   20  N3  LIG X 999      47.387 130.984  12.779  1.00  0.00     0.068 N 
ENDBRANCH  11  18
ENDBRANCH   4   5
ENDBRANCH   3   4
TORSDOF 5
