MODEL 1
REMARK VINA RESULT:      -8.9      0.000      0.000
REMARK  4 active torsions:
REMARK  status: ('A' for Active; 'I' for Inactive)
REMARK    1  A    between atoms: O1_2  and  C1_3 
REMARK    2  A    between atoms: C1_3  and  C14_17 
REMARK    3  A    between atoms: N1_4  and  C2_5 
REMARK    4  A    between atoms: C2_5  and  C3_6 
ROOT
HETATM    1  C3  LIG X 999      44.498 130.971  16.643  1.00  0.00    -0.033 A 
HETATM    2  C4  LIG X 999      45.652 130.595  17.349  1.00  0.00     0.010 A 
HETATM    3  C5  LIG X 999      45.726 130.765  18.734  1.00  0.00     0.013 A 
HETATM    4  C6  LIG X 999      44.641 131.306  19.437  1.00  0.00    -0.026 A 
HETATM    5  C7  LIG X 999      44.706 131.480  20.829  1.00  0.00     0.012 A 
HETATM    6  C8  LIG X 999      43.616 132.018  21.520  1.00  0.00     0.001 A 
HETATM    7  C9  LIG X 999      42.457 132.384  20.829  1.00  0.00     0.001 A 
HETATM    8  C10 LIG X 999      42.381 132.216  19.444  1.00  0.00     0.012 A 
HETATM    9  C11 LIG X 999      43.468 131.679  18.738  1.00  0.00    -0.025 A 
HETATM   10  C12 LIG X 999      43.403 131.505  17.348  1.00  0.00     0.021 A 
ENDROOT
BRANCH   1  11
HETATM   11  C2  LIG X 999      44.422 130.761  15.147  1.00  0.00     0.139 C 
HETATM   12  C13 LIG X 999      43.556 131.851  14.505  1.00  0.00     0.039 C 
BRANCH  11  13
HETATM   13  N1  LIG X 999      45.772 130.778  14.580  1.00  0.00    -0.261 NA
HETATM   14  C1  LIG X 999      46.527 129.728  14.444  1.00  0.00     0.132 C 
BRANCH  14  15
HETATM   15  O1  LIG X 999      46.088 128.476  14.875  1.00  0.00    -0.348 OA
HETATM   16  H1  LIG X 999      46.637 127.922  15.522  1.00  0.00     0.219 HD
ENDBRANCH  14  15
BRANCH  14  17
HETATM   17  C14 LIG X 999      47.896 129.878  13.854  1.00  0.00     0.081 C 
HETATM   18  C15 LIG X 999      47.929 131.035  12.863  1.00  0.00     0.013 C 
ENDBRANCH  14  17
ENDBRANCH  11  13
ENDBRANCH   1  11
TORSDOF 4
ENDMDL
MODEL 2
REMARK VINA RESULT:      -8.4      3.045      6.262
REMARK  4 active torsions:
REMARK  status: ('A' for Active; 'I' for Inactive)
REMARK    1  A    between atoms: O1_2  and  C1_3 
REMARK    2  A    between atoms: C1_3  and  C14_17 
REMARK    3  A    between atoms: N1_4  and  C2_5 
REMARK    4  A    between atoms: C2_5  and  C3_6 
ROOT
HETATM    1  C3  LIG X 999      44.119 131.607  19.090  1.00  0.00    -0.033 A 
HETATM    2  C4  LIG X 999      45.346 130.951  19.285  1.00  0.00     0.010 A 
HETATM    3  C5  LIG X 999      46.092 130.498  18.194  1.00  0.00     0.013 A 
HETATM    4  C6  LIG X 999      45.627 130.702  16.888  1.00  0.00    -0.026 A 
HETATM    5  C7  LIG X 999      46.370 130.251  15.785  1.00  0.00     0.012 A 
HETATM    6  C8  LIG X 999      45.898 130.463  14.487  1.00  0.00     0.001 A 
HETATM    7  C9  LIG X 999      44.684 131.125  14.279  1.00  0.00     0.001 A 
HETATM    8  C10 LIG X 999      43.936 131.579  15.369  1.00  0.00     0.012 A 
HETATM    9  C11 LIG X 999      44.398 131.371  16.678  1.00  0.00    -0.025 A 
HETATM   10  C12 LIG X 999      43.655 131.823  17.778  1.00  0.00     0.021 A 
ENDROOT
BRANCH   1  11
HETATM   11  C2  LIG X 999      43.332 132.113  20.278  1.00  0.00     0.139 C 
HETATM   12  C13 LIG X 999      42.021 132.754  19.808  1.00  0.00     0.039 C 
BRANCH  11  13
HETATM   13  N1  LIG X 999      43.061 131.004  21.195  1.00  0.00    -0.261 NA
HETATM   14  C1  LIG X 999      43.693 130.801  22.312  1.00  0.00     0.132 C 
BRANCH  14  15
HETATM   15  O1  LIG X 999      44.731 131.646  22.706  1.00  0.00    -0.348 OA
HETATM   16  H1  LIG X 999      44.611 132.651  22.725  1.00  0.00     0.219 HD
ENDBRANCH  14  15
BRANCH  14  17
HETATM   17  C14 LIG X 999      43.326 129.622  23.162  1.00  0.00     0.081 C 
HETATM   18  C15 LIG X 999      44.390 128.536  23.060  1.00  0.00     0.013 C 
ENDBRANCH  14  17
ENDBRANCH  11  13
ENDBRANCH   1  11
TORSDOF 4
ENDMDL
MODEL 3
REMARK VINA RESULT:      -8.4      2.854      6.304
REMARK  4 active torsions:
REMARK  status: ('A' for Active; 'I' for Inactive)
REMARK    1  A    between atoms: O1_2  and  C1_3 
REMARK    2  A    between atoms: C1_3  and  C14_17 
REMARK    3  A    between atoms: N1_4  and  C2_5 
REMARK    4  A    between atoms: C2_5  and  C3_6 
ROOT
HETATM    1  C3  LIG X 999      44.475 131.428  18.127  1.00  0.00    -0.033 A 
HETATM    2  C4  LIG X 999      45.446 130.505  18.548  1.00  0.00     0.010 A 
HETATM    3  C5  LIG X 999      46.331 129.934  17.630  1.00  0.00     0.013 A 
HETATM    4  C6  LIG X 999      46.265 130.284  16.275  1.00  0.00    -0.026 A 
HETATM    5  C7  LIG X 999      47.150 129.717  15.344  1.00  0.00     0.012 A 
HETATM    6  C8  LIG X 999      47.076 130.076  13.996  1.00  0.00     0.001 A 
HETATM    7  C9  LIG X 999      46.121 131.003  13.566  1.00  0.00     0.001 A 
HETATM    8  C10 LIG X 999      45.235 131.575  14.483  1.00  0.00     0.012 A 
HETATM    9  C11 LIG X 999      45.297 131.222  15.840  1.00  0.00    -0.025 A 
HETATM   10  C12 LIG X 999      44.413 131.790  16.768  1.00  0.00     0.021 A 
ENDROOT
BRANCH   1  11
HETATM   11  C2  LIG X 999      43.538 132.056  19.135  1.00  0.00     0.139 C 
HETATM   12  C13 LIG X 999      42.087 131.931  18.654  1.00  0.00     0.039 C 
BRANCH  11  13
HETATM   13  N1  LIG X 999      43.706 131.403  20.434  1.00  0.00    -0.261 NA
HETATM   14  C1  LIG X 999      42.975 131.646  21.481  1.00  0.00     0.132 C 
BRANCH  14  15
HETATM   15  O1  LIG X 999      41.962 132.604  21.434  1.00  0.00    -0.348 OA
HETATM   16  H1  LIG X 999      42.147 133.548  21.116  1.00  0.00     0.219 HD
ENDBRANCH  14  15
BRANCH  14  17
HETATM   17  C14 LIG X 999      43.253 130.914  22.759  1.00  0.00     0.081 C 
HETATM   18  C15 LIG X 999      44.397 129.925  22.572  1.00  0.00     0.013 C 
ENDBRANCH  14  17
ENDBRANCH  11  13
ENDBRANCH   1  11
TORSDOF 4
ENDMDL
MODEL 4
REMARK VINA RESULT:      -8.4      2.533      6.529
REMARK  4 active torsions:
REMARK  status: ('A' for Active; 'I' for Inactive)
REMARK    1  A    between atoms: O1_2  and  C1_3 
REMARK    2  A    between atoms: C1_3  and  C14_17 
REMARK    3  A    between atoms: N1_4  and  C2_5 
REMARK    4  A    between atoms: C2_5  and  C3_6 
ROOT
HETATM    1  C3  LIG X 999      45.593 130.855  17.674  1.00  0.00    -0.033 A 
HETATM    2  C4  LIG X 999      45.245 132.052  17.025  1.00  0.00     0.010 A 
HETATM    3  C5  LIG X 999      45.659 132.297  15.714  1.00  0.00     0.013 A 
HETATM    4  C6  LIG X 999      46.423 131.345  15.026  1.00  0.00    -0.026 A 
HETATM    5  C7  LIG X 999      46.845 131.582  13.708  1.00  0.00     0.012 A 
HETATM    6  C8  LIG X 999      47.603 130.623  13.031  1.00  0.00     0.001 A 
HETATM    7  C9  LIG X 999      47.946 129.423  13.662  1.00  0.00     0.001 A 
HETATM    8  C10 LIG X 999      47.532 129.176  14.974  1.00  0.00     0.012 A 
HETATM    9  C11 LIG X 999      46.771 130.131  15.665  1.00  0.00    -0.025 A 
HETATM   10  C12 LIG X 999      46.351 129.893  16.982  1.00  0.00     0.021 A 
ENDROOT
BRANCH   1  11
HETATM   11  C2  LIG X 999      45.118 130.592  19.086  1.00  0.00     0.139 C 
HETATM   12  C13 LIG X 999      46.278 130.764  20.073  1.00  0.00     0.039 C 
BRANCH  11  13
HETATM   13  N1  LIG X 999      44.024 131.509  19.414  1.00  0.00    -0.261 NA
HETATM   14  C1  LIG X 999      43.414 131.546  20.561  1.00  0.00     0.132 C 
BRANCH  14  15
HETATM   15  O1  LIG X 999      43.758 130.658  21.580  1.00  0.00    -0.348 OA
HETATM   16  H1  LIG X 999      44.633 130.148  21.558  1.00  0.00     0.219 HD
ENDBRANCH  14  15
BRANCH  14  17
HETATM   17  C14 LIG X 999      42.302 132.530  20.772  1.00  0.00     0.081 C 
HETATM   18  C15 LIG X 999      41.649 132.893  19.443  1.00  0.00     0.013 C 
ENDBRANCH  14  17
ENDBRANCH  11  13
ENDBRANCH   1  11
TORSDOF 4
ENDMDL
MODEL 5
REMARK VINA RESULT:      -7.9      2.953      6.838
REMARK  4 active torsions:
REMARK  status: ('A' for Active; 'I' for Inactive)
REMARK    1  A    between atoms: O1_2  and  C1_3 
REMARK    2  A    between atoms: C1_3  and  C14_17 
REMARK    3  A    between atoms: N1_4  and  C2_5 
REMARK    4  A    between atoms: C2_5  and  C3_6 
ROOT
HETATM    1  C3  LIG X 999      44.971 131.143  19.028  1.00  0.00    -0.033 A 
HETATM    2  C4  LIG X 999      43.758 131.697  18.586  1.00  0.00     0.010 A 
HETATM    3  C5  LIG X 999      43.478 131.798  17.221  1.00  0.00     0.013 A 
HETATM    4  C6  LIG X 999      44.403 131.337  16.275  1.00  0.00    -0.026 A 
HETATM    5  C7  LIG X 999      44.130 131.434  14.901  1.00  0.00     0.012 A 
HETATM    6  C8  LIG X 999      45.059 130.968  13.967  1.00  0.00     0.001 A 
HETATM    7  C9  LIG X 999      46.264 130.403  14.395  1.00  0.00     0.001 A 
HETATM    8  C10 LIG X 999      46.548 130.301  15.760  1.00  0.00     0.012 A 
HETATM    9  C11 LIG X 999      45.624 130.767  16.708  1.00  0.00    -0.025 A 
HETATM   10  C12 LIG X 999      45.897 130.669  18.080  1.00  0.00     0.021 A 
ENDROOT
BRANCH   1  11
HETATM   11  C2  LIG X 999      45.253 131.018  20.509  1.00  0.00     0.139 C 
HETATM   12  C13 LIG X 999      46.491 131.842  20.881  1.00  0.00     0.039 C 
BRANCH  11  13
HETATM   13  N1  LIG X 999      44.087 131.473  21.270  1.00  0.00    -0.261 NA
HETATM   14  C1  LIG X 999      43.815 131.110  22.488  1.00  0.00     0.132 C 
BRANCH  14  15
HETATM   15  O1  LIG X 999      44.637 130.205  23.161  1.00  0.00    -0.348 OA
HETATM   16  H1  LIG X 999      45.605 130.077  22.893  1.00  0.00     0.219 HD
ENDBRANCH  14  15
BRANCH  14  17
HETATM   17  C14 LIG X 999      42.584 131.642  23.158  1.00  0.00     0.081 C 
HETATM   18  C15 LIG X 999      42.875 131.997  24.611  1.00  0.00     0.013 C 
ENDBRANCH  14  17
ENDBRANCH  11  13
ENDBRANCH   1  11
TORSDOF 4
ENDMDL
MODEL 6
REMARK VINA RESULT:      -7.7      3.053      6.534
REMARK  4 active torsions:
REMARK  status: ('A' for Active; 'I' for Inactive)
REMARK    1  A    between atoms: O1_2  and  C1_3 
REMARK    2  A    between atoms: C1_3  and  C14_17 
REMARK    3  A    between atoms: N1_4  and  C2_5 
REMARK    4  A    between atoms: C2_5  and  C3_6 
ROOT
HETATM    1  C3  LIG X 999      44.244 131.516  18.771  1.00  0.00    -0.033 A 
HETATM    2  C4  LIG X 999      43.242 131.915  17.870  1.00  0.00     0.010 A 
HETATM    3  C5  LIG X 999      43.408 131.732  16.495  1.00  0.00     0.013 A 
HETATM    4  C6  LIG X 999      44.576 131.139  15.998  1.00  0.00    -0.026 A 
HETATM    5  C7  LIG X 999      44.752 130.951  14.618  1.00  0.00     0.012 A 
HETATM    6  C8  LIG X 999      45.920 130.355  14.135  1.00  0.00     0.001 A 
HETATM    7  C9  LIG X 999      46.919 129.943  15.022  1.00  0.00     0.001 A 
HETATM    8  C10 LIG X 999      46.756 130.125  16.398  1.00  0.00     0.012 A 
HETATM    9  C11 LIG X 999      45.588 130.723  16.897  1.00  0.00    -0.025 A 
HETATM   10  C12 LIG X 999      45.413 130.910  18.276  1.00  0.00     0.021 A 
ENDROOT
BRANCH   1  11
HETATM   11  C2  LIG X 999      44.042 131.699  20.259  1.00  0.00     0.139 C 
HETATM   12  C13 LIG X 999      42.636 132.244  20.537  1.00  0.00     0.039 C 
BRANCH  11  13
HETATM   13  N1  LIG X 999      44.240 130.419  20.942  1.00  0.00    -0.261 NA
HETATM   14  C1  LIG X 999      44.501 130.292  22.209  1.00  0.00     0.132 C 
BRANCH  14  15
HETATM   15  O1  LIG X 999      44.642 131.417  23.022  1.00  0.00    -0.348 OA
HETATM   16  H1  LIG X 999      44.048 131.559  23.830  1.00  0.00     0.219 HD
ENDBRANCH  14  15
BRANCH  14  17
HETATM   17  C14 LIG X 999      44.690 128.923  22.788  1.00  0.00     0.081 C 
HETATM   18  C15 LIG X 999      43.467 128.511  23.599  1.00  0.00     0.013 C 
ENDBRANCH  14  17
ENDBRANCH  11  13
ENDBRANCH   1  11
TORSDOF 4
ENDMDL
MODEL 7
REMARK VINA RESULT:      -6.8      3.781      7.184
REMARK  4 active torsions:
REMARK  status: ('A' for Active; 'I' for Inactive)
REMARK    1  A    between atoms: O1_2  and  C1_3 
REMARK    2  A    between atoms: C1_3  and  C14_17 
REMARK    3  A    between atoms: N1_4  and  C2_5 
REMARK    4  A    between atoms: C2_5  and  C3_6 
ROOT
HETATM    1  C3  LIG X 999      43.966 131.189  21.662  1.00  0.00    -0.033 A 
HETATM    2  C4  LIG X 999      42.817 131.821  21.157  1.00  0.00     0.010 A 
HETATM    3  C5  LIG X 999      42.675 132.049  19.786  1.00  0.00     0.013 A 
HETATM    4  C6  LIG X 999      43.678 131.643  18.895  1.00  0.00    -0.026 A 
HETATM    5  C7  LIG X 999      43.545 131.869  17.516  1.00  0.00     0.012 A 
HETATM    6  C8  LIG X 999      44.551 131.456  16.637  1.00  0.00     0.001 A 
HETATM    7  C9  LIG X 999      45.693 130.817  17.126  1.00  0.00     0.001 A 
HETATM    8  C10 LIG X 999      45.838 130.587  18.498  1.00  0.00     0.012 A 
HETATM    9  C11 LIG X 999      44.836 130.997  19.391  1.00  0.00    -0.025 A 
HETATM   10  C12 LIG X 999      44.970 130.771  20.768  1.00  0.00     0.021 A 
ENDROOT
BRANCH   1  11
HETATM   11  C2  LIG X 999      44.097 130.927  23.145  1.00  0.00     0.139 C 
HETATM   12  C13 LIG X 999      43.706 132.179  23.939  1.00  0.00     0.039 C 
BRANCH  11  13
HETATM   13  N1  LIG X 999      43.246 129.795  23.520  1.00  0.00    -0.261 NA
HETATM   14  C1  LIG X 999      43.648 128.561  23.587  1.00  0.00     0.132 C 
BRANCH  14  15
HETATM   15  O1  LIG X 999      44.963 128.223  23.264  1.00  0.00    -0.348 OA
HETATM   16  H1  LIG X 999      45.558 127.741  23.927  1.00  0.00     0.219 HD
ENDBRANCH  14  15
BRANCH  14  17
HETATM   17  C14 LIG X 999      42.676 127.490  23.978  1.00  0.00     0.081 C 
HETATM   18  C15 LIG X 999      41.248 128.021  23.933  1.00  0.00     0.013 C 
ENDBRANCH  14  17
ENDBRANCH  11  13
ENDBRANCH   1  11
TORSDOF 4
ENDMDL
MODEL 8
REMARK VINA RESULT:      -6.7      2.632      6.396
REMARK  4 active torsions:
REMARK  status: ('A' for Active; 'I' for Inactive)
REMARK    1  A    between atoms: O1_2  and  C1_3 
REMARK    2  A    between atoms: C1_3  and  C14_17 
REMARK    3  A    between atoms: N1_4  and  C2_5 
REMARK    4  A    between atoms: C2_5  and  C3_6 
ROOT
HETATM    1  C3  LIG X 999      45.069 131.396  17.435  1.00  0.00    -0.033 A 
HETATM    2  C4  LIG X 999      44.372 132.058  16.410  1.00  0.00     0.010 A 
HETATM    3  C5  LIG X 999      44.765 131.917  15.076  1.00  0.00     0.013 A 
HETATM    4  C6  LIG X 999      45.858 131.105  14.745  1.00  0.00    -0.026 A 
HETATM    5  C7  LIG X 999      46.260 130.957  13.407  1.00  0.00     0.012 A 
HETATM    6  C8  LIG X 999      47.349 130.141  13.089  1.00  0.00     0.001 A 
HETATM    7  C9  LIG X 999      48.043 129.469  14.098  1.00  0.00     0.001 A 
HETATM    8  C10 LIG X 999      47.653 129.608  15.433  1.00  0.00     0.012 A 
HETATM    9  C11 LIG X 999      46.561 130.425  15.767  1.00  0.00    -0.025 A 
HETATM   10  C12 LIG X 999      46.161 130.571  17.103  1.00  0.00     0.021 A 
ENDROOT
BRANCH   1  11
HETATM   11  C2  LIG X 999      44.620 131.538  18.872  1.00  0.00     0.139 C 
HETATM   12  C13 LIG X 999      43.109 131.795  18.928  1.00  0.00     0.039 C 
BRANCH  11  13
HETATM   13  N1  LIG X 999      44.963 130.324  19.615  1.00  0.00    -0.261 NA
HETATM   14  C1  LIG X 999      45.180 130.282  20.896  1.00  0.00     0.132 C 
BRANCH  14  15
HETATM   15  O1  LIG X 999      45.126 131.444  21.666  1.00  0.00    -0.348 OA
HETATM   16  H1  LIG X 999      44.897 131.410  22.652  1.00  0.00     0.219 HD
ENDBRANCH  14  15
BRANCH  14  17
HETATM   17  C14 LIG X 999      45.530 128.974  21.540  1.00  0.00     0.081 C 
HETATM   18  C15 LIG X 999      44.693 128.753  22.794  1.00  0.00     0.013 C 
ENDBRANCH  14  17
ENDBRANCH  11  13
ENDBRANCH   1  11
TORSDOF 4
ENDMDL
MODEL 9
REMARK VINA RESULT:      -6.7      3.770      6.804
REMARK  4 active torsions:
REMARK  status: ('A' for Active; 'I' for Inactive)
REMARK    1  A    between atoms: O1_2  and  C1_3 
REMARK    2  A    between atoms: C1_3  and  C14_17 
REMARK    3  A    between atoms: N1_4  and  C2_5 
REMARK    4  A    between atoms: C2_5  and  C3_6 
ROOT
HETATM    1  C3  LIG X 999      44.165 131.240  20.824  1.00  0.00    -0.033 A 
HETATM    2  C4  LIG X 999      45.435 130.643  20.763  1.00  0.00     0.010 A 
HETATM    3  C5  LIG X 999      46.056 130.416  19.532  1.00  0.00     0.013 A 
HETATM    4  C6  LIG X 999      45.420 130.790  18.341  1.00  0.00    -0.026 A 
HETATM    5  C7  LIG X 999      46.036 130.566  17.100  1.00  0.00     0.012 A 
HETATM    6  C8  LIG X 999      45.392 130.947  15.919  1.00  0.00     0.001 A 
HETATM    7  C9  LIG X 999      44.133 131.552  15.967  1.00  0.00     0.001 A 
HETATM    8  C10 LIG X 999      43.510 131.780  17.197  1.00  0.00     0.012 A 
HETATM    9  C11 LIG X 999      44.144 131.402  18.391  1.00  0.00    -0.025 A 
HETATM   10  C12 LIG X 999      43.528 131.627  19.630  1.00  0.00     0.021 A 
ENDROOT
BRANCH   1  11
HETATM   11  C2  LIG X 999      43.513 131.502  22.164  1.00  0.00     0.139 C 
HETATM   12  C13 LIG X 999      42.231 132.320  21.976  1.00  0.00     0.039 C 
BRANCH  11  13
HETATM   13  N1  LIG X 999      43.217 130.228  22.823  1.00  0.00    -0.261 NA
HETATM   14  C1  LIG X 999      43.763 129.828  23.932  1.00  0.00     0.132 C 
BRANCH  14  15
HETATM   15  O1  LIG X 999      44.726 130.608  24.573  1.00  0.00    -0.348 OA
HETATM   16  H1  LIG X 999      44.616 130.888  25.540  1.00  0.00     0.219 HD
ENDBRANCH  14  15
BRANCH  14  17
HETATM   17  C14 LIG X 999      43.380 128.496  24.503  1.00  0.00     0.081 C 
HETATM   18  C15 LIG X 999      43.985 127.365  23.679  1.00  0.00     0.013 C 
ENDBRANCH  14  17
ENDBRANCH  11  13
ENDBRANCH   1  11
TORSDOF 4
ENDMDL
