REMARK VINA RESULT:      -5.9      7.024      9.275
REMARK  2 active torsions:
REMARK  status: ('A' for Active; 'I' for Inactive)
REMARK    1  A    between atoms: C2_5  and  C3_6 
REMARK    2  A    between atoms: N3_18  and  C13_19 
ROOT
HETATM    1  H1  LIG X 999      46.044 124.825  23.632  1.00  0.00     0.190 HD
HETATM    2  N1  LIG X 999      45.012 124.725  23.506  1.00  0.00    -0.260 NA
HETATM    3  C1  LIG X 999      44.249 125.767  23.427  1.00  0.00     0.268 A 
HETATM    4  O1  LIG X 999      44.689 127.005  23.481  1.00  0.00    -0.257 OA
HETATM    5  C2  LIG X 999      43.617 127.753  23.314  1.00  0.00     0.177 A 
HETATM    6  N2  LIG X 999      42.514 126.987  23.172  1.00  0.00    -0.269 N 
HETATM    7  H9  LIG X 999      41.524 127.306  23.071  1.00  0.00     0.190 HD
HETATM    8  N3  LIG X 999      42.913 125.728  23.250  1.00  0.00    -0.212 N 
ENDROOT
BRANCH   5   9
HETATM    9  C3  LIG X 999      43.626 129.230  23.340  1.00  0.00     0.028 A 
HETATM   10  C4  LIG X 999      42.912 129.865  24.369  1.00  0.00     0.017 A 
HETATM   11  C5  LIG X 999      42.811 131.255  24.416  1.00  0.00     0.002 A 
HETATM   12  C6  LIG X 999      43.425 132.038  23.441  1.00  0.00     0.012 A 
HETATM   13  C7  LIG X 999      44.175 131.436  22.422  1.00  0.00    -0.025 A 
HETATM   14  C8  LIG X 999      44.818 132.234  21.463  1.00  0.00     0.012 A 
HETATM   15  C12 LIG X 999      44.299 130.020  22.369  1.00  0.00    -0.011 A 
HETATM   16  C9  LIG X 999      45.602 131.647  20.469  1.00  0.00     0.001 A 
HETATM   17  C10 LIG X 999      45.762 130.263  20.431  1.00  0.00     0.001 A 
HETATM   18  C11 LIG X 999      45.126 129.453  21.376  1.00  0.00     0.013 A 
ENDBRANCH   5   9
BRANCH   8  19
HETATM   19  C13 LIG X 999      42.050 124.586  23.119  1.00  0.00     0.105 A 
HETATM   20  C14 LIG X 999      42.403 123.545  22.247  1.00  0.00     0.054 A 
HETATM   21  C15 LIG X 999      41.562 122.437  22.118  1.00  0.00     0.122 A 
HETATM   22  N4  LIG X 999      40.404 122.375  22.825  1.00  0.00    -0.230 NA
HETATM   23  C16 LIG X 999      40.026 123.374  23.666  1.00  0.00     0.251 A 
HETATM   24  F1  LIG X 999      38.854 123.278  24.339  1.00  0.00    -0.181 F 
HETATM   25  C17 LIG X 999      40.839 124.501  23.827  1.00  0.00     0.202 A 
HETATM   26  F2  LIG X 999      40.422 125.516  24.624  1.00  0.00    -0.199 F 
ENDBRANCH   8  19
TORSDOF 2
