REMARK VINA RESULT:      -8.2      5.226      7.586
REMARK  6 active torsions:
REMARK  status: ('A' for Active; 'I' for Inactive)
REMARK    1  A    between atoms: O1_2  and  C1_3 
REMARK    2  A    between atoms: C1_3  and  C4_6 
REMARK    3  A    between atoms: C4_6  and  O2_7 
REMARK    4  A    between atoms: C4_6  and  O3_9 
REMARK    5  A    between atoms: O3_9  and  C5_10 
REMARK    6  A    between atoms: C10_15  and  N1_16 
ROOT
HETATM    1  N1  LIG X 999      45.181 130.974  14.164  1.00  0.00    -0.073 NA
HETATM    2  N2  LIG X 999      46.273 130.975  13.594  1.00  0.00    -0.162 NA
HETATM    3  N3  LIG X 999      47.362 130.975  13.023  1.00  0.00     0.068 N 
ENDROOT
BRANCH   1   4
HETATM    4  C10 LIG X 999      45.062 131.024  15.593  1.00  0.00     0.094 A 
HETATM    5  C9  LIG X 999      43.904 131.519  16.223  1.00  0.00     0.046 A 
HETATM    6  C8  LIG X 999      43.821 131.554  17.624  1.00  0.00    -0.024 A 
HETATM    7  C7  LIG X 999      42.671 132.044  18.259  1.00  0.00     0.015 A 
HETATM    8  C13 LIG X 999      44.905 131.090  18.405  1.00  0.00    -0.023 A 
HETATM    9  C6  LIG X 999      42.599 132.076  19.654  1.00  0.00     0.038 A 
HETATM   10  C5  LIG X 999      43.666 131.624  20.437  1.00  0.00     0.073 A 
HETATM   11  C14 LIG X 999      44.821 131.125  19.805  1.00  0.00     0.049 A 
HETATM   12  C12 LIG X 999      46.055 130.599  17.769  1.00  0.00     0.014 A 
HETATM   13  C11 LIG X 999      46.129 130.568  16.374  1.00  0.00     0.035 A 
BRANCH  10  14
HETATM   14  O3  LIG X 999      43.532 131.688  21.835  1.00  0.00    -0.314 OA
BRANCH  14  15
HETATM   15  C4  LIG X 999      42.896 130.706  22.655  1.00  0.00     0.321 C 
BRANCH  15  16
HETATM   16  C1  LIG X 999      43.921 129.915  23.428  1.00  0.00     0.094 C 
HETATM   17  C2  LIG X 999      44.115 128.613  23.155  1.00  0.00     0.006 C 
HETATM   18  C3  LIG X 999      45.112 127.765  23.881  1.00  0.00     0.038 C 
BRANCH  16  19
HETATM   19  O1  LIG X 999      44.660 130.582  24.409  1.00  0.00    -0.360 OA
HETATM   20  H1  LIG X 999      44.889 131.567  24.362  1.00  0.00     0.217 HD
ENDBRANCH  16  19
ENDBRANCH  15  16
BRANCH  15  21
HETATM   21  O2  LIG X 999      42.034 131.359  23.549  1.00  0.00    -0.365 OA
HETATM   22  H7  LIG X 999      41.614 130.655  24.109  1.00  0.00     0.213 HD
ENDBRANCH  15  21
ENDBRANCH  14  15
ENDBRANCH  10  14
ENDBRANCH   1   4
TORSDOF 6
