REMARK VINA RESULT:      -6.0      2.493      7.563
REMARK  5 active torsions:
REMARK  status: ('A' for Active; 'I' for Inactive)
REMARK    1  A    between atoms: C6_6  and  C7_7 
REMARK       I    between atoms: C7_7  and  N1_9 
REMARK    2  A    between atoms: N1_9  and  C8_11 
REMARK    3  A    between atoms: C8_11  and  C9_12 
REMARK    4  A    between atoms: C9_12  and  N2_13 
REMARK    5  A    between atoms: C13_19  and  N5_20 
ROOT
HETATM    1  N2  LIG X 999      42.191 131.740  22.021  1.00  0.00    -0.114 NA
HETATM    2  N3  LIG X 999      42.061 132.448  21.023  1.00  0.00    -0.168 NA
HETATM    3  N4  LIG X 999      41.931 133.156  20.025  1.00  0.00     0.068 N 
ENDROOT
BRANCH   1   4
HETATM    4  C9  LIG X 999      43.189 132.060  23.030  1.00  0.00     0.208 C 
BRANCH   4   5
HETATM    5  C8  LIG X 999      44.367 131.094  22.915  1.00  0.00     0.147 C 
BRANCH   5   6
HETATM    6  N1  LIG X 999      44.541 130.642  21.535  1.00  0.00    -0.355 N 
HETATM    7  C7  LIG X 999      45.351 131.382  20.607  1.00  0.00     0.251 C 
HETATM    8  O1  LIG X 999      46.043 132.351  21.023  1.00  0.00    -0.268 OA
HETATM    9  H4  LIG X 999      44.106 129.743  21.232  1.00  0.00     0.162 HD
BRANCH   7  10
HETATM   10  C6  LIG X 999      45.401 131.016  19.170  1.00  0.00     0.032 A 
HETATM   11  C1  LIG X 999      46.244 129.993  18.712  1.00  0.00     0.017 A 
HETATM   12  C2  LIG X 999      46.284 129.661  17.357  1.00  0.00     0.011 A 
HETATM   13  C3  LIG X 999      45.493 130.350  16.423  1.00  0.00    -0.024 A 
HETATM   14  C4  LIG X 999      44.595 131.341  16.885  1.00  0.00    -0.049 A 
HETATM   15  C13 LIG X 999      45.519 129.921  14.963  1.00  0.00     0.179 C 
HETATM   16  C5  LIG X 999      44.573 131.678  18.248  1.00  0.00     0.024 A 
HETATM   17  C10 LIG X 999      43.711 132.113  15.934  1.00  0.00     0.039 C 
HETATM   18  C11 LIG X 999      43.481 131.366  14.619  1.00  0.00     0.007 C 
HETATM   19  C12 LIG X 999      44.818 130.925  14.028  1.00  0.00     0.035 C 
BRANCH  15  20
HETATM   20  N5  LIG X 999      46.889 129.688  14.504  1.00  0.00    -0.105 NA
HETATM   21  N6  LIG X 999      47.423 130.419  13.668  1.00  0.00    -0.167 NA
HETATM   22  N7  LIG X 999      47.958 131.149  12.834  1.00  0.00     0.068 N 
ENDBRANCH  15  20
ENDBRANCH   7  10
ENDBRANCH   5   6
ENDBRANCH   4   5
ENDBRANCH   1   4
TORSDOF 5
