REMARK VINA RESULT:      -6.1      2.788      5.147
REMARK  1 active torsions:
REMARK  status: ('A' for Active; 'I' for Inactive)
REMARK    1  A    between atoms: N1_2  and  C1_3 
ROOT
HETATM    1  C1  LIG X 999      43.308 131.965  22.367  1.00  0.00     0.120 C 
HETATM    2  C2  LIG X 999      42.400 132.271  21.359  1.00  0.00     0.057 C 
HETATM    3  C3  LIG X 999      42.685 131.955  20.024  1.00  0.00    -0.045 C 
HETATM    4  C4  LIG X 999      41.527 132.038  19.060  1.00  0.00     0.049 C 
HETATM    5  C5  LIG X 999      43.980 131.445  19.687  1.00  0.00     0.008 C 
HETATM    6  C6  LIG X 999      44.484 131.282  18.353  1.00  0.00    -0.013 C 
HETATM    7  C7  LIG X 999      43.949 131.956  17.229  1.00  0.00     0.013 C 
HETATM    8  C8  LIG X 999      44.438 131.718  15.943  1.00  0.00     0.001 C 
HETATM    9  C9  LIG X 999      45.503 130.843  15.747  1.00  0.00     0.001 C 
HETATM   10  C10 LIG X 999      46.122 130.247  16.844  1.00  0.00     0.012 C 
HETATM   11  C11 LIG X 999      45.649 130.489  18.143  1.00  0.00    -0.025 C 
HETATM   12  C12 LIG X 999      46.366 129.991  19.232  1.00  0.00     0.014 C 
HETATM   13  C13 LIG X 999      45.984 130.309  20.528  1.00  0.00     0.031 C 
HETATM   14  C14 LIG X 999      44.812 131.035  20.771  1.00  0.00     0.045 C 
HETATM   15  N2  LIG X 999      44.468 131.324  22.059  1.00  0.00    -0.341 N 
HETATM   16  H12 LIG X 999      45.113 131.048  22.836  1.00  0.00     0.167 HD
ENDROOT
BRANCH   1  17
HETATM   17  N1  LIG X 999      43.020 132.256  23.597  1.00  0.00    -0.284 NA
HETATM   18  H1  LIG X 999      43.748 132.291  24.345  1.00  0.00     0.188 HD
ENDBRANCH   1  17
TORSDOF 1
