REMARK VINA RESULT:      -3.6      7.445      9.909
REMARK  4 active torsions:
REMARK  status: ('A' for Active; 'I' for Inactive)
REMARK    1  A    between atoms: C5_5  and  C6_6 
REMARK    2  A    between atoms: C7_7  and  C8_8 
REMARK    3  A    between atoms: C11_13  and  C12_14 
REMARK    4  A    between atoms: C13_17  and  N3_18 
ROOT
HETATM    1  N3  LIG X 999      48.083 135.526  21.857  1.00  0.00    -0.023 NA
HETATM    2  N4  LIG X 999      48.779 136.116  21.031  1.00  0.00    -0.158 NA
HETATM    3  N5  LIG X 999      49.475 136.705  20.205  1.00  0.00     0.068 N 
ENDROOT
BRANCH   1   4
HETATM    4  C13 LIG X 999      47.619 134.200  21.605  1.00  0.00     0.326 A 
HETATM    5  N2  LIG X 999      48.433 133.137  21.494  1.00  0.00    -0.099 NA
HETATM    6  N1  LIG X 999      47.643 132.101  21.264  1.00  0.00    -0.124 NA
HETATM    7  C12 LIG X 999      46.379 132.576  21.236  1.00  0.00     0.184 A 
HETATM    8  O3  LIG X 999      46.360 133.871  21.454  1.00  0.00    -0.255 OA
BRANCH   7   9
HETATM    9  C11 LIG X 999      45.146 131.716  21.033  1.00  0.00     0.054 C 
HETATM   10  C3  LIG X 999      44.229 132.317  19.909  1.00  0.00     0.030 C 
HETATM   11  C2  LIG X 999      42.837 131.723  19.958  1.00  0.00    -0.021 C 
HETATM   12  C4  LIG X 999      44.855 132.170  18.506  1.00  0.00     0.027 C 
HETATM   13  C1  LIG X 999      42.282 131.399  21.130  1.00  0.00    -0.004 C 
HETATM   14  C15 LIG X 999      43.061 131.488  22.377  1.00  0.00    -0.003 C 
HETATM   15  C14 LIG X 999      44.384 131.682  22.347  1.00  0.00    -0.008 C 
HETATM   16  C5  LIG X 999      45.244 130.712  18.200  1.00  0.00     0.066 C 
HETATM   17  C9  LIG X 999      46.193 130.167  19.276  1.00  0.00     0.019 C 
HETATM   18  C10 LIG X 999      45.552 130.261  20.666  1.00  0.00     0.024 C 
BRANCH  16  19
HETATM   19  C6  LIG X 999      45.885 130.632  16.878  1.00  0.00    -0.090 C 
HETATM   20  C7  LIG X 999      46.410 130.565  15.796  1.00  0.00     0.005 C 
BRANCH  20  21
HETATM   21  C8  LIG X 999      47.037 130.485  14.507  1.00  0.00     0.258 C 
HETATM   22  O1  LIG X 999      47.075 131.499  13.763  1.00  0.00    -0.637 OA
HETATM   23  O2  LIG X 999      47.601 129.291  14.083  1.00  0.00    -0.637 OA
ENDBRANCH  20  21
ENDBRANCH  16  19
ENDBRANCH   7   9
ENDBRANCH   1   4
TORSDOF 4
