REMARK VINA RESULT:      -6.3      2.366      5.483
REMARK  1 active torsions:
REMARK  status: ('A' for Active; 'I' for Inactive)
REMARK    1  A    between atoms: C4_4  and  N1_5 
ROOT
HETATM    1  C1  LIG X 999      41.633 131.908  18.265  1.00  0.00     0.049 C 
HETATM    2  C2  LIG X 999      43.132 131.768  18.156  1.00  0.00    -0.045 C 
HETATM    3  C3  LIG X 999      43.667 131.868  16.863  1.00  0.00     0.055 C 
HETATM    4  C4  LIG X 999      44.982 131.487  16.612  1.00  0.00     0.099 C 
HETATM    5  N2  LIG X 999      45.740 130.979  17.618  1.00  0.00    -0.342 N 
HETATM    6  C5  LIG X 999      45.281 130.905  18.900  1.00  0.00     0.045 C 
HETATM    7  C6  LIG X 999      46.088 130.306  19.875  1.00  0.00     0.031 C 
HETATM    8  C7  LIG X 999      45.657 130.206  21.191  1.00  0.00     0.014 C 
HETATM    9  C8  LIG X 999      44.458 130.804  21.586  1.00  0.00    -0.025 C 
HETATM   10  C9  LIG X 999      44.100 130.786  22.944  1.00  0.00     0.012 C 
HETATM   11  C10 LIG X 999      42.982 131.489  23.386  1.00  0.00     0.001 C 
HETATM   12  C11 LIG X 999      42.239 132.247  22.486  1.00  0.00     0.001 C 
HETATM   13  C12 LIG X 999      42.576 132.261  21.131  1.00  0.00     0.013 C 
HETATM   14  C13 LIG X 999      43.640 131.473  20.631  1.00  0.00    -0.013 C 
HETATM   15  C14 LIG X 999      43.991 131.406  19.241  1.00  0.00     0.008 C 
HETATM   16  H7  LIG X 999      46.704 130.640  17.392  1.00  0.00     0.167 HD
ENDROOT
BRANCH   4  17
HETATM   17  N1  LIG X 999      45.513 131.571  15.286  1.00  0.00    -0.385 N 
HETATM   18  H5  LIG X 999      45.391 130.785  14.609  1.00  0.00     0.157 HD
HETATM   19  H6  LIG X 999      46.027 132.423  14.972  1.00  0.00     0.157 HD
ENDBRANCH   4  17
TORSDOF 1
