REMARK VINA RESULT:      -5.9      6.464      8.314
REMARK  3 active torsions:
REMARK  status: ('A' for Active; 'I' for Inactive)
REMARK    1  A    between atoms: C3_3  and  S1_4 
REMARK    2  A    between atoms: S1_4  and  C4_5 
REMARK    3  A    between atoms: C8_9  and  N1_10 
ROOT
HETATM    1  C1  LIG X 999      43.307 131.313  21.711  1.00  0.00     0.013 C 
HETATM    2  C2  LIG X 999      43.679 130.425  22.436  1.00  0.00    -0.107 C 
HETATM    3  C3  LIG X 999      44.135 129.344  23.314  1.00  0.00     0.172 C 
ENDROOT
BRANCH   3   4
HETATM    4  S1  LIG X 999      42.759 128.206  23.691  1.00  0.00    -0.117 SA
BRANCH   4   5
HETATM    5  C4  LIG X 999      43.714 126.703  23.421  1.00  0.00     0.015 A 
HETATM    6  C5  LIG X 999      45.122 126.790  23.624  1.00  0.00     0.020 A 
HETATM    7  C6  LIG X 999      45.981 125.723  23.284  1.00  0.00     0.018 A 
HETATM    8  C7  LIG X 999      45.400 124.582  22.744  1.00  0.00     0.026 A 
HETATM    9  C8  LIG X 999      45.913 123.415  22.200  1.00  0.00     0.175 A 
HETATM   10  C10 LIG X 999      44.055 124.494  22.591  1.00  0.00     0.019 A 
HETATM   11  N4  LIG X 999      44.906 122.642  21.708  1.00  0.00    -0.337 N 
HETATM   12  H6  LIG X 999      44.990 121.729  21.207  1.00  0.00     0.167 HD
HETATM   13  C9  LIG X 999      43.768 123.327  21.959  1.00  0.00     0.046 A 
HETATM   14  C14 LIG X 999      42.394 123.015  21.545  1.00  0.00     0.033 C 
HETATM   15  C13 LIG X 999      41.417 123.887  21.867  1.00  0.00     0.034 C 
HETATM   16  C12 LIG X 999      41.709 125.129  22.657  1.00  0.00     0.060 C 
HETATM   17  C11 LIG X 999      43.149 125.486  22.929  1.00  0.00     0.022 A 
HETATM   18  N5  LIG X 999      40.708 125.752  23.193  1.00  0.00    -0.299 NA
HETATM   19  H7  LIG X 999      40.787 126.555  23.848  1.00  0.00     0.187 HD
BRANCH   9  20
HETATM   20  N1  LIG X 999      47.302 123.094  22.107  1.00  0.00    -0.053 NA
HETATM   21  N2  LIG X 999      47.914 123.209  21.045  1.00  0.00    -0.160 NA
HETATM   22  N3  LIG X 999      48.525 123.325  19.984  1.00  0.00     0.068 N 
ENDBRANCH   9  20
ENDBRANCH   4   5
ENDBRANCH   3   4
TORSDOF 3
