REMARK VINA RESULT:      -3.8      4.063      6.388
REMARK  5 active torsions:
REMARK  status: ('A' for Active; 'I' for Inactive)
REMARK    1  A    between atoms: C3_3  and  N1_4 
REMARK    2  A    between atoms: N1_4  and  C6_7 
REMARK    3  A    between atoms: C6_7  and  C7_8 
REMARK    4  A    between atoms: C9_10  and  C10_11 
REMARK    5  A    between atoms: C11_15  and  N4_16 
ROOT
HETATM    1  C1  LIG X 999      50.740 125.050  21.433  1.00  0.00     0.013 C 
HETATM    2  C2  LIG X 999      49.914 125.344  22.260  1.00  0.00    -0.089 C 
HETATM    3  C3  LIG X 999      48.904 125.707  23.273  1.00  0.00     0.329 C 
ENDROOT
BRANCH   3   4
HETATM    4  N1  LIG X 999      47.879 124.642  23.501  1.00  0.00    -0.061 N 
HETATM    5  C4  LIG X 999      48.525 123.523  24.232  1.00  0.00     0.273 C 
HETATM    6  C5  LIG X 999      47.414 124.111  22.194  1.00  0.00     0.273 C 
BRANCH   4   7
HETATM    7  C6  LIG X 999      46.685 125.139  24.261  1.00  0.00     0.275 C 
BRANCH   7   8
HETATM    8  C7  LIG X 999      45.981 126.322  23.624  1.00  0.00    -0.035 C 
HETATM    9  C8  LIG X 999      45.494 127.326  24.383  1.00  0.00     0.001 C 
HETATM   10  C9  LIG X 999      44.621 128.397  23.764  1.00  0.00     0.054 C 
HETATM   11  C12 LIG X 999      44.622 129.685  24.624  1.00  0.00     0.023 C 
HETATM   12  C16 LIG X 999      45.215 128.751  22.368  1.00  0.00     0.028 C 
HETATM   13  C13 LIG X 999      43.824 130.814  23.943  1.00  0.00     0.002 C 
HETATM   14  C14 LIG X 999      44.341 131.107  22.525  1.00  0.00     0.001 C 
HETATM   15  C15 LIG X 999      44.392 129.839  21.657  1.00  0.00     0.010 C 
HETATM   16  C17 LIG X 999      45.413 127.505  21.541  1.00  0.00    -0.020 C 
HETATM   17  C18 LIG X 999      45.835 126.384  22.142  1.00  0.00     0.005 C 
BRANCH  10  18
HETATM   18  C10 LIG X 999      43.216 127.819  23.683  1.00  0.00     0.182 A 
HETATM   19  N2  LIG X 999      42.092 128.522  23.947  1.00  0.00    -0.149 NA
HETATM   20  N3  LIG X 999      41.095 127.661  23.830  1.00  0.00    -0.236 N 
HETATM   21  H13 LIG X 999      40.086 127.885  23.971  1.00  0.00     0.193 HD
HETATM   22  C11 LIG X 999      41.634 126.476  23.511  1.00  0.00     0.301 A 
HETATM   23  O1  LIG X 999      42.939 126.557  23.422  1.00  0.00    -0.257 OA
BRANCH  22  24
HETATM   24  N4  LIG X 999      40.879 125.284  23.306  1.00  0.00    -0.025 NA
HETATM   25  N5  LIG X 999      41.176 124.499  22.405  1.00  0.00    -0.158 NA
HETATM   26  N6  LIG X 999      41.474 123.716  21.505  1.00  0.00     0.068 N 
ENDBRANCH  22  24
ENDBRANCH  10  18
ENDBRANCH   7   8
ENDBRANCH   4   7
ENDBRANCH   3   4
TORSDOF 5
