REMARK VINA RESULT:      -7.0      1.092      6.110
REMARK  1 active torsions:
REMARK  status: ('A' for Active; 'I' for Inactive)
REMARK    1  A    between atoms: C9_10  and  N2_11 
ROOT
HETATM    1  C1  LIG X 999      44.048 132.453  24.187  1.00  0.00     0.272 C 
HETATM    2  N1  LIG X 999      43.500 131.317  23.406  1.00  0.00    -0.067 N 
HETATM    3  C2  LIG X 999      42.684 130.467  24.302  1.00  0.00     0.272 C 
HETATM    4  C3  LIG X 999      44.618 130.525  22.800  1.00  0.00     0.276 C 
HETATM    5  C4  LIG X 999      44.563 130.806  21.348  1.00  0.00    -0.024 A 
HETATM    6  C5  LIG X 999      45.455 130.386  20.361  1.00  0.00     0.021 A 
HETATM    7  C6  LIG X 999      45.201 130.749  19.024  1.00  0.00    -0.025 A 
HETATM    8  C7  LIG X 999      46.071 130.354  17.999  1.00  0.00     0.014 A 
HETATM    9  C8  LIG X 999      45.809 130.716  16.675  1.00  0.00     0.030 A 
HETATM   10  C9  LIG X 999      44.675 131.479  16.357  1.00  0.00     0.026 A 
HETATM   11  C10 LIG X 999      43.797 131.879  17.374  1.00  0.00     0.041 A 
HETATM   12  C11 LIG X 999      44.048 131.523  18.707  1.00  0.00    -0.023 A 
HETATM   13  C12 LIG X 999      43.168 131.921  19.734  1.00  0.00     0.021 A 
HETATM   14  C13 LIG X 999      43.461 131.546  21.046  1.00  0.00    -0.024 A 
HETATM   15  C14 LIG X 999      42.675 131.830  22.266  1.00  0.00     0.276 C 
ENDROOT
BRANCH  10  16
HETATM   16  N2  LIG X 999      44.416 131.845  14.999  1.00  0.00    -0.399 N 
HETATM   17  H12 LIG X 999      43.763 131.282  14.409  1.00  0.00     0.156 HD
HETATM   18  H13 LIG X 999      44.875 132.680  14.573  1.00  0.00     0.156 HD
ENDBRANCH  10  16
TORSDOF 1
