REMARK VINA RESULT:      -8.2      1.098      1.953
REMARK  3 active torsions:
REMARK  status: ('A' for Active; 'I' for Inactive)
REMARK    1  A    between atoms: C6_6  and  C7_7 
REMARK    2  A    between atoms: C7_7  and  N1_8 
REMARK    3  A    between atoms: C8_12  and  N4_13 
ROOT
HETATM    1  N1  LIG X 999      44.422 130.195  15.143  1.00  0.00    -0.065 NA
HETATM    2  N2  LIG X 999      43.776 130.978  14.447  1.00  0.00    -0.164 NA
HETATM    3  N3  LIG X 999      43.131 131.760  13.751  1.00  0.00     0.068 N 
ENDROOT
BRANCH   1   4
HETATM    4  C7  LIG X 999      45.452 130.684  16.051  1.00  0.00     0.267 A 
HETATM    5  O1  LIG X 999      46.191 131.742  15.485  1.00  0.00    -0.314 OA
HETATM    6  C8  LIG X 999      46.875 130.519  15.657  1.00  0.00     0.349 A 
BRANCH   4   7
HETATM    7  C6  LIG X 999      45.091 130.917  17.488  1.00  0.00     0.007 A 
HETATM    8  C5  LIG X 999      43.898 131.576  17.820  1.00  0.00     0.024 A 
HETATM    9  C4  LIG X 999      43.550 131.771  19.166  1.00  0.00    -0.025 A 
HETATM   10  C3  LIG X 999      42.361 132.435  19.509  1.00  0.00     0.012 A 
HETATM   11  C11 LIG X 999      44.403 131.291  20.188  1.00  0.00    -0.026 A 
HETATM   12  C2  LIG X 999      42.025 132.623  20.853  1.00  0.00     0.001 A 
HETATM   13  C1  LIG X 999      42.868 132.150  21.861  1.00  0.00     0.001 A 
HETATM   14  C12 LIG X 999      44.054 131.485  21.534  1.00  0.00     0.012 A 
HETATM   15  C10 LIG X 999      45.589 130.623  19.847  1.00  0.00     0.013 A 
HETATM   16  C9  LIG X 999      45.926 130.434  18.504  1.00  0.00     0.013 A 
ENDBRANCH   4   7
BRANCH   6  17
HETATM   17  N4  LIG X 999      47.118 129.889  14.368  1.00  0.00    -0.077 NA
HETATM   18  N5  LIG X 999      47.558 130.543  13.423  1.00  0.00    -0.165 NA
HETATM   19  N6  LIG X 999      47.998 131.198  12.479  1.00  0.00     0.068 N 
ENDBRANCH   6  17
ENDBRANCH   1   4
TORSDOF 3
