REMARK VINA RESULT:      -5.6      3.293      5.693
REMARK  2 active torsions:
REMARK  status: ('A' for Active; 'I' for Inactive)
REMARK       I    between atoms: N1_1  and  C1_2 
REMARK    1  A    between atoms: C1_2  and  C2_4 
REMARK    2  A    between atoms: C11_13  and  O2_14 
ROOT
HETATM    1  C2  LIG X 999      43.094 131.545  19.686  1.00  0.00     0.116 C 
HETATM    2  C3  LIG X 999      43.716 131.614  21.101  1.00  0.00     0.017 C 
HETATM    3  C4  LIG X 999      44.807 130.549  21.305  1.00  0.00     0.002 C 
HETATM    4  C5  LIG X 999      45.884 130.617  20.211  1.00  0.00     0.012 C 
HETATM    5  C6  LIG X 999      45.228 130.507  18.827  1.00  0.00     0.047 C 
HETATM    6  C7  LIG X 999      46.229 130.454  17.699  1.00  0.00    -0.019 C 
HETATM    7  C8  LIG X 999      45.812 130.672  16.445  1.00  0.00    -0.004 C 
HETATM    8  C9  LIG X 999      44.419 131.101  16.185  1.00  0.00    -0.001 C 
HETATM    9  C10 LIG X 999      43.632 131.515  17.191  1.00  0.00     0.012 C 
HETATM   10  C11 LIG X 999      44.201 131.657  18.598  1.00  0.00     0.095 C 
ENDROOT
BRANCH   1  11
HETATM   11  C1  LIG X 999      42.035 132.614  19.535  1.00  0.00     0.222 C 
HETATM   12  N1  LIG X 999      41.557 132.981  18.240  1.00  0.00    -0.370 N 
HETATM   13  H1  LIG X 999      41.932 132.524  17.380  1.00  0.00     0.159 HD
HETATM   14  H2  LIG X 999      40.829 133.723  18.140  1.00  0.00     0.159 HD
HETATM   15  O1  LIG X 999      41.576 133.199  20.552  1.00  0.00    -0.273 OA
ENDBRANCH   1  11
BRANCH  10  16
HETATM   16  O2  LIG X 999      44.827 132.918  18.723  1.00  0.00    -0.384 OA
HETATM   17  H15 LIG X 999      45.094 133.236  17.823  1.00  0.00     0.211 HD
ENDBRANCH  10  16
TORSDOF 2
