REMARK VINA RESULT:      -4.4      1.373      1.819
REMARK  6 active torsions:
REMARK  status: ('A' for Active; 'I' for Inactive)
REMARK    1  A    between atoms: C8_8  and  O1_9 
REMARK    2  A    between atoms: O1_9  and  C9_10 
REMARK    3  A    between atoms: C9_10  and  C10_11 
REMARK    4  A    between atoms: C10_11  and  C11_12 
REMARK    5  A    between atoms: C11_12  and  N1_13 
REMARK    6  A    between atoms: C13_18  and  N4_19 
ROOT
HETATM    1  N1  LIG X 999      46.102 129.242  15.010  1.00  0.00    -0.116 NA
HETATM    2  N2  LIG X 999      46.773 129.889  14.205  1.00  0.00    -0.168 NA
HETATM    3  N3  LIG X 999      47.442 130.536  13.401  1.00  0.00     0.068 N 
ENDROOT
BRANCH   1   4
HETATM    4  C11 LIG X 999      45.841 129.749  16.352  1.00  0.00     0.191 C 
BRANCH   4   5
HETATM    5  C10 LIG X 999      45.193 131.136  16.286  1.00  0.00     0.051 C 
BRANCH   5   6
HETATM    6  C9  LIG X 999      44.925 131.724  17.673  1.00  0.00     0.170 C 
BRANCH   6   7
HETATM    7  O1  LIG X 999      45.740 131.076  18.629  1.00  0.00    -0.384 OA
BRANCH   7   8
HETATM    8  C8  LIG X 999      45.004 130.775  19.803  1.00  0.00     0.146 C 
HETATM    9  C7  LIG X 999      45.537 129.458  20.388  1.00  0.00     0.072 C 
HETATM   10  C5  LIG X 999      45.087 129.203  21.808  1.00  0.00    -0.047 A 
HETATM   11  C4  LIG X 999      44.611 130.246  22.640  1.00  0.00    -0.023 A 
HETATM   12  C6  LIG X 999      45.271 127.919  22.348  1.00  0.00     0.008 A 
HETATM   13  C3  LIG X 999      44.314 129.969  23.986  1.00  0.00     0.010 A 
HETATM   14  C13 LIG X 999      44.334 131.634  22.095  1.00  0.00     0.199 C 
HETATM   15  C2  LIG X 999      44.490 128.686  24.504  1.00  0.00     0.001 A 
HETATM   16  C1  LIG X 999      44.965 127.661  23.685  1.00  0.00     0.001 A 
HETATM   17  C12 LIG X 999      45.149 131.925  20.822  1.00  0.00     0.143 C 
HETATM   18 CL1  LIG X 999      46.868 132.231  21.231  1.00  0.00    -0.120 Cl
BRANCH  14  19
HETATM   19  N4  LIG X 999      42.911 131.776  21.794  1.00  0.00    -0.104 NA
HETATM   20  N5  LIG X 999      42.096 132.070  22.669  1.00  0.00    -0.167 NA
HETATM   21  N6  LIG X 999      41.281 132.363  23.543  1.00  0.00     0.068 N 
ENDBRANCH  14  19
ENDBRANCH   7   8
ENDBRANCH   6   7
ENDBRANCH   5   6
ENDBRANCH   4   5
ENDBRANCH   1   4
TORSDOF 6
