MODEL 1
REMARK VINA RESULT:      -8.0      0.000      0.000
REMARK  3 active torsions:
REMARK  status: ('A' for Active; 'I' for Inactive)
REMARK    1  A    between atoms: C3_3  and  O1_4 
REMARK    2  A    between atoms: C3_3  and  C4_5 
REMARK    3  A    between atoms: C3_3  and  C14_15 
ROOT
HETATM    1  C1  LIG X 999      43.057 131.699  13.733  1.00  0.00     0.015 C 
HETATM    2  C2  LIG X 999      43.907 131.144  14.385  1.00  0.00    -0.073 C 
HETATM    3  C3  LIG X 999      44.953 130.457  15.187  1.00  0.00     0.154 C 
ENDROOT
BRANCH   3   4
HETATM    4  O1  LIG X 999      44.786 129.070  14.983  1.00  0.00    -0.372 OA
HETATM    5  H2  LIG X 999      44.437 128.668  15.824  1.00  0.00     0.212 HD
ENDBRANCH   3   4
BRANCH   3   6
HETATM    6  C4  LIG X 999      44.761 130.787  16.681  1.00  0.00    -0.010 A 
HETATM    7  C5  LIG X 999      45.721 130.412  17.647  1.00  0.00     0.012 A 
HETATM    8  C6  LIG X 999      45.527 130.690  19.002  1.00  0.00     0.013 A 
HETATM    9  C7  LIG X 999      44.364 131.340  19.429  1.00  0.00    -0.026 A 
HETATM   10  C8  LIG X 999      44.160 131.621  20.789  1.00  0.00     0.012 A 
HETATM   11  C12 LIG X 999      43.383 131.713  18.482  1.00  0.00    -0.025 A 
HETATM   12  C9  LIG X 999      42.992 132.266  21.205  1.00  0.00     0.001 A 
HETATM   13  C10 LIG X 999      42.021 132.631  20.270  1.00  0.00     0.001 A 
HETATM   14  C11 LIG X 999      42.213 132.357  18.912  1.00  0.00     0.012 A 
HETATM   15  C13 LIG X 999      43.585 131.432  17.123  1.00  0.00     0.023 A 
ENDBRANCH   3   6
BRANCH   3  16
HETATM   16  C14 LIG X 999      46.396 130.864  14.676  1.00  0.00    -0.004 C 
HETATM   17  C15 LIG X 999      46.448 130.874  13.129  1.00  0.00     0.019 C 
HETATM   18  C16 LIG X 999      46.757 132.292  15.163  1.00  0.00     0.019 C 
HETATM   19  C17 LIG X 999      47.490 129.894  15.186  1.00  0.00     0.019 C 
ENDBRANCH   3  16
TORSDOF 3
ENDMDL
MODEL 2
REMARK VINA RESULT:      -7.2      0.669      2.114
REMARK  3 active torsions:
REMARK  status: ('A' for Active; 'I' for Inactive)
REMARK    1  A    between atoms: C3_3  and  O1_4 
REMARK    2  A    between atoms: C3_3  and  C4_5 
REMARK    3  A    between atoms: C3_3  and  C14_15 
ROOT
HETATM    1  C1  LIG X 999      43.011 131.693  13.555  1.00  0.00     0.015 C 
HETATM    2  C2  LIG X 999      43.791 131.181  14.321  1.00  0.00    -0.073 C 
HETATM    3  C3  LIG X 999      44.751 130.548  15.263  1.00  0.00     0.154 C 
ENDROOT
BRANCH   3   4
HETATM    4  O1  LIG X 999      44.639 129.151  15.090  1.00  0.00    -0.372 OA
HETATM    5  H2  LIG X 999      45.494 128.729  15.374  1.00  0.00     0.212 HD
ENDBRANCH   3   4
BRANCH   3   6
HETATM    6  C4  LIG X 999      44.380 130.921  16.712  1.00  0.00    -0.010 A 
HETATM    7  C5  LIG X 999      43.182 131.607  17.011  1.00  0.00     0.012 A 
HETATM    8  C6  LIG X 999      42.866 131.967  18.323  1.00  0.00     0.013 A 
HETATM    9  C7  LIG X 999      43.744 131.662  19.369  1.00  0.00    -0.026 A 
HETATM   10  C8  LIG X 999      43.435 132.022  20.691  1.00  0.00     0.012 A 
HETATM   11  C12 LIG X 999      44.955 130.988  19.091  1.00  0.00    -0.025 A 
HETATM   12  C9  LIG X 999      44.323 131.717  21.726  1.00  0.00     0.001 A 
HETATM   13  C10 LIG X 999      45.521 131.054  21.452  1.00  0.00     0.001 A 
HETATM   14  C11 LIG X 999      45.840 130.689  20.139  1.00  0.00     0.012 A 
HETATM   15  C13 LIG X 999      45.265 130.629  17.772  1.00  0.00     0.023 A 
ENDBRANCH   3   6
BRANCH   3  16
HETATM   16  C14 LIG X 999      46.235 130.975  14.907  1.00  0.00    -0.004 C 
HETATM   17  C15 LIG X 999      46.519 132.420  15.385  1.00  0.00     0.019 C 
HETATM   18  C16 LIG X 999      47.249 130.041  15.619  1.00  0.00     0.019 C 
HETATM   19  C17 LIG X 999      46.512 130.909  13.385  1.00  0.00     0.019 C 
ENDBRANCH   3  16
TORSDOF 3
ENDMDL
MODEL 3
REMARK VINA RESULT:      -6.5      2.922      6.874
REMARK  3 active torsions:
REMARK  status: ('A' for Active; 'I' for Inactive)
REMARK    1  A    between atoms: C3_3  and  O1_4 
REMARK    2  A    between atoms: C3_3  and  C4_5 
REMARK    3  A    between atoms: C3_3  and  C14_15 
ROOT
HETATM    1  C1  LIG X 999      41.762 132.323  23.929  1.00  0.00     0.015 C 
HETATM    2  C2  LIG X 999      42.720 131.806  23.409  1.00  0.00    -0.073 C 
HETATM    3  C3  LIG X 999      43.902 131.172  22.770  1.00  0.00     0.154 C 
ENDROOT
BRANCH   3   4
HETATM    4  O1  LIG X 999      45.046 131.834  23.266  1.00  0.00    -0.372 OA
HETATM    5  H2  LIG X 999      44.839 132.180  24.176  1.00  0.00     0.212 HD
ENDBRANCH   3   4
BRANCH   3   6
HETATM    6  C4  LIG X 999      43.823 131.350  21.240  1.00  0.00    -0.010 A 
HETATM    7  C5  LIG X 999      42.658 131.844  20.616  1.00  0.00     0.012 A 
HETATM    8  C6  LIG X 999      42.584 131.977  19.227  1.00  0.00     0.013 A 
HETATM    9  C7  LIG X 999      43.670 131.607  18.425  1.00  0.00    -0.026 A 
HETATM   10  C8  LIG X 999      43.603 131.734  17.028  1.00  0.00     0.012 A 
HETATM   11  C12 LIG X 999      44.842 131.096  19.027  1.00  0.00    -0.025 A 
HETATM   12  C9  LIG X 999      44.691 131.356  16.237  1.00  0.00     0.001 A 
HETATM   13  C10 LIG X 999      45.849 130.847  16.832  1.00  0.00     0.001 A 
HETATM   14  C11 LIG X 999      45.927 130.717  18.222  1.00  0.00     0.012 A 
HETATM   15  C13 LIG X 999      44.909 130.967  20.422  1.00  0.00     0.023 A 
ENDBRANCH   3   6
BRANCH   3  16
HETATM   16  C14 LIG X 999      43.996 129.643  23.179  1.00  0.00    -0.004 C 
HETATM   17  C15 LIG X 999      44.529 129.495  24.625  1.00  0.00     0.019 C 
HETATM   18  C16 LIG X 999      42.592 128.986  23.129  1.00  0.00     0.019 C 
HETATM   19  C17 LIG X 999      44.932 128.845  22.239  1.00  0.00     0.019 C 
ENDBRANCH   3  16
TORSDOF 3
ENDMDL
MODEL 4
REMARK VINA RESULT:      -6.2      2.043      6.234
REMARK  3 active torsions:
REMARK  status: ('A' for Active; 'I' for Inactive)
REMARK    1  A    between atoms: C3_3  and  O1_4 
REMARK    2  A    between atoms: C3_3  and  C4_5 
REMARK    3  A    between atoms: C3_3  and  C14_15 
ROOT
HETATM    1  C1  LIG X 999      46.909 133.047  21.601  1.00  0.00     0.015 C 
HETATM    2  C2  LIG X 999      46.095 132.210  21.299  1.00  0.00    -0.073 C 
HETATM    3  C3  LIG X 999      45.093 131.176  20.929  1.00  0.00     0.154 C 
ENDROOT
BRANCH   3   4
HETATM    4  O1  LIG X 999      45.668 129.920  21.222  1.00  0.00    -0.372 OA
HETATM    5  H2  LIG X 999      45.137 129.492  21.947  1.00  0.00     0.212 HD
ENDBRANCH   3   4
BRANCH   3   6
HETATM    6  C4  LIG X 999      44.787 131.266  19.421  1.00  0.00    -0.010 A 
HETATM    7  C5  LIG X 999      43.568 131.799  18.948  1.00  0.00     0.012 A 
HETATM    8  C6  LIG X 999      43.286 131.852  17.581  1.00  0.00     0.013 A 
HETATM    9  C7  LIG X 999      44.210 131.362  16.651  1.00  0.00    -0.026 A 
HETATM   10  C8  LIG X 999      43.933 131.409  15.275  1.00  0.00     0.012 A 
HETATM   11  C12 LIG X 999      45.431 130.811  17.102  1.00  0.00    -0.025 A 
HETATM   12  C9  LIG X 999      44.861 130.912  14.356  1.00  0.00     0.001 A 
HETATM   13  C10 LIG X 999      46.067 130.364  14.802  1.00  0.00     0.001 A 
HETATM   14  C11 LIG X 999      46.354 130.313  16.170  1.00  0.00     0.012 A 
HETATM   15  C13 LIG X 999      45.707 130.763  18.476  1.00  0.00     0.023 A 
ENDBRANCH   3   6
BRANCH   3  16
HETATM   16  C14 LIG X 999      43.783 131.339  21.806  1.00  0.00    -0.004 C 
HETATM   17  C15 LIG X 999      43.144 129.959  22.100  1.00  0.00     0.019 C 
HETATM   18  C16 LIG X 999      44.125 131.994  23.169  1.00  0.00     0.019 C 
HETATM   19  C17 LIG X 999      42.719 132.220  21.105  1.00  0.00     0.019 C 
ENDBRANCH   3  16
TORSDOF 3
ENDMDL
MODEL 5
REMARK VINA RESULT:      -6.1      2.038      5.684
REMARK  3 active torsions:
REMARK  status: ('A' for Active; 'I' for Inactive)
REMARK    1  A    between atoms: C3_3  and  O1_4 
REMARK    2  A    between atoms: C3_3  and  C4_5 
REMARK    3  A    between atoms: C3_3  and  C14_15 
ROOT
HETATM    1  C1  LIG X 999      41.834 131.755  18.714  1.00  0.00     0.015 C 
HETATM    2  C2  LIG X 999      43.033 131.840  18.823  1.00  0.00    -0.073 C 
HETATM    3  C3  LIG X 999      44.509 131.949  18.957  1.00  0.00     0.154 C 
ENDROOT
BRANCH   3   4
HETATM    4  O1  LIG X 999      44.826 133.325  18.925  1.00  0.00    -0.372 OA
HETATM    5  H2  LIG X 999      45.792 133.420  18.703  1.00  0.00     0.212 HD
ENDBRANCH   3   4
BRANCH   3   6
HETATM    6  C4  LIG X 999      45.192 131.233  17.775  1.00  0.00    -0.010 A 
HETATM    7  C5  LIG X 999      45.455 129.846  17.808  1.00  0.00     0.012 A 
HETATM    8  C6  LIG X 999      46.099 129.209  16.745  1.00  0.00     0.013 A 
HETATM    9  C7  LIG X 999      46.509 129.943  15.626  1.00  0.00    -0.026 A 
HETATM   10  C8  LIG X 999      47.159 129.311  14.555  1.00  0.00     0.012 A 
HETATM   11  C12 LIG X 999      46.269 131.335  15.578  1.00  0.00    -0.025 A 
HETATM   12  C9  LIG X 999      47.569 130.055  13.445  1.00  0.00     0.001 A 
HETATM   13  C10 LIG X 999      47.335 131.432  13.398  1.00  0.00     0.001 A 
HETATM   14  C11 LIG X 999      46.687 132.073  14.460  1.00  0.00     0.012 A 
HETATM   15  C13 LIG X 999      45.620 131.967  16.648  1.00  0.00     0.023 A 
ENDBRANCH   3   6
BRANCH   3  16
HETATM   16  C14 LIG X 999      44.981 131.363  20.352  1.00  0.00    -0.004 C 
HETATM   17  C15 LIG X 999      45.984 132.321  21.039  1.00  0.00     0.019 C 
HETATM   18  C16 LIG X 999      43.767 131.197  21.304  1.00  0.00     0.019 C 
HETATM   19  C17 LIG X 999      45.663 129.981  20.202  1.00  0.00     0.019 C 
ENDBRANCH   3  16
TORSDOF 3
ENDMDL
