REMARK VINA RESULT:      -7.8      4.317      6.216
REMARK  3 active torsions:
REMARK  status: ('A' for Active; 'I' for Inactive)
REMARK    1  A    between atoms: C6_6  and  C7_7 
REMARK    2  A    between atoms: C7_7  and  C8_9 
REMARK    3  A    between atoms: C8_9  and  N1_10 
ROOT
HETATM    1  N1  LIG X 999      42.942 131.013  21.595  1.00  0.00    -0.108 NA
HETATM    2  N2  LIG X 999      43.731 130.238  22.136  1.00  0.00    -0.167 NA
HETATM    3  N3  LIG X 999      44.520 129.463  22.675  1.00  0.00     0.068 N 
ENDROOT
BRANCH   1   4
HETATM    4  C8  LIG X 999      43.417 132.139  20.800  1.00  0.00     0.272 C 
BRANCH   4   5
HETATM    5  C7  LIG X 999      43.051 131.965  19.347  1.00  0.00     0.181 C 
HETATM    6  O1  LIG X 999      41.883 132.260  18.970  1.00  0.00    -0.290 OA
BRANCH   5   7
HETATM    7  C6  LIG X 999      44.040 131.480  18.347  1.00  0.00     0.012 A 
HETATM    8  C5  LIG X 999      43.854 131.693  16.966  1.00  0.00     0.027 A 
HETATM    9  C4  LIG X 999      44.796 131.229  16.035  1.00  0.00    -0.025 A 
HETATM   10  C3  LIG X 999      44.609 131.443  14.660  1.00  0.00     0.012 A 
HETATM   11  C11 LIG X 999      45.945 130.538  16.484  1.00  0.00    -0.026 A 
HETATM   12  C2  LIG X 999      45.554 130.976  13.742  1.00  0.00     0.001 A 
HETATM   13  C1  LIG X 999      46.689 130.293  14.187  1.00  0.00     0.001 A 
HETATM   14  C12 LIG X 999      46.887 130.074  15.553  1.00  0.00     0.012 A 
HETATM   15  C10 LIG X 999      46.131 130.322  17.856  1.00  0.00     0.013 A 
HETATM   16  C9  LIG X 999      45.189 130.788  18.776  1.00  0.00     0.016 A 
ENDBRANCH   5   7
ENDBRANCH   4   5
ENDBRANCH   1   4
TORSDOF 3
