REMARK VINA RESULT:      -8.6      1.866      2.676
REMARK  3 active torsions:
REMARK  status: ('A' for Active; 'I' for Inactive)
REMARK    1  A    between atoms: C3_3  and  S1_4 
REMARK    2  A    between atoms: S1_4  and  C4_7 
REMARK    3  A    between atoms: C12_15  and  N1_16 
ROOT
HETATM    1  C1  LIG X 999      48.136 129.500  13.745  1.00  0.00     0.013 C 
HETATM    2  C2  LIG X 999      47.202 129.578  14.503  1.00  0.00    -0.102 C 
HETATM    3  C3  LIG X 999      46.068 129.673  15.427  1.00  0.00     0.233 C 
ENDROOT
BRANCH   3   4
HETATM    4  S1  LIG X 999      45.423 131.339  15.471  1.00  0.00     0.159 S 
HETATM    5  O1  LIG X 999      44.290 131.429  14.486  1.00  0.00    -0.227 OA
HETATM    6  O2  LIG X 999      46.494 132.315  15.068  1.00  0.00    -0.227 OA
BRANCH   4   7
HETATM    7  C4  LIG X 999      44.802 131.751  17.106  1.00  0.00     0.116 C 
HETATM    8  C5  LIG X 999      45.403 130.804  18.149  1.00  0.00     0.059 C 
HETATM    9  C6  LIG X 999      44.817 131.026  19.520  1.00  0.00    -0.049 A 
HETATM   10  C7  LIG X 999      45.542 130.581  20.638  1.00  0.00     0.007 A 
HETATM   11  C11 LIG X 999      43.535 131.607  19.700  1.00  0.00    -0.019 A 
HETATM   12  C8  LIG X 999      45.039 130.757  21.927  1.00  0.00     0.001 A 
HETATM   13  C9  LIG X 999      43.808 131.380  22.114  1.00  0.00     0.001 A 
HETATM   14  C10 LIG X 999      43.065 131.812  21.014  1.00  0.00     0.010 A 
HETATM   15  C12 LIG X 999      42.724 132.134  18.518  1.00  0.00     0.252 C 
HETATM   16  C13 LIG X 999      43.275 131.655  17.158  1.00  0.00     0.060 C 
BRANCH  15  17
HETATM   17  N1  LIG X 999      41.316 131.734  18.636  1.00  0.00     0.087 N 
HETATM   18  H12 LIG X 999      41.239 130.981  19.358  1.00  0.00     0.313 HD
HETATM   19  H13 LIG X 999      40.765 132.531  19.028  1.00  0.00     0.313 HD
ENDBRANCH  15  17
ENDBRANCH   4   7
ENDBRANCH   3   4
TORSDOF 3
