REMARK VINA RESULT:      -4.3      2.240      6.477
REMARK  5 active torsions:
REMARK  status: ('A' for Active; 'I' for Inactive)
REMARK    1  A    between atoms: C3_3  and  C4_4 
REMARK    2  A    between atoms: C4_4  and  S1_5 
REMARK    3  A    between atoms: S1_5  and  C5_6 
REMARK    4  A    between atoms: C6_7  and  N1_8 
REMARK    5  A    between atoms: C10_12  and  N2_13 
ROOT
HETATM    1  C1  LIG X 999      46.818 131.216  14.309  1.00  0.00     0.112 C 
HETATM    2  C2  LIG X 999      46.134 131.142  15.599  1.00  0.00    -0.110 C 
HETATM    3  C3  LIG X 999      45.551 131.083  16.654  1.00  0.00    -0.097 C 
ENDROOT
BRANCH   3   4
HETATM    4  C4  LIG X 999      44.821 131.009  17.922  1.00  0.00     0.173 C 
BRANCH   4   5
HETATM    5  S1  LIG X 999      45.984 130.861  19.322  1.00  0.00    -0.115 SA
BRANCH   5   6
HETATM    6  C5  LIG X 999      44.695 130.803  20.598  1.00  0.00     0.038 A 
HETATM    7  C6  LIG X 999      43.763 131.859  20.695  1.00  0.00     0.043 A 
HETATM    8  C7  LIG X 999      42.796 131.838  21.702  1.00  0.00     0.031 A 
HETATM    9  C8  LIG X 999      42.740 130.797  22.624  1.00  0.00     0.017 A 
HETATM   10  C9  LIG X 999      43.653 129.729  22.563  1.00  0.00     0.002 A 
HETATM   11  C10 LIG X 999      43.620 128.660  23.509  1.00  0.00     0.045 A 
HETATM   12  C14 LIG X 999      44.621 129.713  21.507  1.00  0.00    -0.004 A 
HETATM   13  C11 LIG X 999      44.526 127.602  23.344  1.00  0.00     0.003 A 
HETATM   14  C12 LIG X 999      45.418 127.578  22.320  1.00  0.00    -0.021 A 
HETATM   15  C18 LIG X 999      44.689 126.389  24.184  1.00  0.00     0.278 C 
HETATM   16  C13 LIG X 999      45.489 128.604  21.387  1.00  0.00     0.023 A 
HETATM   17  C15 LIG X 999      46.246 126.354  22.366  1.00  0.00     0.276 C 
HETATM   18  N3  LIG X 999      45.905 125.690  23.661  1.00  0.00    -0.067 N 
HETATM   19  C16 LIG X 999      45.635 124.249  23.457  1.00  0.00     0.272 C 
HETATM   20  C17 LIG X 999      47.028 125.839  24.619  1.00  0.00     0.272 C 
BRANCH   7  21
HETATM   21  N1  LIG X 999      43.779 132.966  19.781  1.00  0.00    -0.398 N 
HETATM   22  H6  LIG X 999      43.669 132.806  18.755  1.00  0.00     0.156 HD
HETATM   23  H7  LIG X 999      43.910 133.952  20.094  1.00  0.00     0.156 HD
ENDBRANCH   7  21
BRANCH  11  24
HETATM   24  N2  LIG X 999      42.715 128.642  24.625  1.00  0.00    -0.398 N 
HETATM   25  H10 LIG X 999      42.715 129.377  25.363  1.00  0.00     0.156 HD
HETATM   26  H11 LIG X 999      42.093 127.821  24.794  1.00  0.00     0.156 HD
ENDBRANCH  11  24
ENDBRANCH   5   6
ENDBRANCH   4   5
ENDBRANCH   3   4
TORSDOF 5
