REMARK VINA RESULT:      -7.4      1.905      3.739
REMARK  1 active torsions:
REMARK  status: ('A' for Active; 'I' for Inactive)
REMARK    1  A    between atoms: C11_13  and  N2_14 
ROOT
HETATM    1  N2  LIG X 999      46.205 130.505  16.131  1.00  0.00    -0.053 NA
HETATM    2  N3  LIG X 999      46.126 130.747  14.927  1.00  0.00    -0.160 NA
HETATM    3  N4  LIG X 999      46.058 130.983  13.722  1.00  0.00     0.068 N 
ENDROOT
BRANCH   1   4
HETATM    4  C11 LIG X 999      45.227 130.952  17.077  1.00  0.00     0.175 A 
HETATM    5  C10 LIG X 999      45.325 130.944  18.474  1.00  0.00     0.026 A 
HETATM    6  C5  LIG X 999      44.147 131.464  18.903  1.00  0.00     0.017 A 
HETATM    7  C9  LIG X 999      46.294 130.550  19.403  1.00  0.00     0.016 A 
HETATM    8  C4  LIG X 999      43.372 131.771  17.837  1.00  0.00     0.046 A 
HETATM    9  C6  LIG X 999      43.801 131.647  20.223  1.00  0.00     0.005 A 
HETATM   10  C3  LIG X 999      42.031 132.354  18.024  1.00  0.00     0.033 A 
HETATM   11  N5  LIG X 999      44.023 131.461  16.696  1.00  0.00    -0.337 N 
HETATM   12  C2  LIG X 999      41.596 132.574  19.285  1.00  0.00     0.034 A 
HETATM   13  C1  LIG X 999      42.457 132.232  20.471  1.00  0.00     0.059 A 
HETATM   14  N1  LIG X 999      42.041 132.443  21.680  1.00  0.00    -0.300 NA
HETATM   15  H1  LIG X 999      41.101 132.854  21.874  1.00  0.00     0.187 HD
HETATM   16  H7  LIG X 999      43.673 131.587  15.720  1.00  0.00     0.167 HD
HETATM   17  C7  LIG X 999      44.748 131.263  21.193  1.00  0.00     0.015 A 
HETATM   18  C8  LIG X 999      45.993 130.715  20.779  1.00  0.00     0.002 A 
ENDBRANCH   1   4
TORSDOF 1
