REMARK VINA RESULT:      -3.5      4.949      7.148
REMARK  3 active torsions:
REMARK  status: ('A' for Active; 'I' for Inactive)
REMARK    1  A    between atoms: C2_2  and  N1_3 
REMARK    2  A    between atoms: C3_6  and  O1_7 
REMARK    3  A    between atoms: O1_7  and  C4_8 
REMARK       I    between atoms: C4_8  and  N4_10 
ROOT
HETATM    1  N1  LIG X 999      45.857 130.905  20.334  1.00  0.00    -0.070 NA
HETATM    2  N2  LIG X 999      45.739 130.805  19.112  1.00  0.00    -0.162 NA
HETATM    3  N3  LIG X 999      45.627 130.711  17.891  1.00  0.00     0.068 N 
ENDROOT
BRANCH   1   4
HETATM    4  C2  LIG X 999      45.349 129.935  21.265  1.00  0.00     0.128 A 
HETATM    5  C1  LIG X 999      45.756 128.604  21.096  1.00  0.00     0.049 A 
HETATM    6  C13 LIG X 999      45.297 127.597  21.951  1.00  0.00    -0.023 A 
HETATM    7  C8  LIG X 999      44.415 127.927  23.015  1.00  0.00    -0.022 A 
HETATM    8  C12 LIG X 999      45.708 126.261  21.770  1.00  0.00     0.021 A 
HETATM    9  C7  LIG X 999      44.015 129.257  23.191  1.00  0.00     0.052 A 
HETATM   10  C9  LIG X 999      43.962 126.919  23.888  1.00  0.00     0.021 A 
HETATM   11  C3  LIG X 999      44.464 130.268  22.321  1.00  0.00     0.113 A 
HETATM   12  C10 LIG X 999      44.384 125.607  23.671  1.00  0.00    -0.024 A 
HETATM   13  C11 LIG X 999      45.226 125.289  22.649  1.00  0.00    -0.024 A 
HETATM   14  C17 LIG X 999      44.057 124.404  24.466  1.00  0.00     0.276 C 
HETATM   15  C14 LIG X 999      45.538 123.844  22.664  1.00  0.00     0.276 C 
HETATM   16  N5  LIG X 999      44.651 123.252  23.716  1.00  0.00    -0.067 N 
HETATM   17  C15 LIG X 999      43.576 122.451  23.081  1.00  0.00     0.272 C 
HETATM   18  C16 LIG X 999      45.429 122.380  24.625  1.00  0.00     0.272 C 
BRANCH  11  19
HETATM   19  O1  LIG X 999      44.085 131.603  22.525  1.00  0.00    -0.259 OA
BRANCH  19  20
HETATM   20  C4  LIG X 999      42.779 132.097  22.393  1.00  0.00     0.367 C 
HETATM   21  O2  LIG X 999      42.011 132.135  23.395  1.00  0.00    -0.238 OA
HETATM   22  N4  LIG X 999      42.300 132.521  21.106  1.00  0.00    -0.336 N 
HETATM   23  C5  LIG X 999      43.214 132.516  19.962  1.00  0.00     0.154 C 
HETATM   24  C6  LIG X 999      40.914 132.974  20.957  1.00  0.00     0.154 C 
ENDBRANCH  19  20
ENDBRANCH  11  19
ENDBRANCH   1   4
TORSDOF 3
