REMARK VINA RESULT:      -7.1      2.903      6.978
REMARK  7 active torsions:
REMARK  status: ('A' for Active; 'I' for Inactive)
REMARK    1  A    between atoms: S1_2  and  C1_3 
REMARK    2  A    between atoms: C1_3  and  N2_11 
REMARK    3  A    between atoms: N1_4  and  C2_6 
REMARK    4  A    between atoms: C2_6  and  C3_7 
REMARK    5  A    between atoms: C3_7  and  C4_8 
REMARK    6  A    between atoms: C4_8  and  S2_9 
REMARK    7  A    between atoms: N2_11  and  C5_14 
ROOT
HETATM    1  N2  LIG X 999      43.634 131.709  16.841  1.00  0.00     0.006 N 
HETATM    2  H10 LIG X 999      43.364 132.689  16.588  1.00  0.00     0.293 HD
HETATM    3  H11 LIG X 999      42.813 131.093  16.639  1.00  0.00     0.293 HD
ENDROOT
BRANCH   1   4
HETATM    4  C1  LIG X 999      44.766 131.298  16.048  1.00  0.00     0.240 C 
HETATM    5  N1  LIG X 999      45.508 132.194  15.470  1.00  0.00    -0.365 N 
HETATM    6  H2  LIG X 999      45.231 133.185  15.533  1.00  0.00     0.161 HD
BRANCH   4   7
HETATM    7  S1  LIG X 999      45.122 129.530  15.910  1.00  0.00    -0.100 SA
HETATM    8  H1  LIG X 999      44.241 129.386  14.823  1.00  0.00     0.110 HD
ENDBRANCH   4   7
BRANCH   5   9
HETATM    9  C2  LIG X 999      46.752 131.898  14.783  1.00  0.00     0.122 C 
BRANCH   9  10
HETATM   10  C3  LIG X 999      46.494 131.248  13.415  1.00  0.00     0.029 C 
BRANCH  10  11
HETATM   11  C4  LIG X 999      47.791 130.775  12.749  1.00  0.00     0.072 C 
BRANCH  11  12
HETATM   12  S2  LIG X 999      48.494 129.366  13.658  1.00  0.00    -0.182 SA
HETATM   13  H9  LIG X 999      48.793 130.144  14.793  1.00  0.00     0.101 HD
ENDBRANCH  11  12
ENDBRANCH  10  11
ENDBRANCH   9  10
ENDBRANCH   5   9
ENDBRANCH   1   4
BRANCH   1  14
HETATM   14  C5  LIG X 999      43.971 131.603  18.239  1.00  0.00     0.141 A 
HETATM   15  C6  LIG X 999      45.221 131.097  18.635  1.00  0.00     0.038 A 
HETATM   16  C7  LIG X 999      45.524 130.928  19.988  1.00  0.00     0.014 A 
HETATM   17  C8  LIG X 999      44.579 131.255  20.969  1.00  0.00    -0.026 A 
HETATM   18  C9  LIG X 999      44.869 131.078  22.331  1.00  0.00     0.012 A 
HETATM   19  C13 LIG X 999      43.316 131.764  20.583  1.00  0.00    -0.024 A 
HETATM   20  C10 LIG X 999      43.916 131.402  23.300  1.00  0.00     0.001 A 
HETATM   21  C11 LIG X 999      42.668 131.904  22.919  1.00  0.00     0.001 A 
HETATM   22  C12 LIG X 999      42.367 132.086  21.566  1.00  0.00     0.012 A 
HETATM   23  C14 LIG X 999      43.021 131.936  19.222  1.00  0.00     0.049 A 
ENDBRANCH   1  14
TORSDOF 7
