REMARK VINA RESULT:      -5.5      2.091      5.094
REMARK  1 active torsions:
REMARK  status: ('A' for Active; 'I' for Inactive)
REMARK    1  A    between atoms: C4_4  and  N1_5 
ROOT
HETATM    1  C1  LIG X 999      45.868 130.472  19.922  1.00  0.00     0.049 C 
HETATM    2  C2  LIG X 999      44.538 130.855  20.520  1.00  0.00    -0.045 C 
HETATM    3  C3  LIG X 999      43.815 131.844  19.832  1.00  0.00     0.057 C 
HETATM    4  C4  LIG X 999      42.719 132.458  20.433  1.00  0.00     0.122 C 
HETATM    5  N2  LIG X 999      42.372 132.122  21.697  1.00  0.00    -0.231 NA
HETATM    6  C5  LIG X 999      43.007 131.142  22.388  1.00  0.00     0.070 C 
HETATM    7  C6  LIG X 999      42.627 130.910  23.710  1.00  0.00     0.033 C 
HETATM    8  C7  LIG X 999      43.251 129.924  24.462  1.00  0.00     0.014 C 
HETATM    9  C8  LIG X 999      44.194 129.078  23.872  1.00  0.00    -0.025 C 
HETATM   10  C9  LIG X 999      44.733 128.022  24.625  1.00  0.00     0.012 C 
HETATM   11  C10 LIG X 999      45.573 127.087  24.025  1.00  0.00     0.001 C 
HETATM   12  C11 LIG X 999      45.847 127.173  22.663  1.00  0.00     0.001 C 
HETATM   13  C12 LIG X 999      45.330 128.227  21.905  1.00  0.00     0.013 C 
HETATM   14  C13 LIG X 999      44.562 129.253  22.505  1.00  0.00    -0.013 C 
HETATM   15  C14 LIG X 999      44.054 130.387  21.786  1.00  0.00     0.010 C 
ENDROOT
BRANCH   4  16
HETATM   16  N1  LIG X 999      41.997 133.483  19.748  1.00  0.00    -0.384 N 
HETATM   17  H5  LIG X 999      40.978 133.631  19.921  1.00  0.00     0.157 HD
HETATM   18  H6  LIG X 999      42.485 134.103  19.064  1.00  0.00     0.157 HD
ENDBRANCH   4  16
TORSDOF 1
