REMARK VINA RESULT:      -7.1      0.951      2.754
REMARK  1 active torsions:
REMARK  status: ('A' for Active; 'I' for Inactive)
REMARK    1  A    between atoms: N1_2  and  C1_3 
ROOT
HETATM    1  C1  LIG X 999      43.318 131.223  23.112  1.00  0.00     0.120 C 
HETATM    2  C2  LIG X 999      42.399 131.954  22.359  1.00  0.00     0.057 C 
HETATM    3  C3  LIG X 999      42.623 132.184  20.994  1.00  0.00    -0.045 C 
HETATM    4  C4  LIG X 999      41.749 133.231  20.346  1.00  0.00     0.049 C 
HETATM    5  C5  LIG X 999      43.727 131.541  20.348  1.00  0.00     0.008 C 
HETATM    6  C6  LIG X 999      43.951 131.509  18.931  1.00  0.00    -0.013 C 
HETATM    7  C7  LIG X 999      42.935 131.751  17.974  1.00  0.00     0.013 C 
HETATM    8  C8  LIG X 999      43.219 131.764  16.607  1.00  0.00     0.001 C 
HETATM    9  C9  LIG X 999      44.505 131.488  16.153  1.00  0.00     0.001 C 
HETATM   10  C10 LIG X 999      45.502 131.141  17.062  1.00  0.00     0.012 C 
HETATM   11  C11 LIG X 999      45.227 131.109  18.439  1.00  0.00    -0.025 C 
HETATM   12  C12 LIG X 999      46.199 130.628  19.317  1.00  0.00     0.014 C 
HETATM   13  C13 LIG X 999      45.914 130.482  20.667  1.00  0.00     0.031 C 
HETATM   14  C14 LIG X 999      44.692 130.919  21.192  1.00  0.00     0.045 C 
HETATM   15  N2  LIG X 999      44.452 130.761  22.526  1.00  0.00    -0.341 N 
HETATM   16  H12 LIG X 999      45.156 130.267  23.123  1.00  0.00     0.167 HD
ENDROOT
BRANCH   1  17
HETATM   17  N1  LIG X 999      43.120 131.019  24.378  1.00  0.00    -0.284 NA
HETATM   18  H1  LIG X 999      43.702 131.472  25.119  1.00  0.00     0.188 HD
ENDBRANCH   1  17
TORSDOF 1
