REMARK VINA RESULT:      -5.0      6.025      7.205
REMARK  4 active torsions:
REMARK  status: ('A' for Active; 'I' for Inactive)
REMARK    1  A    between atoms: C1_1  and  C2_6 
REMARK    2  A    between atoms: N1_2  and  N2_3 
REMARK    3  A    between atoms: C2_6  and  C3_8 
REMARK    4  A    between atoms: C11_16  and  N4_17 
ROOT
HETATM    1  N4  LIG X 999      41.784 124.971  22.577  1.00  0.00    -0.105 NA
HETATM    2  N5  LIG X 999      40.784 124.266  22.711  1.00  0.00    -0.167 NA
HETATM    3  N6  LIG X 999      39.786 123.560  22.843  1.00  0.00     0.068 N 
ENDROOT
BRANCH   1   4
HETATM    4  C11 LIG X 999      42.598 125.365  23.725  1.00  0.00     0.179 C 
HETATM    5  C10 LIG X 999      43.081 126.795  23.559  1.00  0.00    -0.024 A 
HETATM    6  C5  LIG X 999      44.381 127.089  23.077  1.00  0.00    -0.049 A 
HETATM    7  C9  LIG X 999      42.190 127.850  23.822  1.00  0.00     0.010 A 
HETATM    8  C4  LIG X 999      45.423 126.010  22.888  1.00  0.00     0.051 C 
HETATM    9  C6  LIG X 999      44.761 128.428  22.888  1.00  0.00     0.007 A 
HETATM   10  C3  LIG X 999      44.813 124.605  22.765  1.00  0.00     0.068 C 
HETATM   11  C12 LIG X 999      43.770 124.384  23.876  1.00  0.00     0.048 C 
HETATM   12  C7  LIG X 999      43.862 129.463  23.148  1.00  0.00     0.001 A 
HETATM   13  C8  LIG X 999      42.580 129.176  23.617  1.00  0.00     0.001 A 
BRANCH  10  14
HETATM   14  C2  LIG X 999      45.906 123.559  22.816  1.00  0.00     0.172 C 
HETATM   15  O1  LIG X 999      46.328 123.148  23.932  1.00  0.00    -0.291 OA
BRANCH  14  16
HETATM   16  C1  LIG X 999      46.548 123.051  21.593  1.00  0.00     0.190 C 
HETATM   17  N1  LIG X 999      47.601 123.625  21.102  1.00  0.00    -0.165 NA
BRANCH  17  18
HETATM   18  N2  LIG X 999      48.228 123.149  19.941  1.00  0.00    -0.177 N 
HETATM   19  H2  LIG X 999      47.704 122.574  19.244  1.00  0.00     0.214 HD
HETATM   20  N3  LIG X 999      49.450 123.419  19.732  1.00  0.00    -0.031 N 
ENDBRANCH  17  18
ENDBRANCH  14  16
ENDBRANCH  10  14
ENDBRANCH   1   4
TORSDOF 4
