REMARK VINA RESULT:      -6.5      5.270      8.133
REMARK  8 active torsions:
REMARK  status: ('A' for Active; 'I' for Inactive)
REMARK    1  A    between atoms: O1_2  and  C1_3 
REMARK    2  A    between atoms: C1_3  and  C15_19 
REMARK    3  A    between atoms: N1_4  and  C2_5 
REMARK    4  A    between atoms: C2_5  and  C3_6 
REMARK    5  A    between atoms: C3_6  and  C4_7 
REMARK    6  A    between atoms: C4_7  and  O2_8 
REMARK    7  A    between atoms: O2_8  and  C5_9 
REMARK    8  A    between atoms: C15_19  and  C16_20 
ROOT
HETATM    1  C4  LIG X 999      46.096 132.975  20.950  1.00  0.00     0.177 C 
ENDROOT
BRANCH   1   2
HETATM    2  C3  LIG X 999      45.722 131.511  20.689  1.00  0.00     0.048 C 
BRANCH   2   3
HETATM    3  C2  LIG X 999      44.762 131.365  19.499  1.00  0.00     0.153 C 
BRANCH   3   4
HETATM    4  N1  LIG X 999      45.463 131.486  18.221  1.00  0.00    -0.271 NA
HETATM    5  C1  LIG X 999      44.907 131.707  17.062  1.00  0.00     0.132 C 
BRANCH   5   6
HETATM    6  O1  LIG X 999      43.523 131.835  16.912  1.00  0.00    -0.348 OA
HETATM    7  H1  LIG X 999      43.087 132.390  16.187  1.00  0.00     0.219 HD
ENDBRANCH   5   6
BRANCH   5   8
HETATM    8  C15 LIG X 999      45.775 131.849  15.843  1.00  0.00     0.089 C 
BRANCH   8   9
HETATM    9  C16 LIG X 999      45.498 130.789  14.755  1.00  0.00    -0.015 C 
HETATM   10  C17 LIG X 999      46.538 130.838  13.629  1.00  0.00     0.010 C 
HETATM   11  C18 LIG X 999      45.387 129.374  15.338  1.00  0.00     0.010 C 
ENDBRANCH   8   9
ENDBRANCH   5   8
ENDBRANCH   3   4
ENDBRANCH   2   3
ENDBRANCH   1   2
BRANCH   1  12
HETATM   12  O2  LIG X 999      47.186 133.059  21.868  1.00  0.00    -0.351 OA
BRANCH  12  13
HETATM   13  C5  LIG X 999      48.105 134.118  21.961  1.00  0.00     0.069 A 
HETATM   14  C6  LIG X 999      49.123 134.017  22.915  1.00  0.00     0.037 A 
HETATM   15  C7  LIG X 999      50.067 135.037  23.066  1.00  0.00     0.015 A 
HETATM   16  C8  LIG X 999      49.999 136.183  22.263  1.00  0.00    -0.026 A 
HETATM   17  C9  LIG X 999      50.938 137.215  22.409  1.00  0.00     0.012 A 
HETATM   18  C13 LIG X 999      48.971 136.300  21.297  1.00  0.00    -0.023 A 
HETATM   19  C10 LIG X 999      50.856 138.356  21.606  1.00  0.00     0.001 A 
HETATM   20  C11 LIG X 999      49.838 138.476  20.655  1.00  0.00     0.001 A 
HETATM   21  C12 LIG X 999      48.898 137.454  20.500  1.00  0.00     0.012 A 
HETATM   22  C14 LIG X 999      48.033 135.266  21.149  1.00  0.00     0.049 A 
ENDBRANCH  12  13
ENDBRANCH   1  12
TORSDOF 8
