REMARK VINA RESULT:      -3.0      4.900      7.334
REMARK  4 active torsions:
REMARK  status: ('A' for Active; 'I' for Inactive)
REMARK    1  A    between atoms: C3_3  and  O1_4 
REMARK    2  A    between atoms: O1_4  and  C4_5 
REMARK    3  A    between atoms: C9_12  and  N2_13 
REMARK    4  A    between atoms: C11_17  and  C12_18 
ROOT
HETATM    1  C1  LIG X 999      45.742 131.022  14.109  1.00  0.00     0.014 C 
HETATM    2  C2  LIG X 999      44.936 131.274  14.971  1.00  0.00    -0.091 C 
HETATM    3  C3  LIG X 999      43.958 131.578  16.021  1.00  0.00     0.268 C 
ENDROOT
BRANCH   3   4
HETATM    4  O1  LIG X 999      44.616 132.067  17.188  1.00  0.00    -0.339 OA
BRANCH   4   5
HETATM    5  C4  LIG X 999      44.285 131.744  18.518  1.00  0.00     0.085 A 
HETATM    6  C5  LIG X 999      43.232 132.431  19.200  1.00  0.00     0.052 A 
HETATM    7  C6  LIG X 999      42.914 132.098  20.528  1.00  0.00     0.008 A 
HETATM    8  C7  LIG X 999      43.653 131.105  21.120  1.00  0.00     0.018 A 
HETATM    9  C15 LIG X 999      41.849 132.715  21.365  1.00  0.00     0.059 A 
HETATM   10  C8  LIG X 999      43.484 130.655  22.387  1.00  0.00     0.046 A 
HETATM   11  C10 LIG X 999      44.663 130.423  20.519  1.00  0.00     0.042 A 
HETATM   12  N1  LIG X 999      44.372 129.673  22.644  1.00  0.00    -0.337 N 
HETATM   13  C13 LIG X 999      42.446 131.225  23.262  1.00  0.00     0.033 A 
HETATM   14  H5  LIG X 999      44.472 129.140  23.537  1.00  0.00     0.167 HD
HETATM   15  C9  LIG X 999      45.099 129.525  21.501  1.00  0.00     0.176 A 
HETATM   16  C14 LIG X 999      41.664 132.213  22.769  1.00  0.00     0.034 A 
HETATM   17  C11 LIG X 999      45.025 130.713  19.188  1.00  0.00     0.050 A 
HETATM   18  N5  LIG X 999      41.100 133.659  20.892  1.00  0.00    -0.300 NA
HETATM   19  H9  LIG X 999      40.347 134.103  21.464  1.00  0.00     0.187 HD
BRANCH  15  20
HETATM   20  N2  LIG X 999      46.152 128.572  21.351  1.00  0.00    -0.053 NA
HETATM   21  N3  LIG X 999      46.061 127.438  21.822  1.00  0.00    -0.160 NA
HETATM   22  N4  LIG X 999      45.971 126.305  22.291  1.00  0.00     0.068 N 
ENDBRANCH  15  20
BRANCH  17  23
HETATM   23  C12 LIG X 999      46.126 129.979  18.518  1.00  0.00     0.273 C 
HETATM   24  O2  LIG X 999      45.969 129.440  17.391  1.00  0.00    -0.301 OA
ENDBRANCH  17  23
ENDBRANCH   4   5
ENDBRANCH   3   4
TORSDOF 4
