REMARK VINA RESULT:      -4.2      2.750      4.366
REMARK  3 active torsions:
REMARK  status: ('A' for Active; 'I' for Inactive)
REMARK    1  A    between atoms: C5_5  and  N1_6 
REMARK    2  A    between atoms: C6_9  and  N4_10 
REMARK    3  A    between atoms: C8_15  and  N7_16 
ROOT
HETATM    1  N1  LIG X 999      41.181 124.744  24.430  1.00  0.00    -0.069 NA
HETATM    2  N2  LIG X 999      40.434 124.157  23.646  1.00  0.00    -0.162 NA
HETATM    3  N3  LIG X 999      39.684 123.572  22.864  1.00  0.00     0.068 N 
ENDROOT
BRANCH   1   4
HETATM    4  C5  LIG X 999      41.970 125.877  24.030  1.00  0.00     0.137 C 
HETATM    5  C4  LIG X 999      43.238 125.656  23.446  1.00  0.00     0.011 A 
HETATM    6  C3  LIG X 999      43.665 124.349  23.131  1.00  0.00     0.015 A 
HETATM    7  C9  LIG X 999      44.099 126.754  23.176  1.00  0.00     0.010 A 
HETATM    8  C2  LIG X 999      44.900 124.132  22.522  1.00  0.00     0.001 A 
HETATM    9  C1  LIG X 999      45.724 125.210  22.209  1.00  0.00     0.001 A 
HETATM   10  C10 LIG X 999      45.328 126.510  22.523  1.00  0.00     0.015 A 
HETATM   11  C8  LIG X 999      43.694 128.063  23.537  1.00  0.00     0.128 C 
HETATM   12  C7  LIG X 999      42.397 128.278  24.025  1.00  0.00     0.100 C 
HETATM   13  C6  LIG X 999      41.520 127.204  24.238  1.00  0.00     0.149 C 
HETATM   14 CL1  LIG X 999      41.857 129.923  24.372  1.00  0.00    -0.079 Cl
BRANCH  11  15
HETATM   15  N7  LIG X 999      44.563 129.200  23.409  1.00  0.00    -0.070 NA
HETATM   16  N8  LIG X 999      44.518 129.952  22.434  1.00  0.00    -0.162 NA
HETATM   17  N9  LIG X 999      44.476 130.701  21.459  1.00  0.00     0.068 N 
ENDBRANCH  11  15
BRANCH  13  18
HETATM   18  N4  LIG X 999      40.169 127.502  24.625  1.00  0.00    -0.068 NA
HETATM   19  N5  LIG X 999      39.208 127.256  23.893  1.00  0.00    -0.162 NA
HETATM   20  N6  LIG X 999      38.248 127.014  23.163  1.00  0.00     0.068 N 
ENDBRANCH  13  18
ENDBRANCH   1   4
TORSDOF 3
