REMARK VINA RESULT:      -6.2      4.412      5.724
REMARK  1 active torsions:
REMARK  status: ('A' for Active; 'I' for Inactive)
REMARK    1  A    between atoms: C2_5  and  C3_6 
ROOT
HETATM    1  C3  LIG X 999      43.459 131.490  21.093  1.00  0.00     0.030 A 
HETATM    2  C4  LIG X 999      42.258 132.230  21.111  1.00  0.00     0.017 A 
HETATM    3  C5  LIG X 999      41.714 132.765  19.947  1.00  0.00     0.002 A 
HETATM    4  C6  LIG X 999      42.350 132.580  18.728  1.00  0.00     0.012 A 
HETATM    5  C7  LIG X 999      43.544 131.853  18.657  1.00  0.00    -0.025 A 
HETATM    6  C8  LIG X 999      44.165 131.682  17.409  1.00  0.00     0.012 A 
HETATM    7  C9  LIG X 999      45.353 130.965  17.306  1.00  0.00     0.001 A 
HETATM    8  C10 LIG X 999      45.933 130.412  18.443  1.00  0.00     0.001 A 
HETATM    9  C11 LIG X 999      45.331 130.570  19.694  1.00  0.00     0.013 A 
HETATM   10  C12 LIG X 999      44.122 131.294  19.837  1.00  0.00    -0.011 A 
ENDROOT
BRANCH   1  11
HETATM   11  C2  LIG X 999      43.941 130.967  22.409  1.00  0.00     0.203 A 
HETATM   12  O1  LIG X 999      44.159 129.704  22.708  1.00  0.00    -0.255 OA
HETATM   13  C1  LIG X 999      44.568 129.713  23.953  1.00  0.00     0.262 A 
HETATM   14  N1  LIG X 999      44.889 128.657  24.624  1.00  0.00    -0.260 NA
HETATM   15  N3  LIG X 999      44.613 130.957  24.443  1.00  0.00    -0.238 N 
HETATM   16  H1  LIG X 999      44.835 127.709  24.189  1.00  0.00     0.190 HD
HETATM   17  N2  LIG X 999      44.217 131.762  23.472  1.00  0.00    -0.145 NA
HETATM   18  H9  LIG X 999      44.899 131.261  25.401  1.00  0.00     0.193 HD
ENDBRANCH   1  11
TORSDOF 1
