REMARK VINA RESULT:      -5.3      0.000      0.000
REMARK  4 active torsions:
REMARK  status: ('A' for Active; 'I' for Inactive)
REMARK    1  A    between atoms: C3_3  and  O1_4 
REMARK    2  A    between atoms: O1_4  and  C4_5 
REMARK    3  A    between atoms: C9_12  and  N2_13 
REMARK    4  A    between atoms: C11_17  and  C12_18 
ROOT
HETATM    1  C1  LIG X 999      44.983 130.987  21.147  1.00  0.00     0.014 C 
HETATM    2  C2  LIG X 999      44.076 130.888  21.935  1.00  0.00    -0.091 C 
HETATM    3  C3  LIG X 999      42.974 130.765  22.890  1.00  0.00     0.268 C 
ENDROOT
BRANCH   3   4
HETATM    4  O1  LIG X 999      43.253 129.699  23.791  1.00  0.00    -0.339 OA
BRANCH   4   5
HETATM    5  C4  LIG X 999      42.678 128.419  23.719  1.00  0.00     0.085 A 
HETATM    6  C5  LIG X 999      41.276 128.226  23.917  1.00  0.00     0.052 A 
HETATM    7  C6  LIG X 999      40.721 126.937  23.830  1.00  0.00     0.008 A 
HETATM    8  C7  LIG X 999      41.580 125.901  23.553  1.00  0.00     0.018 A 
HETATM    9  C15 LIG X 999      39.295 126.572  24.047  1.00  0.00     0.059 A 
HETATM   10  C8  LIG X 999      41.229 124.593  23.497  1.00  0.00     0.046 A 
HETATM   11  C10 LIG X 999      42.922 126.028  23.371  1.00  0.00     0.042 A 
HETATM   12  N1  LIG X 999      42.324 123.836  23.289  1.00  0.00    -0.337 N 
HETATM   13  C13 LIG X 999      39.835 124.171  23.716  1.00  0.00     0.033 A 
HETATM   14  H5  LIG X 999      42.361 122.794  23.237  1.00  0.00     0.167 HD
HETATM   15  C9  LIG X 999      43.369 124.709  23.216  1.00  0.00     0.176 A 
HETATM   16  C14 LIG X 999      38.910 125.122  23.974  1.00  0.00     0.034 A 
HETATM   17  C11 LIG X 999      43.524 127.304  23.432  1.00  0.00     0.050 A 
HETATM   18  N5  LIG X 999      38.410 127.484  24.299  1.00  0.00    -0.300 NA
HETATM   19  H9  LIG X 999      37.406 127.247  24.458  1.00  0.00     0.187 HD
BRANCH  15  20
HETATM   20  N2  LIG X 999      44.732 124.299  23.094  1.00  0.00    -0.053 NA
HETATM   21  N3  LIG X 999      45.054 123.352  22.376  1.00  0.00    -0.160 NA
HETATM   22  N4  LIG X 999      45.376 122.407  21.658  1.00  0.00     0.068 N 
ENDBRANCH  15  20
BRANCH  17  23
HETATM   23  C12 LIG X 999      44.967 127.528  23.199  1.00  0.00     0.273 C 
HETATM   24  O2  LIG X 999      45.462 127.500  22.043  1.00  0.00    -0.301 OA
ENDBRANCH  17  23
ENDBRANCH   4   5
ENDBRANCH   3   4
TORSDOF 4
