REMARK VINA RESULT:      -3.8      6.978     10.002
REMARK  5 active torsions:
REMARK  status: ('A' for Active; 'I' for Inactive)
REMARK    1  A    between atoms: C3_3  and  O1_4 
REMARK    2  A    between atoms: O1_4  and  C4_5 
REMARK    3  A    between atoms: C5_6  and  C6_7 
REMARK    4  A    between atoms: C6_7  and  O2_8 
REMARK    5  A    between atoms: C17_20  and  N1_21 
ROOT
HETATM    1  C1  LIG X 999      51.729 129.316  24.568  1.00  0.00     0.014 C 
HETATM    2  C2  LIG X 999      52.151 128.206  24.361  1.00  0.00    -0.091 C 
HETATM    3  C3  LIG X 999      52.663 126.856  24.106  1.00  0.00     0.268 C 
ENDROOT
BRANCH   3   4
HETATM    4  O1  LIG X 999      51.610 125.897  24.198  1.00  0.00    -0.336 OA
BRANCH   4   5
HETATM    5  C4  LIG X 999      51.174 125.161  23.088  1.00  0.00     0.108 C 
HETATM    6  C5  LIG X 999      52.091 124.450  22.291  1.00  0.00     0.012 C 
HETATM    7  C7  LIG X 999      51.632 123.831  21.097  1.00  0.00    -0.014 C 
HETATM    8  C8  LIG X 999      52.530 123.207  20.197  1.00  0.00     0.013 C 
HETATM    9  C12 LIG X 999      50.243 123.875  20.759  1.00  0.00    -0.012 C 
HETATM   10  C9  LIG X 999      52.099 122.741  18.960  1.00  0.00     0.001 C 
HETATM   11  C10 LIG X 999      50.779 122.918  18.572  1.00  0.00     0.001 C 
HETATM   12  C11 LIG X 999      49.866 123.499  19.450  1.00  0.00     0.013 C 
HETATM   13  C13 LIG X 999      49.303 124.384  21.708  1.00  0.00     0.013 C 
HETATM   14  C14 LIG X 999      47.884 124.185  21.651  1.00  0.00    -0.045 C 
HETATM   15  C18 LIG X 999      49.804 125.116  22.812  1.00  0.00     0.105 C 
HETATM   16  C15 LIG X 999      47.209 123.106  20.839  1.00  0.00     0.049 C 
HETATM   17  C16 LIG X 999      47.052 124.924  22.507  1.00  0.00     0.063 C 
HETATM   18  C17 LIG X 999      47.608 125.737  23.498  1.00  0.00     0.186 C 
HETATM   19  N4  LIG X 999      48.952 125.773  23.644  1.00  0.00    -0.223 NA
BRANCH   6  20
HETATM   20  C6  LIG X 999      53.538 124.340  22.748  1.00  0.00     0.206 C 
BRANCH  20  21
HETATM   21  O2  LIG X 999      53.623 123.496  23.865  1.00  0.00    -0.396 OA
HETATM   22  H6  LIG X 999      52.794 123.625  24.394  1.00  0.00     0.209 HD
ENDBRANCH  20  21
ENDBRANCH   6  20
BRANCH  18  23
HETATM   23  N1  LIG X 999      46.794 126.489  24.407  1.00  0.00    -0.052 NA
HETATM   24  N2  LIG X 999      45.765 127.065  24.050  1.00  0.00    -0.160 NA
HETATM   25  N3  LIG X 999      44.737 127.640  23.695  1.00  0.00     0.068 N 
ENDBRANCH  18  23
ENDBRANCH   4   5
ENDBRANCH   3   4
TORSDOF 5
