REMARK VINA RESULT:      -4.7      2.228      3.239
REMARK  1 active torsions:
REMARK  status: ('A' for Active; 'I' for Inactive)
REMARK    1  A    between atoms: C7_7  and  N1_8 
ROOT
HETATM    1  N1  LIG X 999      43.725 131.524  15.174  1.00  0.00    -0.110 NA
HETATM    2  N2  LIG X 999      43.032 131.512  14.156  1.00  0.00    -0.167 NA
HETATM    3  N3  LIG X 999      42.342 131.499  13.138  1.00  0.00     0.068 N 
ENDROOT
BRANCH   1   4
HETATM    4  C7  LIG X 999      45.106 132.003  15.146  1.00  0.00     0.153 C 
HETATM    5  C6  LIG X 999      45.640 132.118  16.584  1.00  0.00     0.031 C 
HETATM    6  C5  LIG X 999      45.776 130.744  17.248  1.00  0.00     0.003 C 
HETATM    7  C4  LIG X 999      46.693 129.830  16.431  1.00  0.00     0.009 C 
HETATM    8  C3  LIG X 999      46.184 129.670  14.984  1.00  0.00     0.018 C 
HETATM    9  C2  LIG X 999      47.172 128.838  14.195  1.00  0.00    -0.021 C 
HETATM   10  C8  LIG X 999      45.970 131.046  14.291  1.00  0.00     0.043 C 
HETATM   11  C1  LIG X 999      48.190 129.420  13.548  1.00  0.00    -0.004 C 
HETATM   12  C10 LIG X 999      48.309 130.890  13.502  1.00  0.00    -0.004 C 
HETATM   13  C9  LIG X 999      47.298 131.666  13.907  1.00  0.00    -0.019 C 
ENDBRANCH   1   4
TORSDOF 1
