REMARK VINA RESULT:      -8.7      0.000      0.000
REMARK  3 active torsions:
REMARK  status: ('A' for Active; 'I' for Inactive)
REMARK    1  A    between atoms: O1_2  and  C1_3 
REMARK    2  A    between atoms: C1_3  and  C3_8 
REMARK    3  A    between atoms: C2_4  and  N1_5 
ROOT
HETATM    1  N1  LIG X 999      47.005 131.010  13.378  1.00  0.00    -0.082 NA
HETATM    2  N2  LIG X 999      47.879 130.143  13.378  1.00  0.00    -0.163 NA
HETATM    3  N3  LIG X 999      48.752 129.277  13.377  1.00  0.00     0.068 N 
ENDROOT
BRANCH   1   4
HETATM    4  C2  LIG X 999      46.353 131.385  14.592  1.00  0.00     0.193 C 
HETATM    5  C1  LIG X 999      45.818 130.459  15.405  1.00  0.00     0.096 C 
BRANCH   5   6
HETATM    6  O1  LIG X 999      45.914 129.099  15.092  1.00  0.00    -0.358 OA
HETATM    7  H1  LIG X 999      46.513 128.457  15.595  1.00  0.00     0.217 HD
ENDBRANCH   5   6
BRANCH   5   8
HETATM    8  C3  LIG X 999      45.129 130.838  16.665  1.00  0.00    -0.001 A 
HETATM    9  C4  LIG X 999      43.871 131.461  16.599  1.00  0.00     0.015 A 
HETATM   10  C5  LIG X 999      43.199 131.841  17.763  1.00  0.00     0.013 A 
HETATM   11  C6  LIG X 999      43.778 131.614  19.019  1.00  0.00    -0.026 A 
HETATM   12  C7  LIG X 999      43.111 131.993  20.193  1.00  0.00     0.012 A 
HETATM   13  C11 LIG X 999      45.051 131.002  19.101  1.00  0.00    -0.025 A 
HETATM   14  C8  LIG X 999      43.702 131.768  21.439  1.00  0.00     0.001 A 
HETATM   15  C9  LIG X 999      44.961 131.166  21.522  1.00  0.00     0.001 A 
HETATM   16  C10 LIG X 999      45.635 130.783  20.358  1.00  0.00     0.012 A 
HETATM   17  C12 LIG X 999      45.720 130.622  17.926  1.00  0.00     0.026 A 
ENDBRANCH   5   8
ENDBRANCH   1   4
TORSDOF 3
