REMARK VINA RESULT:      -4.8      5.191      6.888
REMARK  2 active torsions:
REMARK  status: ('A' for Active; 'I' for Inactive)
REMARK       I    between atoms: N1_1  and  C1_2 
REMARK    1  A    between atoms: C1_2  and  C2_4 
REMARK    2  A    between atoms: C11_13  and  O2_14 
ROOT
HETATM    1  C2  LIG X 999      43.338 132.329  20.432  1.00  0.00     0.116 C 
HETATM    2  C3  LIG X 999      44.104 131.578  19.316  1.00  0.00     0.017 C 
HETATM    3  C4  LIG X 999      45.452 131.028  19.810  1.00  0.00     0.002 C 
HETATM    4  C5  LIG X 999      45.289 130.159  21.067  1.00  0.00     0.012 C 
HETATM    5  C6  LIG X 999      44.559 130.953  22.159  1.00  0.00     0.047 C 
HETATM    6  C7  LIG X 999      44.456 130.207  23.467  1.00  0.00    -0.019 C 
HETATM    7  C8  LIG X 999      43.590 130.633  24.395  1.00  0.00    -0.004 C 
HETATM    8  C9  LIG X 999      42.645 131.731  24.088  1.00  0.00    -0.001 C 
HETATM    9  C10 LIG X 999      42.467 132.145  22.824  1.00  0.00     0.012 C 
HETATM   10  C11 LIG X 999      43.150 131.413  21.675  1.00  0.00     0.095 C 
ENDROOT
BRANCH   1  11
HETATM   11  C1  LIG X 999      42.020 132.843  19.896  1.00  0.00     0.222 C 
HETATM   12  N1  LIG X 999      41.717 132.742  18.504  1.00  0.00    -0.370 N 
HETATM   13  H1  LIG X 999      42.398 132.319  17.835  1.00  0.00     0.159 HD
HETATM   14  H2  LIG X 999      40.808 133.101  18.137  1.00  0.00     0.159 HD
HETATM   15  O1  LIG X 999      41.184 133.377  20.674  1.00  0.00    -0.273 OA
ENDBRANCH   1  11
BRANCH  10  16
HETATM   16  O2  LIG X 999      42.364 130.300  21.298  1.00  0.00    -0.384 OA
HETATM   17  H15 LIG X 999      42.121 129.786  22.111  1.00  0.00     0.211 HD
ENDBRANCH  10  16
TORSDOF 2
