REMARK VINA RESULT:      -8.7      0.000      0.000
REMARK  6 active torsions:
REMARK  status: ('A' for Active; 'I' for Inactive)
REMARK    1  A    between atoms: O1_2  and  C1_3 
REMARK    2  A    between atoms: C1_3  and  C2_4 
REMARK    3  A    between atoms: C1_3  and  C13_20 
REMARK    4  A    between atoms: C2_4  and  O3_6 
REMARK    5  A    between atoms: O3_6  and  C3_7 
REMARK    6  A    between atoms: C8_12  and  N1_13 
ROOT
HETATM    1  N1  LIG X 999      42.760 131.493  23.585  1.00  0.00    -0.073 NA
HETATM    2  N2  LIG X 999      42.321 130.465  24.105  1.00  0.00    -0.162 NA
HETATM    3  N3  LIG X 999      41.883 129.440  24.625  1.00  0.00     0.068 N 
ENDROOT
BRANCH   1   4
HETATM    4  C8  LIG X 999      43.304 131.509  22.258  1.00  0.00     0.094 A 
HETATM    5  C7  LIG X 999      42.491 131.707  21.125  1.00  0.00     0.046 A 
HETATM    6  C6  LIG X 999      43.057 131.716  19.841  1.00  0.00    -0.024 A 
HETATM    7  C5  LIG X 999      42.257 131.918  18.708  1.00  0.00     0.015 A 
HETATM    8  C11 LIG X 999      44.451 131.526  19.686  1.00  0.00    -0.023 A 
HETATM    9  C4  LIG X 999      42.829 131.925  17.432  1.00  0.00     0.038 A 
HETATM   10  C3  LIG X 999      44.211 131.719  17.270  1.00  0.00     0.080 A 
HETATM   11  C12 LIG X 999      45.016 131.537  18.401  1.00  0.00     0.049 A 
HETATM   12  C10 LIG X 999      45.254 131.332  20.818  1.00  0.00     0.014 A 
HETATM   13  C9  LIG X 999      44.681 131.324  22.093  1.00  0.00     0.035 A 
BRANCH  10  14
HETATM   14  O3  LIG X 999      44.826 131.729  16.011  1.00  0.00    -0.277 OA
BRANCH  14  15
HETATM   15  C2  LIG X 999      45.376 130.611  15.367  1.00  0.00     0.293 C 
HETATM   16  O2  LIG X 999      44.635 129.708  14.890  1.00  0.00    -0.262 OA
BRANCH  15  17
HETATM   17  C1  LIG X 999      46.868 130.444  15.326  1.00  0.00     0.217 C 
BRANCH  17  18
HETATM   18  O1  LIG X 999      47.263 129.543  16.326  1.00  0.00    -0.386 OA
HETATM   19  H1  LIG X 999      47.296 128.643  15.907  1.00  0.00     0.210 HD
ENDBRANCH  17  18
BRANCH  17  20
HETATM   20  C13 LIG X 999      47.323 129.903  13.962  1.00  0.00     0.037 C 
HETATM   21  C14 LIG X 999      47.590 131.019  12.949  1.00  0.00     0.008 C 
ENDBRANCH  17  20
ENDBRANCH  15  17
ENDBRANCH  14  15
ENDBRANCH  10  14
ENDBRANCH   1   4
TORSDOF 6
