REMARK VINA RESULT:      -5.8      0.000      0.000
REMARK  3 active torsions:
REMARK  status: ('A' for Active; 'I' for Inactive)
REMARK    1  A    between atoms: C3_3  and  S1_4 
REMARK    2  A    between atoms: S1_4  and  C4_7 
REMARK    3  A    between atoms: C6_9  and  N1_10 
ROOT
HETATM    1  C1  LIG X 999      42.577 131.951  20.342  1.00  0.00     0.013 C 
HETATM    2  C2  LIG X 999      43.345 131.369  21.067  1.00  0.00    -0.102 C 
HETATM    3  C3  LIG X 999      44.275 130.660  21.948  1.00  0.00     0.238 C 
ENDROOT
BRANCH   3   4
HETATM    4  S1  LIG X 999      43.559 130.486  23.573  1.00  0.00     0.186 S 
HETATM    5  O1  LIG X 999      44.622 130.636  24.625  1.00  0.00    -0.222 OA
HETATM    6  O2  LIG X 999      42.554 131.587  23.769  1.00  0.00    -0.222 OA
BRANCH   4   7
HETATM    7  C4  LIG X 999      42.766 128.903  23.732  1.00  0.00     0.073 A 
HETATM    8  C5  LIG X 999      41.408 128.880  24.087  1.00  0.00     0.058 A 
HETATM    9  C6  LIG X 999      40.710 127.669  24.221  1.00  0.00     0.095 A 
HETATM   10  C7  LIG X 999      41.374 126.464  23.995  1.00  0.00     0.046 A 
HETATM   11  C8  LIG X 999      42.725 126.450  23.630  1.00  0.00    -0.021 A 
HETATM   12  C9  LIG X 999      43.370 125.219  23.395  1.00  0.00     0.022 A 
HETATM   13  C13 LIG X 999      43.442 127.678  23.488  1.00  0.00    -0.004 A 
HETATM   14  C10 LIG X 999      44.713 125.225  23.029  1.00  0.00    -0.024 A 
HETATM   15  C11 LIG X 999      45.404 126.386  22.887  1.00  0.00    -0.024 A 
HETATM   16  C17 LIG X 999      45.572 124.064  22.711  1.00  0.00     0.276 C 
HETATM   17  C12 LIG X 999      44.805 127.626  23.103  1.00  0.00     0.023 A 
HETATM   18  C14 LIG X 999      46.794 126.114  22.460  1.00  0.00     0.276 C 
HETATM   19  N4  LIG X 999      46.946 124.625  22.504  1.00  0.00    -0.067 N 
HETATM   20  C15 LIG X 999      47.826 124.237  23.632  1.00  0.00     0.272 C 
HETATM   21  C16 LIG X 999      47.532 124.121  21.241  1.00  0.00     0.272 C 
BRANCH   9  22
HETATM   22  N1  LIG X 999      39.324 127.632  24.585  1.00  0.00    -0.073 NA
HETATM   23  N2  LIG X 999      38.624 126.631  24.423  1.00  0.00    -0.162 NA
HETATM   24  N3  LIG X 999      37.925 125.632  24.261  1.00  0.00     0.068 N 
ENDBRANCH   9  22
ENDBRANCH   4   7
ENDBRANCH   3   4
TORSDOF 3
