REMARK VINA RESULT:      -7.5      2.158      3.136
REMARK  2 active torsions:
REMARK  status: ('A' for Active; 'I' for Inactive)
REMARK    1  A    between atoms: C2_5  and  C3_6 
REMARK    2  A    between atoms: N3_17  and  C13_18 
ROOT
HETATM    1  H1  LIG X 999      42.612 132.157  16.601  1.00  0.00     0.190 HD
HETATM    2  N1  LIG X 999      42.375 132.132  17.617  1.00  0.00    -0.260 NA
HETATM    3  C1  LIG X 999      43.211 131.739  18.525  1.00  0.00     0.269 A 
HETATM    4  O1  LIG X 999      42.910 131.659  19.796  1.00  0.00    -0.255 OA
HETATM    5  C2  LIG X 999      43.990 131.171  20.373  1.00  0.00     0.203 A 
HETATM    6  N2  LIG X 999      44.974 130.957  19.471  1.00  0.00    -0.137 NA
HETATM    7  N3  LIG X 999      44.475 131.322  18.301  1.00  0.00    -0.189 N 
ENDROOT
BRANCH   5   8
HETATM    8  C3  LIG X 999      44.139 130.928  21.827  1.00  0.00     0.030 A 
HETATM    9  C4  LIG X 999      43.832 131.989  22.698  1.00  0.00     0.017 A 
HETATM   10  C5  LIG X 999      43.872 131.818  24.080  1.00  0.00     0.002 A 
HETATM   11  C6  LIG X 999      44.219 130.585  24.625  1.00  0.00     0.012 A 
HETATM   12  C7  LIG X 999      44.557 129.513  23.789  1.00  0.00    -0.025 A 
HETATM   13  C8  LIG X 999      44.931 128.283  24.352  1.00  0.00     0.012 A 
HETATM   14  C12 LIG X 999      44.537 129.677  22.375  1.00  0.00    -0.011 A 
HETATM   15  C9  LIG X 999      45.306 127.219  23.533  1.00  0.00     0.001 A 
HETATM   16  C10 LIG X 999      45.326 127.377  22.148  1.00  0.00     0.001 A 
HETATM   17  C11 LIG X 999      44.954 128.592  21.569  1.00  0.00     0.013 A 
ENDBRANCH   5   8
BRANCH   7  18
HETATM   18  C13 LIG X 999      45.216 131.284  17.070  1.00  0.00     0.107 A 
HETATM   19  C14 LIG X 999      45.579 132.472  16.417  1.00  0.00     0.054 A 
HETATM   20  C15 LIG X 999      46.327 132.409  15.240  1.00  0.00     0.122 A 
HETATM   21  N4  LIG X 999      46.711 131.205  14.739  1.00  0.00    -0.230 NA
HETATM   22  C16 LIG X 999      46.389 130.038  15.359  1.00  0.00     0.251 A 
HETATM   23  F1  LIG X 999      46.796 128.861  14.827  1.00  0.00    -0.181 F 
HETATM   24  C17 LIG X 999      45.643 130.056  16.541  1.00  0.00     0.203 A 
HETATM   25  F2  LIG X 999      45.320 128.889  17.154  1.00  0.00    -0.199 F 
ENDBRANCH   7  18
TORSDOF 2
