REMARK VINA RESULT:      -6.3      2.358      5.480
REMARK  1 active torsions:
REMARK  status: ('A' for Active; 'I' for Inactive)
REMARK    1  A    between atoms: C4_4  and  N1_5 
ROOT
HETATM    1  C1  LIG X 999      41.637 131.933  18.264  1.00  0.00     0.049 C 
HETATM    2  C2  LIG X 999      43.134 131.775  18.160  1.00  0.00    -0.045 C 
HETATM    3  C3  LIG X 999      43.675 131.864  16.867  1.00  0.00     0.057 C 
HETATM    4  C4  LIG X 999      44.988 131.470  16.626  1.00  0.00     0.122 C 
HETATM    5  N2  LIG X 999      45.733 130.968  17.639  1.00  0.00    -0.231 NA
HETATM    6  C5  LIG X 999      45.275 130.903  18.916  1.00  0.00     0.070 C 
HETATM    7  C6  LIG X 999      46.086 130.309  19.882  1.00  0.00     0.033 C 
HETATM    8  C7  LIG X 999      45.659 130.212  21.198  1.00  0.00     0.014 C 
HETATM    9  C8  LIG X 999      44.458 130.805  21.597  1.00  0.00    -0.025 C 
HETATM   10  C9  LIG X 999      44.101 130.785  22.955  1.00  0.00     0.012 C 
HETATM   11  C10 LIG X 999      42.980 131.481  23.398  1.00  0.00     0.001 C 
HETATM   12  C11 LIG X 999      42.232 132.235  22.500  1.00  0.00     0.001 C 
HETATM   13  C12 LIG X 999      42.567 132.254  21.143  1.00  0.00     0.013 C 
HETATM   14  C13 LIG X 999      43.634 131.472  20.643  1.00  0.00    -0.013 C 
HETATM   15  C14 LIG X 999      43.986 131.408  19.252  1.00  0.00     0.010 C 
ENDROOT
BRANCH   4  16
HETATM   16  N1  LIG X 999      45.535 131.531  15.308  1.00  0.00    -0.384 N 
HETATM   17  H5  LIG X 999      44.977 131.911  14.511  1.00  0.00     0.157 HD
HETATM   18  H6  LIG X 999      46.508 131.197  15.126  1.00  0.00     0.157 HD
ENDBRANCH   4  16
TORSDOF 1
