REMARK VINA RESULT:      -5.4      2.803      6.469
REMARK  4 active torsions:
REMARK  status: ('A' for Active; 'I' for Inactive)
REMARK    1  A    between atoms: C1_1  and  C2_6 
REMARK    2  A    between atoms: N1_2  and  N2_3 
REMARK    3  A    between atoms: C2_6  and  C3_8 
REMARK    4  A    between atoms: C11_16  and  N4_17 
ROOT
HETATM    1  N4  LIG X 999      41.981 132.761  18.830  1.00  0.00    -0.105 NA
HETATM    2  N5  LIG X 999      41.502 133.226  19.866  1.00  0.00    -0.167 NA
HETATM    3  N6  LIG X 999      41.023 133.690  20.899  1.00  0.00     0.068 N 
ENDROOT
BRANCH   1   4
HETATM    4  C11 LIG X 999      42.525 131.406  18.781  1.00  0.00     0.179 C 
HETATM    5  C10 LIG X 999      43.672 131.267  19.767  1.00  0.00    -0.024 A 
HETATM    6  C5  LIG X 999      45.025 131.358  19.351  1.00  0.00    -0.049 A 
HETATM    7  C9  LIG X 999      43.383 131.124  21.135  1.00  0.00     0.010 A 
HETATM    8  C4  LIG X 999      45.404 131.386  17.889  1.00  0.00     0.051 C 
HETATM    9  C6  LIG X 999      46.048 131.287  20.310  1.00  0.00     0.007 A 
HETATM   10  C3  LIG X 999      44.249 131.854  16.987  1.00  0.00     0.068 C 
HETATM   11  C12 LIG X 999      42.964 131.090  17.344  1.00  0.00     0.048 C 
HETATM   12  C7  LIG X 999      45.742 131.155  21.665  1.00  0.00     0.001 A 
HETATM   13  C8  LIG X 999      44.412 131.071  22.077  1.00  0.00     0.001 A 
BRANCH  10  14
HETATM   14  C2  LIG X 999      44.578 131.668  15.521  1.00  0.00     0.172 C 
HETATM   15  O1  LIG X 999      43.662 131.742  14.658  1.00  0.00    -0.291 OA
BRANCH  14  16
HETATM   16  C1  LIG X 999      45.961 131.469  15.056  1.00  0.00     0.190 C 
HETATM   17  N1  LIG X 999      46.210 130.862  13.939  1.00  0.00    -0.165 NA
BRANCH  17  18
HETATM   18  N2  LIG X 999      47.522 130.655  13.487  1.00  0.00    -0.177 N 
HETATM   19  H2  LIG X 999      48.044 131.409  12.987  1.00  0.00     0.214 HD
HETATM   20  N3  LIG X 999      48.091 129.541  13.700  1.00  0.00    -0.031 N 
ENDBRANCH  17  18
ENDBRANCH  14  16
ENDBRANCH  10  14
ENDBRANCH   1   4
TORSDOF 4
