REMARK VINA RESULT:      -7.1      2.763      5.231
REMARK  1 active torsions:
REMARK  status: ('A' for Active; 'I' for Inactive)
REMARK    1  A    between atoms: C5_5  and  N1_6 
ROOT
HETATM    1  N1  LIG X 999      45.887 130.913  17.553  1.00  0.00    -0.070 NA
HETATM    2  N2  LIG X 999      45.965 130.002  16.727  1.00  0.00    -0.162 NA
HETATM    3  N3  LIG X 999      46.045 129.095  15.900  1.00  0.00     0.068 N 
ENDROOT
BRANCH   1   4
HETATM    4  C5  LIG X 999      44.629 131.334  18.106  1.00  0.00     0.124 A 
HETATM    5  C4  LIG X 999      44.395 131.391  19.508  1.00  0.00     0.007 A 
HETATM    6  C3  LIG X 999      45.417 131.166  20.454  1.00  0.00     0.015 A 
HETATM    7  C10 LIG X 999      43.097 131.731  19.982  1.00  0.00    -0.024 A 
HETATM    8  C2  LIG X 999      45.145 131.216  21.824  1.00  0.00     0.001 A 
HETATM    9  C1  LIG X 999      43.859 131.508  22.276  1.00  0.00     0.001 A 
HETATM   10  C11 LIG X 999      42.840 131.773  21.361  1.00  0.00     0.012 A 
HETATM   11  C9  LIG X 999      42.080 132.046  19.073  1.00  0.00     0.014 A 
HETATM   12  C8  LIG X 999      42.334 132.046  17.704  1.00  0.00     0.026 A 
HETATM   13  C6  LIG X 999      43.598 131.701  17.218  1.00  0.00     0.077 A 
HETATM   14  C7  LIG X 999      43.816 131.689  15.792  1.00  0.00     0.102 C 
HETATM   15  N4  LIG X 999      43.990 131.679  14.647  1.00  0.00    -0.191 NA
ENDBRANCH   1   4
TORSDOF 1
