REMARK VINA RESULT:      -4.0      1.493      2.173
REMARK  4 active torsions:
REMARK  status: ('A' for Active; 'I' for Inactive)
REMARK    1  A    between atoms: C5_5  and  C6_6 
REMARK    2  A    between atoms: C7_7  and  C8_8 
REMARK    3  A    between atoms: C11_13  and  C12_14 
REMARK    4  A    between atoms: C13_17  and  N3_18 
ROOT
HETATM    1  N3  LIG X 999      42.355 123.224  20.988  1.00  0.00    -0.023 NA
HETATM    2  N4  LIG X 999      41.443 123.059  21.799  1.00  0.00    -0.158 NA
HETATM    3  N5  LIG X 999      40.533 122.895  22.609  1.00  0.00     0.068 N 
ENDROOT
BRANCH   1   4
HETATM    4  C13 LIG X 999      43.717 123.205  21.409  1.00  0.00     0.326 A 
HETATM    5  N2  LIG X 999      44.641 122.375  20.897  1.00  0.00    -0.099 NA
HETATM    6  N1  LIG X 999      45.768 122.654  21.534  1.00  0.00    -0.124 NA
HETATM    7  C12 LIG X 999      45.483 123.637  22.414  1.00  0.00     0.184 A 
HETATM    8  O3  LIG X 999      44.218 123.985  22.334  1.00  0.00    -0.255 OA
BRANCH   7   9
HETATM    9  C11 LIG X 999      46.501 124.286  23.332  1.00  0.00     0.054 C 
HETATM   10  C3  LIG X 999      47.240 125.460  22.597  1.00  0.00     0.030 C 
HETATM   11  C2  LIG X 999      48.506 125.856  23.328  1.00  0.00    -0.021 C 
HETATM   12  C4  LIG X 999      46.318 126.677  22.369  1.00  0.00     0.027 C 
HETATM   13  C1  LIG X 999      49.240 124.934  23.956  1.00  0.00    -0.004 C 
HETATM   14  C15 LIG X 999      48.764 123.543  24.063  1.00  0.00    -0.003 C 
HETATM   15  C14 LIG X 999      47.509 123.221  23.731  1.00  0.00    -0.008 C 
HETATM   16  C5  LIG X 999      45.659 127.153  23.676  1.00  0.00     0.066 C 
HETATM   17  C9  LIG X 999      44.886 126.005  24.342  1.00  0.00     0.019 C 
HETATM   18  C10 LIG X 999      45.812 124.814  24.621  1.00  0.00     0.024 C 
BRANCH  16  19
HETATM   19  C6  LIG X 999      44.749 128.275  23.399  1.00  0.00    -0.090 C 
HETATM   20  C7  LIG X 999      44.003 129.194  23.171  1.00  0.00     0.005 C 
BRANCH  20  21
HETATM   21  C8  LIG X 999      43.116 130.288  22.899  1.00  0.00     0.258 C 
HETATM   22  O1  LIG X 999      43.021 130.745  21.731  1.00  0.00    -0.637 OA
HETATM   23  O2  LIG X 999      42.362 130.841  23.925  1.00  0.00    -0.637 OA
ENDBRANCH  20  21
ENDBRANCH  16  19
ENDBRANCH   7   9
ENDBRANCH   1   4
TORSDOF 4
