MODEL 1
REMARK VINA RESULT:      -8.5      0.000      0.000
REMARK  6 active torsions:
REMARK  status: ('A' for Active; 'I' for Inactive)
REMARK    1  A    between atoms: C2_2  and  C3_3 
REMARK    2  A    between atoms: C3_3  and  O1_4 
REMARK    3  A    between atoms: O1_4  and  C4_5 
REMARK    4  A    between atoms: C4_5  and  C6_7 
REMARK    5  A    between atoms: C6_7  and  C7_8 
REMARK       I    between atoms: N1_10  and  C9_11 
REMARK    6  A    between atoms: C9_11  and  C10_13 
ROOT
HETATM    1  C7  LIG X 999      43.270 130.521  23.035  1.00  0.00     0.076 A 
HETATM    2  C8  LIG X 999      43.446 130.513  21.667  1.00  0.00     0.150 A 
HETATM    3  N1  LIG X 999      42.888 131.650  21.210  1.00  0.00    -0.213 N 
HETATM    4  C9  LIG X 999      42.792 132.091  19.846  1.00  0.00     0.277 C 
HETATM    5  O2  LIG X 999      41.866 132.883  19.520  1.00  0.00    -0.265 OA
HETATM    6  N2  LIG X 999      42.389 132.300  22.249  1.00  0.00    -0.210 N 
HETATM    7  N3  LIG X 999      42.613 131.648  23.380  1.00  0.00    -0.162 NA
HETATM    8  H20 LIG X 999      41.891 133.217  22.196  1.00  0.00     0.211 HD
ENDROOT
BRANCH   4   9
HETATM    9  C10 LIG X 999      43.754 131.641  18.813  1.00  0.00     0.035 A 
HETATM   10  C11 LIG X 999      44.974 131.060  19.196  1.00  0.00     0.018 A 
HETATM   11  C12 LIG X 999      45.887 130.623  18.233  1.00  0.00     0.013 A 
HETATM   12  C13 LIG X 999      45.590 130.751  16.869  1.00  0.00    -0.026 A 
HETATM   13  C14 LIG X 999      46.500 130.317  15.893  1.00  0.00     0.012 A 
HETATM   14  C18 LIG X 999      44.354 131.317  16.472  1.00  0.00    -0.025 A 
HETATM   15  C15 LIG X 999      46.189 130.444  14.536  1.00  0.00     0.001 A 
HETATM   16  C16 LIG X 999      44.969 131.003  14.145  1.00  0.00     0.001 A 
HETATM   17  C17 LIG X 999      44.053 131.438  15.107  1.00  0.00     0.012 A 
HETATM   18  C19 LIG X 999      43.443 131.751  17.447  1.00  0.00     0.029 A 
ENDBRANCH   4   9
BRANCH   1  19
HETATM   19  C6  LIG X 999      43.784 129.502  24.009  1.00  0.00     0.094 C 
BRANCH  19  20
HETATM   20  C4  LIG X 999      43.642 128.062  23.487  1.00  0.00     0.123 C 
HETATM   21  C5  LIG X 999      45.011 127.390  23.308  1.00  0.00     0.040 C 
BRANCH  20  22
HETATM   22  O1  LIG X 999      42.857 127.310  24.400  1.00  0.00    -0.382 OA
BRANCH  22  23
HETATM   23  C3  LIG X 999      41.539 127.149  23.920  1.00  0.00     0.194 C 
BRANCH  23  24
HETATM   24  C2  LIG X 999      41.263 125.691  23.714  1.00  0.00    -0.011 C 
HETATM   25  C1  LIG X 999      41.859 125.001  22.737  1.00  0.00     0.009 C 
ENDBRANCH  23  24
ENDBRANCH  22  23
ENDBRANCH  20  22
ENDBRANCH  19  20
ENDBRANCH   1  19
TORSDOF 6
ENDMDL
MODEL 2
REMARK VINA RESULT:      -8.1      1.768      7.749
REMARK  6 active torsions:
REMARK  status: ('A' for Active; 'I' for Inactive)
REMARK    1  A    between atoms: C2_2  and  C3_3 
REMARK    2  A    between atoms: C3_3  and  O1_4 
REMARK    3  A    between atoms: O1_4  and  C4_5 
REMARK    4  A    between atoms: C4_5  and  C6_7 
REMARK    5  A    between atoms: C6_7  and  C7_8 
REMARK       I    between atoms: N1_10  and  C9_11 
REMARK    6  A    between atoms: C9_11  and  C10_13 
ROOT
HETATM    1  C7  LIG X 999      43.082 131.862  19.189  1.00  0.00     0.076 A 
HETATM    2  C8  LIG X 999      43.445 131.082  20.267  1.00  0.00     0.150 A 
HETATM    3  N1  LIG X 999      42.797 131.589  21.333  1.00  0.00    -0.213 N 
HETATM    4  C9  LIG X 999      42.866 131.139  22.696  1.00  0.00     0.277 C 
HETATM    5  O2  LIG X 999      42.617 131.954  23.625  1.00  0.00    -0.265 OA
HETATM    6  N2  LIG X 999      42.093 132.631  20.918  1.00  0.00    -0.210 N 
HETATM    7  N3  LIG X 999      42.232 132.820  19.615  1.00  0.00    -0.162 NA
HETATM    8  H20 LIG X 999      41.491 133.226  21.531  1.00  0.00     0.211 HD
ENDROOT
BRANCH   4   9
HETATM    9  C10 LIG X 999      43.220 129.742  23.036  1.00  0.00     0.035 A 
HETATM   10  C11 LIG X 999      44.552 129.309  22.925  1.00  0.00     0.018 A 
HETATM   11  C12 LIG X 999      44.902 127.996  23.251  1.00  0.00     0.013 A 
HETATM   12  C13 LIG X 999      43.928 127.097  23.705  1.00  0.00    -0.026 A 
HETATM   13  C14 LIG X 999      44.268 125.776  24.033  1.00  0.00     0.012 A 
HETATM   14  C18 LIG X 999      42.585 127.529  23.839  1.00  0.00    -0.025 A 
HETATM   15  C15 LIG X 999      43.287 124.891  24.491  1.00  0.00     0.001 A 
HETATM   16  C16 LIG X 999      41.963 125.317  24.624  1.00  0.00     0.001 A 
HETATM   17  C17 LIG X 999      41.610 126.631  24.300  1.00  0.00     0.012 A 
HETATM   18  C19 LIG X 999      42.244 128.849  23.512  1.00  0.00     0.029 A 
ENDBRANCH   4   9
BRANCH   1  19
HETATM   19  C6  LIG X 999      43.483 131.654  17.759  1.00  0.00     0.094 C 
BRANCH  19  20
HETATM   20  C4  LIG X 999      45.008 131.710  17.559  1.00  0.00     0.123 C 
HETATM   21  C5  LIG X 999      45.675 130.379  17.930  1.00  0.00     0.040 C 
BRANCH  20  22
HETATM   22  O1  LIG X 999      45.289 132.024  16.204  1.00  0.00    -0.382 OA
BRANCH  22  23
HETATM   23  C3  LIG X 999      46.168 131.076  15.636  1.00  0.00     0.194 C 
BRANCH  23  24
HETATM   24  C2  LIG X 999      46.037 131.113  14.143  1.00  0.00    -0.011 C 
HETATM   25  C1  LIG X 999      47.107 131.022  13.349  1.00  0.00     0.009 C 
ENDBRANCH  23  24
ENDBRANCH  22  23
ENDBRANCH  20  22
ENDBRANCH  19  20
ENDBRANCH   1  19
TORSDOF 6
ENDMDL
MODEL 3
REMARK VINA RESULT:      -8.0      1.829      7.504
REMARK  6 active torsions:
REMARK  status: ('A' for Active; 'I' for Inactive)
REMARK    1  A    between atoms: C2_2  and  C3_3 
REMARK    2  A    between atoms: C3_3  and  O1_4 
REMARK    3  A    between atoms: O1_4  and  C4_5 
REMARK    4  A    between atoms: C4_5  and  C6_7 
REMARK    5  A    between atoms: C6_7  and  C7_8 
REMARK       I    between atoms: N1_10  and  C9_11 
REMARK    6  A    between atoms: C9_11  and  C10_13 
ROOT
HETATM    1  C7  LIG X 999      43.063 131.860  19.282  1.00  0.00     0.076 A 
HETATM    2  C8  LIG X 999      43.374 131.041  20.347  1.00  0.00     0.150 A 
HETATM    3  N1  LIG X 999      42.767 131.576  21.423  1.00  0.00    -0.213 N 
HETATM    4  C9  LIG X 999      42.809 131.102  22.779  1.00  0.00     0.277 C 
HETATM    5  O2  LIG X 999      42.622 131.918  23.721  1.00  0.00    -0.265 OA
HETATM    6  N2  LIG X 999      42.138 132.671  21.027  1.00  0.00    -0.210 N 
HETATM    7  N3  LIG X 999      42.285 132.869  19.726  1.00  0.00    -0.162 NA
HETATM    8  H20 LIG X 999      41.581 133.298  21.651  1.00  0.00     0.211 HD
ENDROOT
BRANCH   4   9
HETATM    9  C10 LIG X 999      43.065 129.678  23.097  1.00  0.00     0.035 A 
HETATM   10  C11 LIG X 999      42.068 128.908  23.719  1.00  0.00     0.018 A 
HETATM   11  C12 LIG X 999      42.293 127.561  24.017  1.00  0.00     0.013 A 
HETATM   12  C13 LIG X 999      43.515 126.960  23.688  1.00  0.00    -0.026 A 
HETATM   13  C14 LIG X 999      43.752 125.609  23.985  1.00  0.00     0.012 A 
HETATM   14  C18 LIG X 999      44.519 127.722  23.043  1.00  0.00    -0.025 A 
HETATM   15  C15 LIG X 999      44.973 125.019  23.645  1.00  0.00     0.001 A 
HETATM   16  C16 LIG X 999      45.964 125.770  23.007  1.00  0.00     0.001 A 
HETATM   17  C17 LIG X 999      45.741 127.117  22.706  1.00  0.00     0.012 A 
HETATM   18  C19 LIG X 999      44.284 129.072  22.746  1.00  0.00     0.029 A 
ENDBRANCH   4   9
BRANCH   1  19
HETATM   19  C6  LIG X 999      43.444 131.646  17.847  1.00  0.00     0.094 C 
BRANCH  19  20
HETATM   20  C4  LIG X 999      44.964 131.728  17.621  1.00  0.00     0.123 C 
HETATM   21  C5  LIG X 999      45.658 130.404  17.969  1.00  0.00     0.040 C 
BRANCH  20  22
HETATM   22  O1  LIG X 999      45.215 132.057  16.263  1.00  0.00    -0.382 OA
BRANCH  22  23
HETATM   23  C3  LIG X 999      46.172 131.184  15.700  1.00  0.00     0.194 C 
BRANCH  23  24
HETATM   24  C2  LIG X 999      46.039 131.203  14.207  1.00  0.00    -0.011 C 
HETATM   25  C1  LIG X 999      47.091 130.988  13.412  1.00  0.00     0.009 C 
ENDBRANCH  23  24
ENDBRANCH  22  23
ENDBRANCH  20  22
ENDBRANCH  19  20
ENDBRANCH   1  19
TORSDOF 6
ENDMDL
MODEL 4
REMARK VINA RESULT:      -7.9      1.603      2.477
REMARK  6 active torsions:
REMARK  status: ('A' for Active; 'I' for Inactive)
REMARK    1  A    between atoms: C2_2  and  C3_3 
REMARK    2  A    between atoms: C3_3  and  O1_4 
REMARK    3  A    between atoms: O1_4  and  C4_5 
REMARK    4  A    between atoms: C4_5  and  C6_7 
REMARK    5  A    between atoms: C6_7  and  C7_8 
REMARK       I    between atoms: N1_10  and  C9_11 
REMARK    6  A    between atoms: C9_11  and  C10_13 
ROOT
HETATM    1  C7  LIG X 999      43.538 131.641  20.860  1.00  0.00     0.076 A 
HETATM    2  C8  LIG X 999      43.954 131.153  19.639  1.00  0.00     0.150 A 
HETATM    3  N1  LIG X 999      43.288 131.857  18.704  1.00  0.00    -0.213 N 
HETATM    4  C9  LIG X 999      43.359 131.705  17.278  1.00  0.00     0.277 C 
HETATM    5  O2  LIG X 999      42.377 132.063  16.572  1.00  0.00    -0.265 OA
HETATM    6  N2  LIG X 999      42.499 132.714  19.333  1.00  0.00    -0.210 N 
HETATM    7  N3  LIG X 999      42.633 132.620  20.647  1.00  0.00    -0.162 NA
HETATM    8  H20 LIG X 999      41.858 133.391  18.861  1.00  0.00     0.211 HD
ENDROOT
BRANCH   4   9
HETATM    9  C10 LIG X 999      44.557 131.141  16.614  1.00  0.00     0.035 A 
HETATM   10  C11 LIG X 999      45.341 130.182  17.277  1.00  0.00     0.018 A 
HETATM   11  C12 LIG X 999      46.468 129.635  16.660  1.00  0.00     0.013 A 
HETATM   12  C13 LIG X 999      46.825 130.030  15.364  1.00  0.00    -0.026 A 
HETATM   13  C14 LIG X 999      47.956 129.488  14.735  1.00  0.00     0.012 A 
HETATM   14  C18 LIG X 999      46.031 130.981  14.678  1.00  0.00    -0.025 A 
HETATM   15  C15 LIG X 999      48.298 129.886  13.439  1.00  0.00     0.001 A 
HETATM   16  C16 LIG X 999      47.514 130.824  12.762  1.00  0.00     0.001 A 
HETATM   17  C17 LIG X 999      46.384 131.372  13.377  1.00  0.00     0.012 A 
HETATM   18  C19 LIG X 999      44.900 131.523  15.305  1.00  0.00     0.029 A 
ENDBRANCH   4   9
BRANCH   1  19
HETATM   19  C6  LIG X 999      44.046 131.230  22.209  1.00  0.00     0.094 C 
BRANCH  19  20
HETATM   20  C4  LIG X 999      43.455 129.890  22.680  1.00  0.00     0.123 C 
HETATM   21  C5  LIG X 999      44.553 128.852  22.949  1.00  0.00     0.040 C 
BRANCH  20  22
HETATM   22  O1  LIG X 999      42.700 130.103  23.863  1.00  0.00    -0.382 OA
BRANCH  22  23
HETATM   23  C3  LIG X 999      42.393 128.879  24.495  1.00  0.00     0.194 C 
BRANCH  23  24
HETATM   24  C2  LIG X 999      41.140 128.315  23.898  1.00  0.00    -0.011 C 
HETATM   25  C1  LIG X 999      40.940 126.996  23.816  1.00  0.00     0.009 C 
ENDBRANCH  23  24
ENDBRANCH  22  23
ENDBRANCH  20  22
ENDBRANCH  19  20
ENDBRANCH   1  19
TORSDOF 6
ENDMDL
MODEL 5
REMARK VINA RESULT:      -7.3      2.214      7.465
REMARK  6 active torsions:
REMARK  status: ('A' for Active; 'I' for Inactive)
REMARK    1  A    between atoms: C2_2  and  C3_3 
REMARK    2  A    between atoms: C3_3  and  O1_4 
REMARK    3  A    between atoms: O1_4  and  C4_5 
REMARK    4  A    between atoms: C4_5  and  C6_7 
REMARK    5  A    between atoms: C6_7  and  C7_8 
REMARK       I    between atoms: N1_10  and  C9_11 
REMARK    6  A    between atoms: C9_11  and  C10_13 
ROOT
HETATM    1  C7  LIG X 999      44.347 131.236  21.071  1.00  0.00     0.076 A 
HETATM    2  C8  LIG X 999      44.583 130.023  21.684  1.00  0.00     0.150 A 
HETATM    3  N1  LIG X 999      43.622 129.880  22.616  1.00  0.00    -0.213 N 
HETATM    4  C9  LIG X 999      43.450 128.790  23.537  1.00  0.00     0.277 C 
HETATM    5  O2  LIG X 999      42.846 128.994  24.625  1.00  0.00    -0.265 OA
HETATM    6  N2  LIG X 999      42.858 130.960  22.576  1.00  0.00    -0.210 N 
HETATM    7  N3  LIG X 999      43.262 131.803  21.638  1.00  0.00    -0.162 NA
HETATM    8  H20 LIG X 999      42.031 131.129  23.193  1.00  0.00     0.211 HD
ENDROOT
BRANCH   4   9
HETATM    9  C10 LIG X 999      43.963 127.432  23.239  1.00  0.00     0.035 A 
HETATM   10  C11 LIG X 999      43.106 126.323  23.331  1.00  0.00     0.018 A 
HETATM   11  C12 LIG X 999      43.574 125.038  23.045  1.00  0.00     0.013 A 
HETATM   12  C13 LIG X 999      44.904 124.842  22.652  1.00  0.00    -0.026 A 
HETATM   13  C14 LIG X 999      45.385 123.556  22.364  1.00  0.00     0.012 A 
HETATM   14  C18 LIG X 999      45.772 125.956  22.537  1.00  0.00    -0.025 A 
HETATM   15  C15 LIG X 999      46.714 123.375  21.966  1.00  0.00     0.001 A 
HETATM   16  C16 LIG X 999      47.569 124.474  21.852  1.00  0.00     0.001 A 
HETATM   17  C17 LIG X 999      47.103 125.761  22.136  1.00  0.00     0.012 A 
HETATM   18  C19 LIG X 999      45.292 127.242  22.824  1.00  0.00     0.029 A 
ENDBRANCH   4   9
BRANCH   1  19
HETATM   19  C6  LIG X 999      45.104 131.815  19.913  1.00  0.00     0.094 C 
BRANCH  19  20
HETATM   20  C4  LIG X 999      44.705 131.179  18.569  1.00  0.00     0.123 C 
HETATM   21  C5  LIG X 999      43.391 131.765  18.036  1.00  0.00     0.040 C 
BRANCH  20  22
HETATM   22  O1  LIG X 999      45.743 131.395  17.626  1.00  0.00    -0.382 OA
BRANCH  22  23
HETATM   23  C3  LIG X 999      45.216 131.770  16.371  1.00  0.00     0.194 C 
BRANCH  23  24
HETATM   24  C2  LIG X 999      46.253 131.546  15.312  1.00  0.00    -0.011 C 
HETATM   25  C1  LIG X 999      45.924 131.083  14.103  1.00  0.00     0.009 C 
ENDBRANCH  23  24
ENDBRANCH  22  23
ENDBRANCH  20  22
ENDBRANCH  19  20
ENDBRANCH   1  19
TORSDOF 6
ENDMDL
MODEL 6
REMARK VINA RESULT:      -6.9      1.673      7.757
REMARK  6 active torsions:
REMARK  status: ('A' for Active; 'I' for Inactive)
REMARK    1  A    between atoms: C2_2  and  C3_3 
REMARK    2  A    between atoms: C3_3  and  O1_4 
REMARK    3  A    between atoms: O1_4  and  C4_5 
REMARK    4  A    between atoms: C4_5  and  C6_7 
REMARK    5  A    between atoms: C6_7  and  C7_8 
REMARK       I    between atoms: N1_10  and  C9_11 
REMARK    6  A    between atoms: C9_11  and  C10_13 
ROOT
HETATM    1  C7  LIG X 999      43.614 131.059  22.295  1.00  0.00     0.076 A 
HETATM    2  C8  LIG X 999      43.569 129.680  22.293  1.00  0.00     0.150 A 
HETATM    3  N1  LIG X 999      44.196 129.282  23.416  1.00  0.00    -0.213 N 
HETATM    4  C9  LIG X 999      44.432 127.935  23.856  1.00  0.00     0.277 C 
HETATM    5  O2  LIG X 999      45.405 127.701  24.624  1.00  0.00    -0.265 OA
HETATM    6  N2  LIG X 999      44.612 130.366  24.051  1.00  0.00    -0.210 N 
HETATM    7  N3  LIG X 999      44.264 131.468  23.404  1.00  0.00    -0.162 NA
HETATM    8  H20 LIG X 999      45.136 130.363  24.955  1.00  0.00     0.211 HD
ENDROOT
BRANCH   4   9
HETATM    9  C10 LIG X 999      43.561 126.814  23.433  1.00  0.00     0.035 A 
HETATM   10  C11 LIG X 999      44.062 125.823  22.572  1.00  0.00     0.018 A 
HETATM   11  C12 LIG X 999      43.254 124.756  22.171  1.00  0.00     0.013 A 
HETATM   12  C13 LIG X 999      41.935 124.656  22.634  1.00  0.00    -0.026 A 
HETATM   13  C14 LIG X 999      41.115 123.589  22.237  1.00  0.00     0.012 A 
HETATM   14  C18 LIG X 999      41.427 125.638  23.518  1.00  0.00    -0.025 A 
HETATM   15  C15 LIG X 999      39.802 123.497  22.711  1.00  0.00     0.001 A 
HETATM   16  C16 LIG X 999      39.301 124.467  23.584  1.00  0.00     0.001 A 
HETATM   17  C17 LIG X 999      40.108 125.534  23.988  1.00  0.00     0.012 A 
HETATM   18  C19 LIG X 999      42.246 126.705  23.916  1.00  0.00     0.029 A 
ENDBRANCH   4   9
BRANCH   1  19
HETATM   19  C6  LIG X 999      42.985 131.976  21.289  1.00  0.00     0.094 C 
BRANCH  19  20
HETATM   20  C4  LIG X 999      43.878 132.203  20.057  1.00  0.00     0.123 C 
HETATM   21  C5  LIG X 999      45.366 132.060  20.404  1.00  0.00     0.040 C 
BRANCH  20  22
HETATM   22  O1  LIG X 999      43.530 131.266  19.049  1.00  0.00    -0.382 OA
BRANCH  22  23
HETATM   23  C3  LIG X 999      43.136 131.923  17.862  1.00  0.00     0.194 C 
BRANCH  23  24
HETATM   24  C2  LIG X 999      43.993 131.447  16.728  1.00  0.00    -0.011 C 
HETATM   25  C1  LIG X 999      45.259 131.852  16.596  1.00  0.00     0.009 C 
ENDBRANCH  23  24
ENDBRANCH  22  23
ENDBRANCH  20  22
ENDBRANCH  19  20
ENDBRANCH   1  19
TORSDOF 6
ENDMDL
MODEL 7
REMARK VINA RESULT:      -6.4      1.697      8.187
REMARK  6 active torsions:
REMARK  status: ('A' for Active; 'I' for Inactive)
REMARK    1  A    between atoms: C2_2  and  C3_3 
REMARK    2  A    between atoms: C3_3  and  O1_4 
REMARK    3  A    between atoms: O1_4  and  C4_5 
REMARK    4  A    between atoms: C4_5  and  C6_7 
REMARK    5  A    between atoms: C6_7  and  C7_8 
REMARK       I    between atoms: N1_10  and  C9_11 
REMARK    6  A    between atoms: C9_11  and  C10_13 
ROOT
HETATM    1  C7  LIG X 999      43.712 131.483  21.501  1.00  0.00     0.076 A 
HETATM    2  C8  LIG X 999      43.185 130.292  21.955  1.00  0.00     0.150 A 
HETATM    3  N1  LIG X 999      43.962 129.905  22.985  1.00  0.00    -0.213 N 
HETATM    4  C9  LIG X 999      43.838 128.713  23.777  1.00  0.00     0.277 C 
HETATM    5  O2  LIG X 999      44.859 128.248  24.352  1.00  0.00    -0.265 OA
HETATM    6  N2  LIG X 999      44.918 130.810  23.130  1.00  0.00    -0.210 N 
HETATM    7  N3  LIG X 999      44.790 131.793  22.251  1.00  0.00    -0.162 NA
HETATM    8  H20 LIG X 999      45.672 130.770  23.852  1.00  0.00     0.211 HD
ENDROOT
BRANCH   4   9
HETATM    9  C10 LIG X 999      42.540 128.017  23.936  1.00  0.00     0.035 A 
HETATM   10  C11 LIG X 999      41.438 128.702  24.477  1.00  0.00     0.018 A 
HETATM   11  C12 LIG X 999      40.206 128.061  24.624  1.00  0.00     0.013 A 
HETATM   12  C13 LIG X 999      40.052 126.726  24.224  1.00  0.00    -0.026 A 
HETATM   13  C14 LIG X 999      38.819 126.072  24.370  1.00  0.00     0.012 A 
HETATM   14  C18 LIG X 999      41.150 126.033  23.661  1.00  0.00    -0.025 A 
HETATM   15  C15 LIG X 999      38.676 124.743  23.961  1.00  0.00     0.001 A 
HETATM   16  C16 LIG X 999      39.760 124.059  23.404  1.00  0.00     0.001 A 
HETATM   17  C17 LIG X 999      40.994 124.699  23.253  1.00  0.00     0.012 A 
HETATM   18  C19 LIG X 999      42.383 126.686  23.514  1.00  0.00     0.029 A 
ENDBRANCH   4   9
BRANCH   1  19
HETATM   19  C6  LIG X 999      43.156 132.350  20.411  1.00  0.00     0.094 C 
BRANCH  19  20
HETATM   20  C4  LIG X 999      43.144 131.646  19.043  1.00  0.00     0.123 C 
HETATM   21  C5  LIG X 999      41.975 132.125  18.172  1.00  0.00     0.040 C 
BRANCH  20  22
HETATM   22  O1  LIG X 999      44.371 131.899  18.378  1.00  0.00    -0.382 OA
BRANCH  22  23
HETATM   23  C3  LIG X 999      44.295 131.527  17.018  1.00  0.00     0.194 C 
BRANCH  23  24
HETATM   24  C2  LIG X 999      45.592 131.859  16.342  1.00  0.00    -0.011 C 
HETATM   25  C1  LIG X 999      45.934 131.298  15.179  1.00  0.00     0.009 C 
ENDBRANCH  23  24
ENDBRANCH  22  23
ENDBRANCH  20  22
ENDBRANCH  19  20
ENDBRANCH   1  19
TORSDOF 6
ENDMDL
MODEL 8
REMARK VINA RESULT:      -6.0      2.650      4.344
REMARK  6 active torsions:
REMARK  status: ('A' for Active; 'I' for Inactive)
REMARK    1  A    between atoms: C2_2  and  C3_3 
REMARK    2  A    between atoms: C3_3  and  O1_4 
REMARK    3  A    between atoms: O1_4  and  C4_5 
REMARK    4  A    between atoms: C4_5  and  C6_7 
REMARK    5  A    between atoms: C6_7  and  C7_8 
REMARK       I    between atoms: N1_10  and  C9_11 
REMARK    6  A    between atoms: C9_11  and  C10_13 
ROOT
HETATM    1  C7  LIG X 999      43.903 131.543  20.896  1.00  0.00     0.076 A 
HETATM    2  C8  LIG X 999      44.230 131.054  19.648  1.00  0.00     0.150 A 
HETATM    3  N1  LIG X 999      43.524 131.782  18.762  1.00  0.00    -0.213 N 
HETATM    4  C9  LIG X 999      43.501 131.640  17.333  1.00  0.00     0.277 C 
HETATM    5  O2  LIG X 999      42.486 132.027  16.693  1.00  0.00    -0.265 OA
HETATM    6  N2  LIG X 999      42.798 132.653  19.445  1.00  0.00    -0.210 N 
HETATM    7  N3  LIG X 999      43.012 132.545  20.747  1.00  0.00    -0.162 NA
HETATM    8  H20 LIG X 999      42.146 133.350  19.018  1.00  0.00     0.211 HD
ENDROOT
BRANCH   4   9
HETATM    9  C10 LIG X 999      44.641 131.052  16.591  1.00  0.00     0.035 A 
HETATM   10  C11 LIG X 999      45.216 129.847  17.029  1.00  0.00     0.018 A 
HETATM   11  C12 LIG X 999      46.286 129.276  16.334  1.00  0.00     0.013 A 
HETATM   12  C13 LIG X 999      46.791 129.896  15.183  1.00  0.00    -0.026 A 
HETATM   13  C14 LIG X 999      47.866 129.332  14.479  1.00  0.00     0.012 A 
HETATM   14  C18 LIG X 999      46.206 131.100  14.722  1.00  0.00    -0.025 A 
HETATM   15  C15 LIG X 999      48.356 129.957  13.328  1.00  0.00     0.001 A 
HETATM   16  C16 LIG X 999      47.778 131.145  12.872  1.00  0.00     0.001 A 
HETATM   17  C17 LIG X 999      46.707 131.717  13.565  1.00  0.00     0.012 A 
HETATM   18  C19 LIG X 999      45.131 131.664  15.425  1.00  0.00     0.029 A 
ENDBRANCH   4   9
BRANCH   1  19
HETATM   19  C6  LIG X 999      44.486 131.109  22.208  1.00  0.00     0.094 C 
BRANCH  19  20
HETATM   20  C4  LIG X 999      43.763 131.738  23.412  1.00  0.00     0.123 C 
HETATM   21  C5  LIG X 999      42.884 130.712  24.142  1.00  0.00     0.040 C 
BRANCH  20  22
HETATM   22  O1  LIG X 999      44.727 132.266  24.310  1.00  0.00    -0.382 OA
BRANCH  22  23
HETATM   23  C3  LIG X 999      45.634 133.114  23.637  1.00  0.00     0.194 C 
BRANCH  23  24
HETATM   24  C2  LIG X 999      46.183 134.117  24.606  1.00  0.00    -0.011 C 
HETATM   25  C1  LIG X 999      47.482 134.429  24.622  1.00  0.00     0.009 C 
ENDBRANCH  23  24
ENDBRANCH  22  23
ENDBRANCH  20  22
ENDBRANCH  19  20
ENDBRANCH   1  19
TORSDOF 6
ENDMDL
MODEL 9
REMARK VINA RESULT:      -5.8      2.219      7.731
REMARK  6 active torsions:
REMARK  status: ('A' for Active; 'I' for Inactive)
REMARK    1  A    between atoms: C2_2  and  C3_3 
REMARK    2  A    between atoms: C3_3  and  O1_4 
REMARK    3  A    between atoms: O1_4  and  C4_5 
REMARK    4  A    between atoms: C4_5  and  C6_7 
REMARK    5  A    between atoms: C6_7  and  C7_8 
REMARK       I    between atoms: N1_10  and  C9_11 
REMARK    6  A    between atoms: C9_11  and  C10_13 
ROOT
HETATM    1  C7  LIG X 999      45.253 130.847  20.221  1.00  0.00     0.076 A 
HETATM    2  C8  LIG X 999      45.439 129.658  20.895  1.00  0.00     0.150 A 
HETATM    3  N1  LIG X 999      44.738 129.761  22.040  1.00  0.00    -0.213 N 
HETATM    4  C9  LIG X 999      44.634 128.789  23.093  1.00  0.00     0.277 C 
HETATM    5  O2  LIG X 999      44.369 129.178  24.263  1.00  0.00    -0.265 OA
HETATM    6  N2  LIG X 999      44.173 130.958  22.060  1.00  0.00    -0.210 N 
HETATM    7  N3  LIG X 999      44.455 131.643  20.963  1.00  0.00    -0.162 NA
HETATM    8  H20 LIG X 999      43.570 131.319  22.833  1.00  0.00     0.211 HD
ENDROOT
BRANCH   4   9
HETATM    9  C10 LIG X 999      44.828 127.343  22.840  1.00  0.00     0.035 A 
HETATM   10  C11 LIG X 999      46.126 126.810  22.776  1.00  0.00     0.018 A 
HETATM   11  C12 LIG X 999      46.323 125.445  22.547  1.00  0.00     0.013 A 
HETATM   12  C13 LIG X 999      45.225 124.590  22.387  1.00  0.00    -0.026 A 
HETATM   13  C14 LIG X 999      45.412 123.219  22.154  1.00  0.00     0.012 A 
HETATM   14  C18 LIG X 999      43.912 125.114  22.468  1.00  0.00    -0.025 A 
HETATM   15  C15 LIG X 999      44.307 122.375  22.002  1.00  0.00     0.001 A 
HETATM   16  C16 LIG X 999      43.012 122.892  22.083  1.00  0.00     0.001 A 
HETATM   17  C17 LIG X 999      42.811 124.256  22.315  1.00  0.00     0.012 A 
HETATM   18  C19 LIG X 999      43.723 126.484  22.702  1.00  0.00     0.029 A 
ENDBRANCH   4   9
BRANCH   1  19
HETATM   19  C6  LIG X 999      45.771 131.193  18.857  1.00  0.00     0.094 C 
BRANCH  19  20
HETATM   20  C4  LIG X 999      44.777 130.834  17.739  1.00  0.00     0.123 C 
HETATM   21  C5  LIG X 999      43.530 131.727  17.783  1.00  0.00     0.040 C 
BRANCH  20  22
HETATM   22  O1  LIG X 999      45.421 130.974  16.481  1.00  0.00    -0.382 OA
BRANCH  22  23
HETATM   23  C3  LIG X 999      46.287 129.886  16.233  1.00  0.00     0.194 C 
BRANCH  23  24
HETATM   24  C2  LIG X 999      46.815 129.986  14.834  1.00  0.00    -0.011 C 
HETATM   25  C1  LIG X 999      46.877 131.157  14.195  1.00  0.00     0.009 C 
ENDBRANCH  23  24
ENDBRANCH  22  23
ENDBRANCH  20  22
ENDBRANCH  19  20
ENDBRANCH   1  19
TORSDOF 6
ENDMDL
