REMARK VINA RESULT:      -8.1      5.187      7.735
REMARK  6 active torsions:
REMARK  status: ('A' for Active; 'I' for Inactive)
REMARK    1  A    between atoms: O1_2  and  C1_3 
REMARK    2  A    between atoms: C1_3  and  C4_6 
REMARK    3  A    between atoms: C4_6  and  O2_7 
REMARK    4  A    between atoms: C4_6  and  O3_9 
REMARK    5  A    between atoms: O3_9  and  C5_10 
REMARK    6  A    between atoms: C10_15  and  N1_16 
ROOT
HETATM    1  N1  LIG X 999      46.030 130.272  14.031  1.00  0.00    -0.073 NA
HETATM    2  N2  LIG X 999      47.186 129.865  13.913  1.00  0.00    -0.162 NA
HETATM    3  N3  LIG X 999      48.340 129.456  13.794  1.00  0.00     0.068 N 
ENDROOT
BRANCH   1   4
HETATM    4  C10 LIG X 999      45.473 130.647  15.298  1.00  0.00     0.094 A 
HETATM    5  C9  LIG X 999      46.113 130.329  16.512  1.00  0.00     0.046 A 
HETATM    6  C8  LIG X 999      45.541 130.711  17.735  1.00  0.00    -0.024 A 
HETATM    7  C7  LIG X 999      46.172 130.400  18.947  1.00  0.00     0.015 A 
HETATM    8  C13 LIG X 999      44.315 131.417  17.748  1.00  0.00    -0.023 A 
HETATM    9  C6  LIG X 999      45.593 130.783  20.160  1.00  0.00     0.038 A 
HETATM   10  C5  LIG X 999      44.379 131.478  20.186  1.00  0.00     0.073 A 
HETATM   11  C14 LIG X 999      43.743 131.799  18.971  1.00  0.00     0.049 A 
HETATM   12  C12 LIG X 999      43.685 131.730  16.534  1.00  0.00     0.014 A 
HETATM   13  C11 LIG X 999      44.262 131.346  15.321  1.00  0.00     0.035 A 
BRANCH  10  14
HETATM   14  O3  LIG X 999      43.847 131.830  21.438  1.00  0.00    -0.314 OA
BRANCH  14  15
HETATM   15  C4  LIG X 999      43.048 130.985  22.269  1.00  0.00     0.321 C 
BRANCH  15  16
HETATM   16  C1  LIG X 999      43.918 130.189  23.208  1.00  0.00     0.094 C 
HETATM   17  C2  LIG X 999      44.017 128.855  23.071  1.00  0.00     0.006 C 
HETATM   18  C3  LIG X 999      44.859 128.000  23.966  1.00  0.00     0.038 C 
BRANCH  16  19
HETATM   19  O1  LIG X 999      44.619 130.883  24.199  1.00  0.00    -0.360 OA
HETATM   20  H1  LIG X 999      45.054 130.432  24.994  1.00  0.00     0.217 HD
ENDBRANCH  16  19
ENDBRANCH  15  16
BRANCH  15  21
HETATM   21  O2  LIG X 999      42.168 131.788  23.010  1.00  0.00    -0.365 OA
HETATM   22  H7  LIG X 999      42.648 132.051  23.838  1.00  0.00     0.213 HD
ENDBRANCH  15  21
ENDBRANCH  14  15
ENDBRANCH  10  14
ENDBRANCH   1   4
TORSDOF 6
