REMARK VINA RESULT:      -6.1      9.230     10.798
REMARK  1 active torsions:
REMARK  status: ('A' for Active; 'I' for Inactive)
REMARK    1  A    between atoms: N1_2  and  C1_3 
ROOT
HETATM    1  C1  LIG X 999      48.994 138.778  19.864  1.00  0.00     0.120 C 
HETATM    2  C2  LIG X 999      48.750 137.430  20.126  1.00  0.00     0.057 C 
HETATM    3  C3  LIG X 999      49.447 136.767  21.146  1.00  0.00    -0.045 C 
HETATM    4  C4  LIG X 999      48.901 135.420  21.556  1.00  0.00     0.049 C 
HETATM    5  C5  LIG X 999      50.514 137.443  21.819  1.00  0.00     0.008 C 
HETATM    6  C6  LIG X 999      51.446 136.828  22.720  1.00  0.00    -0.013 C 
HETATM    7  C7  LIG X 999      51.690 135.435  22.759  1.00  0.00     0.013 C 
HETATM    8  C8  LIG X 999      52.565 134.881  23.696  1.00  0.00     0.001 C 
HETATM    9  C9  LIG X 999      53.258 135.700  24.581  1.00  0.00     0.001 C 
HETATM   10  C10 LIG X 999      53.122 137.083  24.497  1.00  0.00     0.012 C 
HETATM   11  C11 LIG X 999      52.256 137.655  23.551  1.00  0.00    -0.025 C 
HETATM   12  C12 LIG X 999      52.239 139.042  23.394  1.00  0.00     0.014 C 
HETATM   13  C13 LIG X 999      51.477 139.625  22.391  1.00  0.00     0.031 C 
HETATM   14  C14 LIG X 999      50.625 138.848  21.596  1.00  0.00     0.045 C 
HETATM   15  N2  LIG X 999      49.889 139.459  20.623  1.00  0.00    -0.341 N 
HETATM   16  H12 LIG X 999      50.013 140.484  20.449  1.00  0.00     0.167 HD
ENDROOT
BRANCH   1  17
HETATM   17  N1  LIG X 999      48.342 139.397  18.929  1.00  0.00    -0.284 NA
HETATM   18  H1  LIG X 999      48.705 139.485  17.953  1.00  0.00     0.188 HD
ENDBRANCH   1  17
TORSDOF 1
