REMARK VINA RESULT:      -5.4      3.546      4.812
REMARK  4 active torsions:
REMARK  status: ('A' for Active; 'I' for Inactive)
REMARK    1  A    between atoms: C1_1  and  C2_6 
REMARK    2  A    between atoms: N1_2  and  N2_3 
REMARK    3  A    between atoms: C2_6  and  C3_8 
REMARK    4  A    between atoms: C11_16  and  N4_17 
ROOT
HETATM    1  N4  LIG X 999      43.572 130.401  24.596  1.00  0.00    -0.105 NA
HETATM    2  N5  LIG X 999      43.670 131.628  24.608  1.00  0.00    -0.167 NA
HETATM    3  N6  LIG X 999      43.771 132.854  24.621  1.00  0.00     0.068 N 
ENDROOT
BRANCH   1   4
HETATM    4  C11 LIG X 999      43.058 129.689  23.428  1.00  0.00     0.179 C 
HETATM    5  C10 LIG X 999      43.737 128.337  23.297  1.00  0.00    -0.024 A 
HETATM    6  C5  LIG X 999      44.825 128.134  22.412  1.00  0.00    -0.049 A 
HETATM    7  C9  LIG X 999      43.321 127.283  24.128  1.00  0.00     0.010 A 
HETATM    8  C4  LIG X 999      45.245 129.187  21.411  1.00  0.00     0.051 C 
HETATM    9  C6  LIG X 999      45.456 126.880  22.369  1.00  0.00     0.007 A 
HETATM   10  C3  LIG X 999      44.759 130.596  21.787  1.00  0.00     0.068 C 
HETATM   11  C12 LIG X 999      43.270 130.553  22.175  1.00  0.00     0.048 C 
HETATM   12  C7  LIG X 999      45.033 125.845  23.206  1.00  0.00     0.001 A 
HETATM   13  C8  LIG X 999      43.966 126.045  24.082  1.00  0.00     0.001 A 
BRANCH  10  14
HETATM   14  C2  LIG X 999      45.004 131.551  20.638  1.00  0.00     0.172 C 
HETATM   15  O1  LIG X 999      45.999 132.326  20.669  1.00  0.00    -0.291 OA
BRANCH  14  16
HETATM   16  C1  LIG X 999      44.070 131.653  19.505  1.00  0.00     0.190 C 
HETATM   17  N1  LIG X 999      44.503 131.709  18.285  1.00  0.00    -0.165 NA
BRANCH  17  18
HETATM   18  N2  LIG X 999      43.626 131.799  17.194  1.00  0.00    -0.177 N 
HETATM   19  H2  LIG X 999      42.668 132.202  17.305  1.00  0.00     0.214 HD
HETATM   20  N3  LIG X 999      43.998 131.386  16.053  1.00  0.00    -0.031 N 
ENDBRANCH  17  18
ENDBRANCH  14  16
ENDBRANCH  10  14
ENDBRANCH   1   4
TORSDOF 4
