REMARK VINA RESULT:      -6.0      2.659      6.345
REMARK  4 active torsions:
REMARK  status: ('A' for Active; 'I' for Inactive)
REMARK    1  A    between atoms: C3_3  and  O1_4 
REMARK    2  A    between atoms: O1_4  and  C4_5 
REMARK    3  A    between atoms: C4_5  and  O2_6 
REMARK    4  A    between atoms: C5_8  and  C6_9 
ROOT
HETATM    1  C1  LIG X 999      41.525 132.940  20.255  1.00  0.00     0.014 C 
HETATM    2  C2  LIG X 999      42.056 132.509  19.262  1.00  0.00    -0.091 C 
HETATM    3  C3  LIG X 999      42.704 131.986  18.059  1.00  0.00     0.266 C 
ENDROOT
BRANCH   3   4
HETATM    4  O1  LIG X 999      43.570 130.939  18.428  1.00  0.00    -0.319 OA
BRANCH   4   5
HETATM    5  C4  LIG X 999      44.902 131.377  18.292  1.00  0.00     0.314 A 
HETATM    6  O3  LIG X 999      45.782 130.279  18.349  1.00  0.00    -0.312 OA
HETATM    7  C5  LIG X 999      45.880 131.215  19.401  1.00  0.00     0.254 A 
BRANCH   5   8
HETATM    8  O2  LIG X 999      45.218 132.189  17.195  1.00  0.00    -0.341 OA
HETATM    9  H4  LIG X 999      46.059 131.815  16.826  1.00  0.00     0.215 HD
ENDBRANCH   5   8
BRANCH   7  10
HETATM   10  C6  LIG X 999      45.332 130.685  20.696  1.00  0.00    -0.021 A 
HETATM   11  C7  LIG X 999      44.640 131.522  21.586  1.00  0.00     0.011 A 
HETATM   12  C8  LIG X 999      44.130 131.014  22.784  1.00  0.00     0.013 A 
HETATM   13  C9  LIG X 999      44.295 129.658  23.103  1.00  0.00    -0.026 A 
HETATM   14  C10 LIG X 999      43.792 129.138  24.305  1.00  0.00     0.012 A 
HETATM   15  C14 LIG X 999      44.972 128.803  22.198  1.00  0.00    -0.025 A 
HETATM   16  C11 LIG X 999      43.959 127.783  24.608  1.00  0.00     0.001 A 
HETATM   17  C12 LIG X 999      44.626 126.940  23.715  1.00  0.00     0.001 A 
HETATM   18  C13 LIG X 999      45.131 127.446  22.514  1.00  0.00     0.012 A 
HETATM   19  C15 LIG X 999      45.476 129.323  20.996  1.00  0.00     0.022 A 
ENDBRANCH   7  10
ENDBRANCH   4   5
ENDBRANCH   3   4
TORSDOF 4
