REMARK VINA RESULT:      -8.5      0.711      1.699
REMARK  3 active torsions:
REMARK  status: ('A' for Active; 'I' for Inactive)
REMARK    1  A    between atoms: C3_3  and  N1_4 
REMARK    2  A    between atoms: N1_4  and  C6_7 
REMARK    3  A    between atoms: C6_7  and  C7_8 
ROOT
HETATM    1  C1  LIG X 999      48.237 129.531  13.977  1.00  0.00     0.013 C 
HETATM    2  C2  LIG X 999      47.186 130.113  13.876  1.00  0.00    -0.089 C 
HETATM    3  C3  LIG X 999      45.899 130.824  13.748  1.00  0.00     0.329 C 
ENDROOT
BRANCH   3   4
HETATM    4  N1  LIG X 999      45.124 130.887  15.025  1.00  0.00    -0.061 N 
HETATM    5  C4  LIG X 999      45.008 129.510  15.570  1.00  0.00     0.273 C 
HETATM    6  C5  LIG X 999      43.746 131.375  14.752  1.00  0.00     0.273 C 
BRANCH   4   7
HETATM    7  C6  LIG X 999      45.753 131.795  16.038  1.00  0.00     0.276 C 
BRANCH   7   8
HETATM    8  C7  LIG X 999      45.365 131.502  17.477  1.00  0.00    -0.032 A 
HETATM    9  C8  LIG X 999      46.126 130.609  18.249  1.00  0.00     0.010 A 
HETATM   10  C9  LIG X 999      45.773 130.333  19.572  1.00  0.00     0.013 A 
HETATM   11  C10 LIG X 999      44.645 130.937  20.143  1.00  0.00    -0.026 A 
HETATM   12  C11 LIG X 999      44.284 130.668  21.472  1.00  0.00     0.012 A 
HETATM   13  C15 LIG X 999      43.860 131.824  19.368  1.00  0.00    -0.025 A 
HETATM   14  C12 LIG X 999      43.152 131.273  22.026  1.00  0.00     0.001 A 
HETATM   15  C13 LIG X 999      42.376 132.149  21.262  1.00  0.00     0.001 A 
HETATM   16  C14 LIG X 999      42.726 132.424  19.937  1.00  0.00     0.012 A 
HETATM   17  C16 LIG X 999      44.221 132.094  18.040  1.00  0.00     0.021 A 
ENDBRANCH   7   8
ENDBRANCH   4   7
ENDBRANCH   3   4
TORSDOF 3
