REMARK VINA RESULT:      -5.2      3.412      6.178
REMARK  1 active torsions:
REMARK  status: ('A' for Active; 'I' for Inactive)
REMARK    1  A    between atoms: C4_4  and  N1_5 
ROOT
HETATM    1  C1  LIG X 999      43.058 131.358  14.350  1.00  0.00     0.049 C 
HETATM    2  C2  LIG X 999      44.468 131.225  14.872  1.00  0.00    -0.045 C 
HETATM    3  C3  LIG X 999      45.468 131.036  13.904  1.00  0.00     0.057 C 
HETATM    4  C4  LIG X 999      46.746 130.637  14.284  1.00  0.00     0.122 C 
HETATM    5  N2  LIG X 999      47.013 130.398  15.589  1.00  0.00    -0.231 NA
HETATM    6  C5  LIG X 999      46.097 130.609  16.569  1.00  0.00     0.070 C 
HETATM    7  C6  LIG X 999      46.437 130.272  17.879  1.00  0.00     0.033 C 
HETATM    8  C7  LIG X 999      45.532 130.461  18.914  1.00  0.00     0.014 C 
HETATM    9  C8  LIG X 999      44.309 131.094  18.675  1.00  0.00    -0.025 C 
HETATM   10  C9  LIG X 999      43.458 131.369  19.757  1.00  0.00     0.012 C 
HETATM   11  C10 LIG X 999      42.297 132.114  19.567  1.00  0.00     0.001 C 
HETATM   12  C11 LIG X 999      41.998 132.623  18.308  1.00  0.00     0.001 C 
HETATM   13  C12 LIG X 999      42.829 132.346  17.219  1.00  0.00     0.013 C 
HETATM   14  C13 LIG X 999      43.957 131.503  17.355  1.00  0.00    -0.013 C 
HETATM   15  C14 LIG X 999      44.811 131.138  16.260  1.00  0.00     0.010 C 
ENDROOT
BRANCH   4  16
HETATM   16  N1  LIG X 999      47.760 130.416  13.302  1.00  0.00    -0.384 N 
HETATM   17  H5  LIG X 999      48.491 129.682  13.440  1.00  0.00     0.157 HD
HETATM   18  H6  LIG X 999      47.780 130.987  12.428  1.00  0.00     0.157 HD
ENDBRANCH   4  16
TORSDOF 1
