MODEL 1
REMARK VINA RESULT:      -5.5      0.000      0.000
REMARK  4 active torsions:
REMARK  status: ('A' for Active; 'I' for Inactive)
REMARK    1  A    between atoms: C3_3  and  O1_4 
REMARK    2  A    between atoms: O1_4  and  C4_5 
REMARK    3  A    between atoms: C9_12  and  N2_13 
REMARK    4  A    between atoms: C11_17  and  C12_18 
ROOT
HETATM    1  C1  LIG X 999      45.449 130.885  20.837  1.00  0.00     0.014 C 
HETATM    2  C2  LIG X 999      44.600 130.603  21.645  1.00  0.00    -0.091 C 
HETATM    3  C3  LIG X 999      43.568 130.257  22.629  1.00  0.00     0.268 C 
ENDROOT
BRANCH   3   4
HETATM    4  O1  LIG X 999      44.063 129.287  23.550  1.00  0.00    -0.339 OA
BRANCH   4   5
HETATM    5  C4  LIG X 999      44.149 127.901  23.320  1.00  0.00     0.085 A 
HETATM    6  C5  LIG X 999      45.375 127.302  22.890  1.00  0.00     0.052 A 
HETATM    7  C6  LIG X 999      45.445 125.917  22.663  1.00  0.00     0.008 A 
HETATM    8  C7  LIG X 999      44.300 125.189  22.870  1.00  0.00     0.018 A 
HETATM    9  C15 LIG X 999      46.642 125.151  22.220  1.00  0.00     0.059 A 
HETATM   10  C8  LIG X 999      44.186 123.849  22.704  1.00  0.00     0.046 A 
HETATM   11  C10 LIG X 999      43.111 125.706  23.276  1.00  0.00     0.042 A 
HETATM   12  N1  LIG X 999      42.929 123.458  22.997  1.00  0.00    -0.337 N 
HETATM   13  C13 LIG X 999      45.336 123.038  22.269  1.00  0.00     0.033 A 
HETATM   14  H5  LIG X 999      42.553 122.485  22.961  1.00  0.00     0.167 HD
HETATM   15  C9  LIG X 999      42.264 124.594  23.350  1.00  0.00     0.176 A 
HETATM   16  C14 LIG X 999      46.512 123.665  22.038  1.00  0.00     0.034 A 
HETATM   17  C11 LIG X 999      42.983 127.089  23.520  1.00  0.00     0.050 A 
HETATM   18  N5  LIG X 999      47.767 125.752  22.000  1.00  0.00    -0.300 NA
HETATM   19  H9  LIG X 999      48.618 125.231  21.691  1.00  0.00     0.187 HD
BRANCH  15  20
HETATM   20  N2  LIG X 999      40.891 124.618  23.743  1.00  0.00    -0.053 NA
HETATM   21  N3  LIG X 999      40.117 123.714  23.421  1.00  0.00    -0.160 NA
HETATM   22  N4  LIG X 999      39.345 122.813  23.102  1.00  0.00     0.068 N 
ENDBRANCH  15  20
BRANCH  17  23
HETATM   23  C12 LIG X 999      41.692 127.670  23.963  1.00  0.00     0.273 C 
HETATM   24  O2  LIG X 999      40.789 127.972  23.141  1.00  0.00    -0.301 OA
ENDBRANCH  17  23
ENDBRANCH   4   5
ENDBRANCH   3   4
TORSDOF 4
ENDMDL
MODEL 2
REMARK VINA RESULT:      -5.5      1.943      4.467
REMARK  4 active torsions:
REMARK  status: ('A' for Active; 'I' for Inactive)
REMARK    1  A    between atoms: C3_3  and  O1_4 
REMARK    2  A    between atoms: O1_4  and  C4_5 
REMARK    3  A    between atoms: C9_12  and  N2_13 
REMARK    4  A    between atoms: C11_17  and  C12_18 
ROOT
HETATM    1  C1  LIG X 999      44.986 131.114  21.204  1.00  0.00     0.014 C 
HETATM    2  C2  LIG X 999      44.068 131.000  21.977  1.00  0.00    -0.091 C 
HETATM    3  C3  LIG X 999      42.951 130.857  22.918  1.00  0.00     0.268 C 
ENDROOT
BRANCH   3   4
HETATM    4  O1  LIG X 999      43.198 129.786  23.826  1.00  0.00    -0.339 OA
BRANCH   4   5
HETATM    5  C4  LIG X 999      42.624 128.502  23.763  1.00  0.00     0.085 A 
HETATM    6  C5  LIG X 999      41.224 128.311  23.990  1.00  0.00     0.052 A 
HETATM    7  C6  LIG X 999      40.666 127.023  23.924  1.00  0.00     0.008 A 
HETATM    8  C7  LIG X 999      41.518 125.984  23.642  1.00  0.00     0.018 A 
HETATM    9  C15 LIG X 999      39.236 126.665  24.131  1.00  0.00     0.059 A 
HETATM   10  C8  LIG X 999      41.155 124.683  23.538  1.00  0.00     0.046 A 
HETATM   11  C10 LIG X 999      42.852 126.109  23.420  1.00  0.00     0.042 A 
HETATM   12  N1  LIG X 999      42.234 123.930  23.247  1.00  0.00    -0.337 N 
HETATM   13  C13 LIG X 999      39.753 124.269  23.730  1.00  0.00     0.033 A 
HETATM   14  H5  LIG X 999      42.254 122.895  23.106  1.00  0.00     0.167 HD
HETATM   15  C9  LIG X 999      43.280 124.800  23.172  1.00  0.00     0.176 A 
HETATM   16  C14 LIG X 999      38.837 125.221  24.014  1.00  0.00     0.034 A 
HETATM   17  C11 LIG X 999      43.466 127.378  23.472  1.00  0.00     0.050 A 
HETATM   18  N5  LIG X 999      38.359 127.578  24.402  1.00  0.00    -0.300 NA
HETATM   19  H9  LIG X 999      37.351 127.347  24.548  1.00  0.00     0.187 HD
BRANCH  15  20
HETATM   20  N2  LIG X 999      44.620 124.403  22.874  1.00  0.00    -0.053 NA
HETATM   21  N3  LIG X 999      44.856 123.388  22.218  1.00  0.00    -0.160 NA
HETATM   22  N4  LIG X 999      45.093 122.375  21.562  1.00  0.00     0.068 N 
ENDBRANCH  15  20
BRANCH  17  23
HETATM   23  C12 LIG X 999      44.922 127.532  23.233  1.00  0.00     0.273 C 
HETATM   24  O2  LIG X 999      45.394 127.619  22.070  1.00  0.00    -0.301 OA
ENDBRANCH  17  23
ENDBRANCH   4   5
ENDBRANCH   3   4
TORSDOF 4
ENDMDL
MODEL 3
REMARK VINA RESULT:      -5.1      1.993      4.472
REMARK  4 active torsions:
REMARK  status: ('A' for Active; 'I' for Inactive)
REMARK    1  A    between atoms: C3_3  and  O1_4 
REMARK    2  A    between atoms: O1_4  and  C4_5 
REMARK    3  A    between atoms: C9_12  and  N2_13 
REMARK    4  A    between atoms: C11_17  and  C12_18 
ROOT
HETATM    1  C1  LIG X 999      43.420 131.282  21.821  1.00  0.00     0.014 C 
HETATM    2  C2  LIG X 999      43.117 130.465  22.655  1.00  0.00    -0.091 C 
HETATM    3  C3  LIG X 999      42.747 129.469  23.666  1.00  0.00     0.268 C 
ENDROOT
BRANCH   3   4
HETATM    4  O1  LIG X 999      43.602 128.331  23.580  1.00  0.00    -0.339 OA
BRANCH   4   5
HETATM    5  C4  LIG X 999      43.192 127.009  23.325  1.00  0.00     0.085 A 
HETATM    6  C5  LIG X 999      41.820 126.626  23.457  1.00  0.00     0.052 A 
HETATM    7  C6  LIG X 999      41.426 125.302  23.201  1.00  0.00     0.008 A 
HETATM    8  C7  LIG X 999      42.408 124.417  22.829  1.00  0.00     0.018 A 
HETATM    9  C15 LIG X 999      40.045 124.756  23.290  1.00  0.00     0.059 A 
HETATM   10  C8  LIG X 999      42.210 123.108  22.542  1.00  0.00     0.046 A 
HETATM   11  C10 LIG X 999      43.723 124.726  22.690  1.00  0.00     0.042 A 
HETATM   12  N1  LIG X 999      43.382 122.532  22.209  1.00  0.00    -0.337 N 
HETATM   13  C13 LIG X 999      40.865 122.510  22.611  1.00  0.00     0.033 A 
HETATM   14  H5  LIG X 999      43.534 121.535  21.938  1.00  0.00     0.167 HD
HETATM   15  C9  LIG X 999      44.316 123.520  22.298  1.00  0.00     0.176 A 
HETATM   16  C14 LIG X 999      39.830 123.303  22.970  1.00  0.00     0.034 A 
HETATM   17  C11 LIG X 999      44.175 126.039  22.933  1.00  0.00     0.050 A 
HETATM   18  N5  LIG X 999      39.054 125.515  23.632  1.00  0.00    -0.300 NA
HETATM   19  H9  LIG X 999      38.078 125.150  23.699  1.00  0.00     0.187 HD
BRANCH  15  20
HETATM   20  N2  LIG X 999      45.703 123.326  22.017  1.00  0.00    -0.053 NA
HETATM   21  N3  LIG X 999      46.467 122.851  22.858  1.00  0.00    -0.160 NA
HETATM   22  N4  LIG X 999      47.230 122.375  23.697  1.00  0.00     0.068 N 
ENDBRANCH  15  20
BRANCH  17  23
HETATM   23  C12 LIG X 999      45.608 126.393  22.788  1.00  0.00     0.273 C 
HETATM   24  O2  LIG X 999      46.418 126.268  23.742  1.00  0.00    -0.301 OA
ENDBRANCH  17  23
ENDBRANCH   4   5
ENDBRANCH   3   4
TORSDOF 4
ENDMDL
MODEL 4
REMARK VINA RESULT:      -5.0      1.341      1.487
REMARK  4 active torsions:
REMARK  status: ('A' for Active; 'I' for Inactive)
REMARK    1  A    between atoms: C3_3  and  O1_4 
REMARK    2  A    between atoms: O1_4  and  C4_5 
REMARK    3  A    between atoms: C9_12  and  N2_13 
REMARK    4  A    between atoms: C11_17  and  C12_18 
ROOT
HETATM    1  C1  LIG X 999      45.720 130.768  19.532  1.00  0.00     0.014 C 
HETATM    2  C2  LIG X 999      44.978 130.832  20.481  1.00  0.00    -0.091 C 
HETATM    3  C3  LIG X 999      44.076 130.906  21.636  1.00  0.00     0.268 C 
ENDROOT
BRANCH   3   4
HETATM    4  O1  LIG X 999      44.580 130.118  22.713  1.00  0.00    -0.339 OA
BRANCH   4   5
HETATM    5  C4  LIG X 999      44.395 128.732  22.877  1.00  0.00     0.085 A 
HETATM    6  C5  LIG X 999      45.423 127.806  22.514  1.00  0.00     0.052 A 
HETATM    7  C6  LIG X 999      45.223 126.425  22.682  1.00  0.00     0.008 A 
HETATM    8  C7  LIG X 999      44.016 126.025  23.199  1.00  0.00     0.018 A 
HETATM    9  C15 LIG X 999      46.192 125.344  22.357  1.00  0.00     0.059 A 
HETATM   10  C8  LIG X 999      43.653 124.740  23.431  1.00  0.00     0.046 A 
HETATM   11  C10 LIG X 999      43.007 126.860  23.559  1.00  0.00     0.042 A 
HETATM   12  N1  LIG X 999      42.408 124.703  23.946  1.00  0.00    -0.337 N 
HETATM   13  C13 LIG X 999      44.571 123.627  23.131  1.00  0.00     0.033 A 
HETATM   14  H5  LIG X 999      41.873 123.851  24.224  1.00  0.00     0.167 HD
HETATM   15  C9  LIG X 999      42.005 126.002  24.028  1.00  0.00     0.176 A 
HETATM   16  C14 LIG X 999      45.787 123.920  22.616  1.00  0.00     0.034 A 
HETATM   17  C11 LIG X 999      43.153 128.255  23.413  1.00  0.00     0.050 A 
HETATM   18  N5  LIG X 999      47.356 125.625  21.865  1.00  0.00    -0.300 NA
HETATM   19  H9  LIG X 999      48.050 124.880  21.632  1.00  0.00     0.187 HD
BRANCH  15  20
HETATM   20  N2  LIG X 999      40.731 126.406  24.533  1.00  0.00    -0.053 NA
HETATM   21  N3  LIG X 999      39.724 125.723  24.347  1.00  0.00    -0.160 NA
HETATM   22  N4  LIG X 999      38.717 125.041  24.163  1.00  0.00     0.068 N 
ENDBRANCH  15  20
BRANCH  17  23
HETATM   23  C12 LIG X 999      42.061 129.182  23.800  1.00  0.00     0.273 C 
HETATM   24  O2  LIG X 999      42.248 130.113  24.625  1.00  0.00    -0.301 OA
ENDBRANCH  17  23
ENDBRANCH   4   5
ENDBRANCH   3   4
TORSDOF 4
ENDMDL
MODEL 5
REMARK VINA RESULT:      -4.6      5.287      7.584
REMARK  4 active torsions:
REMARK  status: ('A' for Active; 'I' for Inactive)
REMARK    1  A    between atoms: C3_3  and  O1_4 
REMARK    2  A    between atoms: O1_4  and  C4_5 
REMARK    3  A    between atoms: C9_12  and  N2_13 
REMARK    4  A    between atoms: C11_17  and  C12_18 
ROOT
HETATM    1  C1  LIG X 999      53.149 124.269  17.531  1.00  0.00     0.014 C 
HETATM    2  C2  LIG X 999      52.027 123.998  17.880  1.00  0.00    -0.091 C 
HETATM    3  C3  LIG X 999      50.663 123.665  18.304  1.00  0.00     0.268 C 
ENDROOT
BRANCH   3   4
HETATM    4  O1  LIG X 999      50.653 123.251  19.669  1.00  0.00    -0.339 OA
BRANCH   4   5
HETATM    5  C4  LIG X 999      50.536 124.098  20.787  1.00  0.00     0.085 A 
HETATM    6  C5  LIG X 999      51.602 124.977  21.158  1.00  0.00     0.052 A 
HETATM    7  C6  LIG X 999      51.472 125.816  22.277  1.00  0.00     0.008 A 
HETATM    8  C7  LIG X 999      50.295 125.745  22.980  1.00  0.00     0.018 A 
HETATM    9  C15 LIG X 999      52.484 126.782  22.783  1.00  0.00     0.059 A 
HETATM   10  C8  LIG X 999      49.996 126.479  24.079  1.00  0.00     0.046 A 
HETATM   11  C10 LIG X 999      49.253 124.929  22.673  1.00  0.00     0.042 A 
HETATM   12  N1  LIG X 999      48.760 126.166  24.515  1.00  0.00    -0.337 N 
HETATM   13  C13 LIG X 999      50.958 127.453  24.625  1.00  0.00     0.033 A 
HETATM   14  H5  LIG X 999      48.266 126.574  25.339  1.00  0.00     0.167 HD
HETATM   15  C9  LIG X 999      48.297 125.214  23.656  1.00  0.00     0.176 A 
HETATM   16  C14 LIG X 999      52.149 127.595  24.002  1.00  0.00     0.034 A 
HETATM   17  C11 LIG X 999      49.328 124.067  21.560  1.00  0.00     0.050 A 
HETATM   18  N5  LIG X 999      53.625 126.919  22.185  1.00  0.00    -0.300 NA
HETATM   19  H9  LIG X 999      54.347 127.592  22.525  1.00  0.00     0.187 HD
BRANCH  15  20
HETATM   20  N2  LIG X 999      47.006 124.612  23.762  1.00  0.00    -0.053 NA
HETATM   21  N3  LIG X 999      46.020 125.110  23.218  1.00  0.00    -0.160 NA
HETATM   22  N4  LIG X 999      45.035 125.606  22.675  1.00  0.00     0.068 N 
ENDBRANCH  15  20
BRANCH  17  23
HETATM   23  C12 LIG X 999      48.199 123.169  21.212  1.00  0.00     0.273 C 
HETATM   24  O2  LIG X 999      47.286 123.532  20.426  1.00  0.00    -0.301 OA
ENDBRANCH  17  23
ENDBRANCH   4   5
ENDBRANCH   3   4
TORSDOF 4
ENDMDL
MODEL 6
REMARK VINA RESULT:      -4.0      3.615      4.909
REMARK  4 active torsions:
REMARK  status: ('A' for Active; 'I' for Inactive)
REMARK    1  A    between atoms: C3_3  and  O1_4 
REMARK    2  A    between atoms: O1_4  and  C4_5 
REMARK    3  A    between atoms: C9_12  and  N2_13 
REMARK    4  A    between atoms: C11_17  and  C12_18 
ROOT
HETATM    1  C1  LIG X 999      46.476 130.038  16.448  1.00  0.00     0.014 C 
HETATM    2  C2  LIG X 999      45.852 130.442  17.397  1.00  0.00    -0.091 C 
HETATM    3  C3  LIG X 999      45.093 130.930  18.554  1.00  0.00     0.268 C 
ENDROOT
BRANCH   3   4
HETATM    4  O1  LIG X 999      45.823 130.707  19.759  1.00  0.00    -0.339 OA
BRANCH   4   5
HETATM    5  C4  LIG X 999      45.405 129.908  20.840  1.00  0.00     0.085 A 
HETATM    6  C5  LIG X 999      45.965 128.609  21.054  1.00  0.00     0.052 A 
HETATM    7  C6  LIG X 999      45.537 127.823  22.137  1.00  0.00     0.008 A 
HETATM    8  C7  LIG X 999      44.573 128.355  22.956  1.00  0.00     0.018 A 
HETATM    9  C15 LIG X 999      46.024 126.462  22.491  1.00  0.00     0.059 A 
HETATM   10  C8  LIG X 999      44.046 127.743  24.043  1.00  0.00     0.046 A 
HETATM   11  C10 LIG X 999      44.007 129.580  22.798  1.00  0.00     0.042 A 
HETATM   12  N1  LIG X 999      43.130 128.546  24.621  1.00  0.00    -0.337 N 
HETATM   13  C13 LIG X 999      44.490 126.396  24.445  1.00  0.00     0.033 A 
HETATM   14  H5  LIG X 999      42.567 128.337  25.475  1.00  0.00     0.167 HD
HETATM   15  C9  LIG X 999      43.102 129.677  23.861  1.00  0.00     0.176 A 
HETATM   16  C14 LIG X 999      45.438 125.786  23.699  1.00  0.00     0.034 A 
HETATM   17  C11 LIG X 999      44.399 130.413  21.730  1.00  0.00     0.050 A 
HETATM   18  N5  LIG X 999      46.933 125.878  21.777  1.00  0.00    -0.300 NA
HETATM   19  H9  LIG X 999      47.289 124.924  22.011  1.00  0.00     0.187 HD
BRANCH  15  20
HETATM   20  N2  LIG X 999      42.258 130.795  24.139  1.00  0.00    -0.053 NA
HETATM   21  N3  LIG X 999      42.728 131.907  24.382  1.00  0.00    -0.160 NA
HETATM   22  N4  LIG X 999      43.197 133.018  24.624  1.00  0.00     0.068 N 
ENDBRANCH  15  20
BRANCH  17  23
HETATM   23  C12 LIG X 999      43.791 131.753  21.543  1.00  0.00     0.273 C 
HETATM   24  O2  LIG X 999      42.653 131.893  21.024  1.00  0.00    -0.301 OA
ENDBRANCH  17  23
ENDBRANCH   4   5
ENDBRANCH   3   4
TORSDOF 4
ENDMDL
MODEL 7
REMARK VINA RESULT:      -3.2      4.102      5.696
REMARK  4 active torsions:
REMARK  status: ('A' for Active; 'I' for Inactive)
REMARK    1  A    between atoms: C3_3  and  O1_4 
REMARK    2  A    between atoms: O1_4  and  C4_5 
REMARK    3  A    between atoms: C9_12  and  N2_13 
REMARK    4  A    between atoms: C11_17  and  C12_18 
ROOT
HETATM    1  C1  LIG X 999      45.654 132.011  16.062  1.00  0.00     0.014 C 
HETATM    2  C2  LIG X 999      45.729 131.086  16.833  1.00  0.00    -0.091 C 
HETATM    3  C3  LIG X 999      45.822 129.963  17.771  1.00  0.00     0.268 C 
ENDROOT
BRANCH   3   4
HETATM    4  O1  LIG X 999      46.173 130.429  19.073  1.00  0.00    -0.339 OA
BRANCH   4   5
HETATM    5  C4  LIG X 999      45.571 130.032  20.281  1.00  0.00     0.085 A 
HETATM    6  C5  LIG X 999      45.838 128.746  20.849  1.00  0.00     0.052 A 
HETATM    7  C6  LIG X 999      45.228 128.364  22.055  1.00  0.00     0.008 A 
HETATM    8  C7  LIG X 999      44.380 129.269  22.643  1.00  0.00     0.018 A 
HETATM    9  C15 LIG X 999      45.407 127.070  22.768  1.00  0.00     0.059 A 
HETATM   10  C8  LIG X 999      43.710 129.071  23.804  1.00  0.00     0.046 A 
HETATM   11  C10 LIG X 999      44.090 130.500  22.148  1.00  0.00     0.042 A 
HETATM   12  N1  LIG X 999      42.972 130.161  24.097  1.00  0.00    -0.337 N 
HETATM   13  C13 LIG X 999      43.849 127.811  24.556  1.00  0.00     0.033 A 
HETATM   14  H5  LIG X 999      42.358 130.294  24.930  1.00  0.00     0.167 HD
HETATM   15  C9  LIG X 999      43.202 131.043  23.084  1.00  0.00     0.176 A 
HETATM   16  C14 LIG X 999      44.663 126.854  24.056  1.00  0.00     0.034 A 
HETATM   17  C11 LIG X 999      44.675 130.938  20.942  1.00  0.00     0.050 A 
HETATM   18  N5  LIG X 999      46.187 126.154  22.289  1.00  0.00    -0.300 NA
HETATM   19  H9  LIG X 999      46.327 125.240  22.775  1.00  0.00     0.187 HD
BRANCH  15  20
HETATM   20  N2  LIG X 999      42.608 132.341  23.014  1.00  0.00    -0.053 NA
HETATM   21  N3  LIG X 999      41.863 132.655  22.085  1.00  0.00    -0.160 NA
HETATM   22  N4  LIG X 999      41.119 132.969  21.158  1.00  0.00     0.068 N 
ENDBRANCH  15  20
BRANCH  17  23
HETATM   23  C12 LIG X 999      44.369 132.279  20.387  1.00  0.00     0.273 C 
HETATM   24  O2  LIG X 999      43.707 132.417  19.325  1.00  0.00    -0.301 OA
ENDBRANCH  17  23
ENDBRANCH   4   5
ENDBRANCH   3   4
TORSDOF 4
ENDMDL
MODEL 8
REMARK VINA RESULT:      -3.1      4.639      7.259
REMARK  4 active torsions:
REMARK  status: ('A' for Active; 'I' for Inactive)
REMARK    1  A    between atoms: C3_3  and  O1_4 
REMARK    2  A    between atoms: O1_4  and  C4_5 
REMARK    3  A    between atoms: C9_12  and  N2_13 
REMARK    4  A    between atoms: C11_17  and  C12_18 
ROOT
HETATM    1  C1  LIG X 999      46.145 131.825  15.291  1.00  0.00     0.014 C 
HETATM    2  C2  LIG X 999      45.927 130.909  16.045  1.00  0.00    -0.091 C 
HETATM    3  C3  LIG X 999      45.664 129.796  16.963  1.00  0.00     0.268 C 
ENDROOT
BRANCH   3   4
HETATM    4  O1  LIG X 999      45.930 130.186  18.309  1.00  0.00    -0.339 OA
BRANCH   4   5
HETATM    5  C4  LIG X 999      44.983 130.678  19.227  1.00  0.00     0.085 A 
HETATM    6  C5  LIG X 999      43.921 131.536  18.799  1.00  0.00     0.052 A 
HETATM    7  C6  LIG X 999      42.985 132.020  19.728  1.00  0.00     0.008 A 
HETATM    8  C7  LIG X 999      43.142 131.636  21.036  1.00  0.00     0.018 A 
HETATM    9  C15 LIG X 999      41.829 132.913  19.438  1.00  0.00     0.059 A 
HETATM   10  C8  LIG X 999      42.336 132.003  22.061  1.00  0.00     0.046 A 
HETATM   11  C10 LIG X 999      44.131 130.825  21.496  1.00  0.00     0.042 A 
HETATM   12  N1  LIG X 999      42.771 131.444  23.208  1.00  0.00    -0.337 N 
HETATM   13  C13 LIG X 999      41.175 132.883  21.835  1.00  0.00     0.033 A 
HETATM   14  H5  LIG X 999      42.345 131.549  24.155  1.00  0.00     0.167 HD
HETATM   15  C9  LIG X 999      43.874 130.719  22.868  1.00  0.00     0.176 A 
HETATM   16  C14 LIG X 999      40.936 133.317  20.577  1.00  0.00     0.034 A 
HETATM   17  C11 LIG X 999      45.098 130.309  20.609  1.00  0.00     0.050 A 
HETATM   18  N5  LIG X 999      41.600 133.327  18.234  1.00  0.00    -0.300 NA
HETATM   19  H9  LIG X 999      40.794 133.953  18.010  1.00  0.00     0.187 HD
BRANCH  15  20
HETATM   20  N2  LIG X 999      44.641 129.959  23.803  1.00  0.00    -0.053 NA
HETATM   21  N3  LIG X 999      44.263 128.853  24.191  1.00  0.00    -0.160 NA
HETATM   22  N4  LIG X 999      43.887 127.748  24.579  1.00  0.00     0.068 N 
ENDBRANCH  15  20
BRANCH  17  23
HETATM   23  C12 LIG X 999      46.185 129.424  21.094  1.00  0.00     0.273 C 
HETATM   24  O2  LIG X 999      45.972 128.217  21.384  1.00  0.00    -0.301 OA
ENDBRANCH  17  23
ENDBRANCH   4   5
ENDBRANCH   3   4
TORSDOF 4
ENDMDL
MODEL 9
REMARK VINA RESULT:      -3.0      4.900      7.334
REMARK  4 active torsions:
REMARK  status: ('A' for Active; 'I' for Inactive)
REMARK    1  A    between atoms: C3_3  and  O1_4 
REMARK    2  A    between atoms: O1_4  and  C4_5 
REMARK    3  A    between atoms: C9_12  and  N2_13 
REMARK    4  A    between atoms: C11_17  and  C12_18 
ROOT
HETATM    1  C1  LIG X 999      45.742 131.022  14.109  1.00  0.00     0.014 C 
HETATM    2  C2  LIG X 999      44.936 131.274  14.971  1.00  0.00    -0.091 C 
HETATM    3  C3  LIG X 999      43.958 131.578  16.021  1.00  0.00     0.268 C 
ENDROOT
BRANCH   3   4
HETATM    4  O1  LIG X 999      44.616 132.067  17.188  1.00  0.00    -0.339 OA
BRANCH   4   5
HETATM    5  C4  LIG X 999      44.285 131.744  18.518  1.00  0.00     0.085 A 
HETATM    6  C5  LIG X 999      43.232 132.431  19.200  1.00  0.00     0.052 A 
HETATM    7  C6  LIG X 999      42.914 132.098  20.528  1.00  0.00     0.008 A 
HETATM    8  C7  LIG X 999      43.653 131.105  21.120  1.00  0.00     0.018 A 
HETATM    9  C15 LIG X 999      41.849 132.715  21.365  1.00  0.00     0.059 A 
HETATM   10  C8  LIG X 999      43.484 130.655  22.387  1.00  0.00     0.046 A 
HETATM   11  C10 LIG X 999      44.663 130.423  20.519  1.00  0.00     0.042 A 
HETATM   12  N1  LIG X 999      44.372 129.673  22.644  1.00  0.00    -0.337 N 
HETATM   13  C13 LIG X 999      42.446 131.225  23.262  1.00  0.00     0.033 A 
HETATM   14  H5  LIG X 999      44.472 129.140  23.537  1.00  0.00     0.167 HD
HETATM   15  C9  LIG X 999      45.099 129.525  21.501  1.00  0.00     0.176 A 
HETATM   16  C14 LIG X 999      41.664 132.213  22.769  1.00  0.00     0.034 A 
HETATM   17  C11 LIG X 999      45.025 130.713  19.188  1.00  0.00     0.050 A 
HETATM   18  N5  LIG X 999      41.100 133.659  20.892  1.00  0.00    -0.300 NA
HETATM   19  H9  LIG X 999      40.347 134.103  21.464  1.00  0.00     0.187 HD
BRANCH  15  20
HETATM   20  N2  LIG X 999      46.152 128.572  21.351  1.00  0.00    -0.053 NA
HETATM   21  N3  LIG X 999      46.061 127.438  21.822  1.00  0.00    -0.160 NA
HETATM   22  N4  LIG X 999      45.971 126.305  22.291  1.00  0.00     0.068 N 
ENDBRANCH  15  20
BRANCH  17  23
HETATM   23  C12 LIG X 999      46.126 129.979  18.518  1.00  0.00     0.273 C 
HETATM   24  O2  LIG X 999      45.969 129.440  17.391  1.00  0.00    -0.301 OA
ENDBRANCH  17  23
ENDBRANCH   4   5
ENDBRANCH   3   4
TORSDOF 4
ENDMDL
