REMARK VINA RESULT:      -7.8      0.000      0.000
REMARK  2 active torsions:
REMARK  status: ('A' for Active; 'I' for Inactive)
REMARK    1  A    between atoms: O1_2  and  C2_3 
REMARK    2  A    between atoms: C11_12  and  N1_13 
ROOT
HETATM    1  C2  LIG X 999      45.672 130.959  15.816  1.00  0.00     0.095 A 
HETATM    2  C3  LIG X 999      46.070 130.719  17.147  1.00  0.00     0.051 A 
HETATM    3  C4  LIG X 999      45.200 130.988  18.211  1.00  0.00    -0.023 A 
HETATM    4  C5  LIG X 999      45.600 130.750  19.542  1.00  0.00     0.021 A 
HETATM    5  C6  LIG X 999      44.700 131.029  20.571  1.00  0.00    -0.024 A 
HETATM    6  C7  LIG X 999      43.459 131.529  20.316  1.00  0.00    -0.024 A 
HETATM    7  C8  LIG X 999      43.028 131.785  19.014  1.00  0.00     0.021 A 
HETATM    8  C9  LIG X 999      43.904 131.510  17.947  1.00  0.00    -0.023 A 
HETATM    9  C10 LIG X 999      43.513 131.748  16.624  1.00  0.00     0.044 A 
HETATM   10  C11 LIG X 999      44.386 131.476  15.560  1.00  0.00     0.060 A 
HETATM   11  C12 LIG X 999      42.724 131.760  21.578  1.00  0.00     0.276 C 
HETATM   12  N2  LIG X 999      43.591 131.193  22.660  1.00  0.00    -0.067 N 
HETATM   13  C13 LIG X 999      42.980 129.955  23.202  1.00  0.00     0.272 C 
HETATM   14  C14 LIG X 999      43.757 132.168  23.761  1.00  0.00     0.272 C 
HETATM   15  C15 LIG X 999      44.911 130.879  22.027  1.00  0.00     0.276 C 
ENDROOT
BRANCH  10  16
HETATM   16  N1  LIG X 999      43.957 131.729  14.217  1.00  0.00    -0.397 N 
HETATM   17  H8  LIG X 999      44.604 132.170  13.526  1.00  0.00     0.156 HD
HETATM   18  H9  LIG X 999      42.996 131.481  13.895  1.00  0.00     0.156 HD
ENDBRANCH  10  16
BRANCH   1  19
HETATM   19  O1  LIG X 999      46.523 130.697  14.730  1.00  0.00    -0.354 OA
HETATM   20  C1  LIG X 999      47.190 129.459  14.505  1.00  0.00     0.210 C 
ENDBRANCH   1  19
TORSDOF 2
