REMARK VINA RESULT:      -5.1      8.675     10.258
REMARK  1 active torsions:
REMARK  status: ('A' for Active; 'I' for Inactive)
REMARK    1  A    between atoms: C11_13  and  N2_14 
ROOT
HETATM    1  N2  LIG X 999      50.275 132.836  24.563  1.00  0.00    -0.053 NA
HETATM    2  N3  LIG X 999      51.035 131.873  24.467  1.00  0.00    -0.160 NA
HETATM    3  N4  LIG X 999      51.787 130.904  24.379  1.00  0.00     0.068 N 
ENDROOT
BRANCH   1   4
HETATM    4  C11 LIG X 999      50.531 134.091  23.922  1.00  0.00     0.175 A 
HETATM    5  C10 LIG X 999      49.758 134.719  22.937  1.00  0.00     0.026 A 
HETATM    6  C5  LIG X 999      50.422 135.871  22.663  1.00  0.00     0.017 A 
HETATM    7  C9  LIG X 999      48.570 134.421  22.261  1.00  0.00     0.016 A 
HETATM    8  C4  LIG X 999      51.534 135.947  23.430  1.00  0.00     0.046 A 
HETATM    9  C6  LIG X 999      50.019 136.812  21.742  1.00  0.00     0.005 A 
HETATM   10  C3  LIG X 999      52.441 137.104  23.330  1.00  0.00     0.033 A 
HETATM   11  N5  LIG X 999      51.620 134.853  24.217  1.00  0.00    -0.337 N 
HETATM   12  C2  LIG X 999      52.134 138.087  22.453  1.00  0.00     0.034 A 
HETATM   13  C1  LIG X 999      50.898 138.004  21.599  1.00  0.00     0.059 A 
HETATM   14  N1  LIG X 999      50.603 138.945  20.759  1.00  0.00    -0.300 NA
HETATM   15  H1  LIG X 999      51.207 139.789  20.645  1.00  0.00     0.187 HD
HETATM   16  H7  LIG X 999      52.370 134.637  24.911  1.00  0.00     0.167 HD
HETATM   17  C7  LIG X 999      48.827 136.551  21.039  1.00  0.00     0.015 A 
HETATM   18  C8  LIG X 999      48.106 135.354  21.300  1.00  0.00     0.002 A 
ENDBRANCH   1   4
TORSDOF 1
