MODEL 1
REMARK VINA RESULT:      -4.1      0.000      0.000
REMARK  2 active torsions:
REMARK  status: ('A' for Active; 'I' for Inactive)
REMARK    1  A    between atoms: C4_4  and  O1_5 
REMARK    2  A    between atoms: C10_11  and  N1_12 
ROOT
HETATM    1  N1  LIG X 999      45.676 126.818  22.268  1.00  0.00    -0.072 NA
HETATM    2  N2  LIG X 999      45.006 127.739  22.736  1.00  0.00    -0.162 NA
HETATM    3  N3  LIG X 999      44.336 128.660  23.202  1.00  0.00     0.068 N 
ENDROOT
BRANCH   1   4
HETATM    4  C10 LIG X 999      45.469 125.449  22.648  1.00  0.00     0.101 C 
HETATM    5  C9  LIG X 999      46.292 124.467  22.055  1.00  0.00     0.007 C 
HETATM    6  C8  LIG X 999      45.999 123.125  21.858  1.00  0.00    -0.022 C 
HETATM    7  C12 LIG X 999      47.690 124.716  21.621  1.00  0.00     0.278 C 
HETATM    8  C7  LIG X 999      44.736 122.522  21.923  1.00  0.00     0.012 C 
HETATM    9  C15 LIG X 999      47.246 122.376  21.562  1.00  0.00     0.276 C 
HETATM   10  C6  LIG X 999      43.564 123.210  21.589  1.00  0.00     0.037 C 
HETATM   11  C4  LIG X 999      42.369 123.104  22.330  1.00  0.00     0.068 C 
HETATM   12  C3  LIG X 999      42.350 122.881  23.722  1.00  0.00     0.037 C 
HETATM   13  C2  LIG X 999      43.398 123.149  24.624  1.00  0.00     0.003 C 
HETATM   14  C1  LIG X 999      44.485 123.997  24.374  1.00  0.00     0.002 C 
HETATM   15  C11 LIG X 999      44.418 125.107  23.523  1.00  0.00     0.035 C 
HETATM   16  N4  LIG X 999      48.351 123.380  21.587  1.00  0.00    -0.067 N 
HETATM   17  C13 LIG X 999      49.213 123.252  20.391  1.00  0.00     0.272 C 
HETATM   18  C14 LIG X 999      49.179 123.195  22.804  1.00  0.00     0.272 C 
BRANCH  11  19
HETATM   19  O1  LIG X 999      41.124 123.259  21.701  1.00  0.00    -0.356 OA
HETATM   20  C5  LIG X 999      39.899 123.497  22.388  1.00  0.00     0.210 C 
ENDBRANCH  11  19
ENDBRANCH   1   4
TORSDOF 2
ENDMDL
MODEL 2
REMARK VINA RESULT:      -3.0      3.115      5.384
REMARK  2 active torsions:
REMARK  status: ('A' for Active; 'I' for Inactive)
REMARK    1  A    between atoms: C4_4  and  O1_5 
REMARK    2  A    between atoms: C10_11  and  N1_12 
ROOT
HETATM    1  N1  LIG X 999      42.823 124.130  21.533  1.00  0.00    -0.072 NA
HETATM    2  N2  LIG X 999      41.933 123.337  21.845  1.00  0.00    -0.162 NA
HETATM    3  N3  LIG X 999      41.044 122.545  22.156  1.00  0.00     0.068 N 
ENDROOT
BRANCH   1   4
HETATM    4  C10 LIG X 999      43.954 124.384  22.379  1.00  0.00     0.101 C 
HETATM    5  C9  LIG X 999      44.361 125.726  22.551  1.00  0.00     0.007 C 
HETATM    6  C8  LIG X 999      45.629 126.190  22.870  1.00  0.00    -0.022 C 
HETATM    7  C12 LIG X 999      43.429 126.881  22.508  1.00  0.00     0.278 C 
HETATM    8  C7  LIG X 999      46.830 125.473  22.794  1.00  0.00     0.012 C 
HETATM    9  C15 LIG X 999      45.548 127.601  23.326  1.00  0.00     0.276 C 
HETATM   10  C6  LIG X 999      47.033 124.457  21.854  1.00  0.00     0.037 C 
HETATM   11  C4  LIG X 999      47.675 123.240  22.159  1.00  0.00     0.068 C 
HETATM   12  C3  LIG X 999      47.601 122.634  23.430  1.00  0.00     0.037 C 
HETATM   13  C2  LIG X 999      46.609 122.859  24.405  1.00  0.00     0.003 C 
HETATM   14  C1  LIG X 999      45.351 123.427  24.164  1.00  0.00     0.002 C 
HETATM   15  C11 LIG X 999      44.673 123.312  22.944  1.00  0.00     0.035 C 
HETATM   16  N4  LIG X 999      44.105 127.979  23.257  1.00  0.00    -0.067 N 
HETATM   17  C13 LIG X 999      43.928 129.274  22.563  1.00  0.00     0.272 C 
HETATM   18  C14 LIG X 999      43.541 128.081  24.625  1.00  0.00     0.272 C 
BRANCH  11  19
HETATM   19  O1  LIG X 999      48.397 122.547  21.174  1.00  0.00    -0.356 OA
HETATM   20  C5  LIG X 999      48.855 123.125  19.955  1.00  0.00     0.210 C 
ENDBRANCH  11  19
ENDBRANCH   1   4
TORSDOF 2
ENDMDL
MODEL 3
REMARK VINA RESULT:      -2.3      3.610      6.074
REMARK  2 active torsions:
REMARK  status: ('A' for Active; 'I' for Inactive)
REMARK    1  A    between atoms: C4_4  and  O1_5 
REMARK    2  A    between atoms: C10_11  and  N1_12 
ROOT
HETATM    1  N1  LIG X 999      41.676 126.054  22.837  1.00  0.00    -0.072 NA
HETATM    2  N2  LIG X 999      41.360 124.864  22.788  1.00  0.00    -0.162 NA
HETATM    3  N3  LIG X 999      41.044 123.676  22.739  1.00  0.00     0.068 N 
ENDROOT
BRANCH   1   4
HETATM    4  C10 LIG X 999      42.995 126.482  23.209  1.00  0.00     0.101 C 
HETATM    5  C9  LIG X 999      43.350 127.824  22.953  1.00  0.00     0.007 C 
HETATM    6  C8  LIG X 999      44.623 128.338  22.748  1.00  0.00    -0.022 C 
HETATM    7  C12 LIG X 999      42.380 128.949  22.958  1.00  0.00     0.278 C 
HETATM    8  C7  LIG X 999      45.785 127.612  22.454  1.00  0.00     0.012 C 
HETATM    9  C15 LIG X 999      44.599 129.815  22.893  1.00  0.00     0.276 C 
HETATM   10  C6  LIG X 999      45.751 126.410  21.739  1.00  0.00     0.037 C 
HETATM   11  C4  LIG X 999      46.531 125.286  22.080  1.00  0.00     0.068 C 
HETATM   12  C3  LIG X 999      46.891 124.980  23.408  1.00  0.00     0.037 C 
HETATM   13  C2  LIG X 999      46.236 125.425  24.573  1.00  0.00     0.003 C 
HETATM   14  C1  LIG X 999      44.932 125.936  24.625  1.00  0.00     0.002 C 
HETATM   15  C11 LIG X 999      43.919 125.557  23.735  1.00  0.00     0.035 C 
HETATM   16  N4  LIG X 999      43.184 130.180  23.203  1.00  0.00    -0.067 N 
HETATM   17  C13 LIG X 999      42.721 131.289  22.339  1.00  0.00     0.272 C 
HETATM   18  C14 LIG X 999      43.064 130.589  24.624  1.00  0.00     0.272 C 
BRANCH  11  19
HETATM   19  O1  LIG X 999      46.955 124.386  21.090  1.00  0.00    -0.356 OA
HETATM   20  C5  LIG X 999      48.111 123.560  21.195  1.00  0.00     0.210 C 
ENDBRANCH  11  19
ENDBRANCH   1   4
TORSDOF 2
ENDMDL
MODEL 4
REMARK VINA RESULT:      -2.1      2.924      5.682
REMARK  2 active torsions:
REMARK  status: ('A' for Active; 'I' for Inactive)
REMARK    1  A    between atoms: C4_4  and  O1_5 
REMARK    2  A    between atoms: C10_11  and  N1_12 
ROOT
HETATM    1  N1  LIG X 999      44.626 128.244  22.040  1.00  0.00    -0.072 NA
HETATM    2  N2  LIG X 999      44.544 129.068  22.952  1.00  0.00    -0.162 NA
HETATM    3  N3  LIG X 999      44.461 129.892  23.862  1.00  0.00     0.068 N 
ENDROOT
BRANCH   1   4
HETATM    4  C10 LIG X 999      45.063 126.895  22.263  1.00  0.00     0.101 C 
HETATM    5  C9  LIG X 999      44.252 126.063  23.067  1.00  0.00     0.007 C 
HETATM    6  C8  LIG X 999      44.650 124.965  23.817  1.00  0.00    -0.022 C 
HETATM    7  C12 LIG X 999      42.776 126.190  23.157  1.00  0.00     0.278 C 
HETATM    8  C7  LIG X 999      45.959 124.625  24.181  1.00  0.00     0.012 C 
HETATM    9  C15 LIG X 999      43.462 124.159  24.196  1.00  0.00     0.276 C 
HETATM   10  C6  LIG X 999      46.950 125.591  24.386  1.00  0.00     0.037 C 
HETATM   11  C4  LIG X 999      48.276 125.446  23.932  1.00  0.00     0.068 C 
HETATM   12  C3  LIG X 999      48.609 124.738  22.759  1.00  0.00     0.037 C 
HETATM   13  C2  LIG X 999      47.747 124.458  21.680  1.00  0.00     0.003 C 
HETATM   14  C1  LIG X 999      46.542 125.122  21.413  1.00  0.00     0.002 C 
HETATM   15  C11 LIG X 999      46.304 126.458  21.759  1.00  0.00     0.035 C 
HETATM   16  N4  LIG X 999      42.279 124.861  23.615  1.00  0.00    -0.067 N 
HETATM   17  C13 LIG X 999      41.208 125.021  24.624  1.00  0.00     0.272 C 
HETATM   18  C14 LIG X 999      41.748 124.094  22.462  1.00  0.00     0.272 C 
BRANCH  11  19
HETATM   19  O1  LIG X 999      49.338 126.048  24.625  1.00  0.00    -0.356 OA
HETATM   20  C5  LIG X 999      50.396 126.773  24.005  1.00  0.00     0.210 C 
ENDBRANCH  11  19
ENDBRANCH   1   4
TORSDOF 2
ENDMDL
MODEL 5
REMARK VINA RESULT:      -1.1      3.277      4.201
REMARK  2 active torsions:
REMARK  status: ('A' for Active; 'I' for Inactive)
REMARK    1  A    between atoms: C4_4  and  O1_5 
REMARK    2  A    between atoms: C10_11  and  N1_12 
ROOT
HETATM    1  N1  LIG X 999      45.686 128.309  20.667  1.00  0.00    -0.072 NA
HETATM    2  N2  LIG X 999      45.788 129.413  20.131  1.00  0.00    -0.162 NA
HETATM    3  N3  LIG X 999      45.888 130.516  19.595  1.00  0.00     0.068 N 
ENDROOT
BRANCH   1   4
HETATM    4  C10 LIG X 999      45.204 128.150  22.010  1.00  0.00     0.101 C 
HETATM    5  C9  LIG X 999      45.597 126.994  22.720  1.00  0.00     0.007 C 
HETATM    6  C8  LIG X 999      44.923 126.372  23.762  1.00  0.00    -0.022 C 
HETATM    7  C12 LIG X 999      46.891 126.298  22.510  1.00  0.00     0.278 C 
HETATM    8  C7  LIG X 999      43.586 126.566  24.133  1.00  0.00     0.012 C 
HETATM    9  C15 LIG X 999      45.838 125.440  24.467  1.00  0.00     0.276 C 
HETATM   10  C6  LIG X 999      42.597 126.908  23.204  1.00  0.00     0.037 C 
HETATM   11  C4  LIG X 999      41.595 127.865  23.459  1.00  0.00     0.068 C 
HETATM   12  C3  LIG X 999      41.801 128.985  24.290  1.00  0.00     0.037 C 
HETATM   13  C2  LIG X 999      43.045 129.557  24.625  1.00  0.00     0.003 C 
HETATM   14  C1  LIG X 999      44.243 129.355  23.928  1.00  0.00     0.002 C 
HETATM   15  C11 LIG X 999      44.302 129.085  22.555  1.00  0.00     0.035 C 
HETATM   16  N4  LIG X 999      47.151 125.533  23.763  1.00  0.00    -0.067 N 
HETATM   17  C13 LIG X 999      47.685 124.187  23.454  1.00  0.00     0.272 C 
HETATM   18  C14 LIG X 999      48.130 126.260  24.607  1.00  0.00     0.272 C 
BRANCH  11  19
HETATM   19  O1  LIG X 999      40.335 127.759  22.850  1.00  0.00    -0.356 OA
HETATM   20  C5  LIG X 999      39.151 127.331  23.516  1.00  0.00     0.210 C 
ENDBRANCH  11  19
ENDBRANCH   1   4
TORSDOF 2
ENDMDL
