REMARK VINA RESULT:      -6.7      1.402      1.531
REMARK  7 active torsions:
REMARK  status: ('A' for Active; 'I' for Inactive)
REMARK    1  A    between atoms: S1_2  and  C1_3 
REMARK    2  A    between atoms: C1_3  and  N2_11 
REMARK    3  A    between atoms: N1_4  and  C2_6 
REMARK    4  A    between atoms: C2_6  and  C3_7 
REMARK    5  A    between atoms: C3_7  and  C4_8 
REMARK    6  A    between atoms: C4_8  and  S2_9 
REMARK    7  A    between atoms: N2_11  and  C5_14 
ROOT
HETATM    1  N2  LIG X 999      44.462 132.407  19.677  1.00  0.00     0.006 N 
HETATM    2  H10 LIG X 999      44.436 133.433  19.475  1.00  0.00     0.293 HD
HETATM    3  H11 LIG X 999      45.082 132.290  20.512  1.00  0.00     0.293 HD
ENDROOT
BRANCH   1   4
HETATM    4  C1  LIG X 999      43.130 131.939  20.009  1.00  0.00     0.240 C 
HETATM    5  N1  LIG X 999      42.840 131.351  21.132  1.00  0.00    -0.365 N 
HETATM    6  H2  LIG X 999      41.867 131.044  21.283  1.00  0.00     0.161 HD
BRANCH   4   7
HETATM    7  S1  LIG X 999      41.830 132.096  18.770  1.00  0.00    -0.100 SA
HETATM    8  H1  LIG X 999      42.699 132.694  17.838  1.00  0.00     0.110 HD
ENDBRANCH   4   7
BRANCH   5   9
HETATM    9  C2  LIG X 999      43.760 131.140  22.236  1.00  0.00     0.122 C 
BRANCH   9  10
HETATM   10  C3  LIG X 999      43.490 129.780  22.895  1.00  0.00     0.029 C 
BRANCH  10  11
HETATM   11  C4  LIG X 999      44.670 128.813  22.753  1.00  0.00     0.072 C 
BRANCH  11  12
HETATM   12  S2  LIG X 999      44.650 127.532  24.049  1.00  0.00    -0.182 SA
HETATM   13  H9  LIG X 999      44.499 128.468  25.089  1.00  0.00     0.101 HD
ENDBRANCH  11  12
ENDBRANCH  10  11
ENDBRANCH   9  10
ENDBRANCH   5   9
ENDBRANCH   1   4
BRANCH   1  14
HETATM   14  C5  LIG X 999      45.047 131.651  18.595  1.00  0.00     0.141 A 
HETATM   15  C6  LIG X 999      45.596 130.378  18.833  1.00  0.00     0.038 A 
HETATM   16  C7  LIG X 999      46.170 129.641  17.793  1.00  0.00     0.014 A 
HETATM   17  C8  LIG X 999      46.184 130.156  16.489  1.00  0.00    -0.026 A 
HETATM   18  C9  LIG X 999      46.763 129.427  15.439  1.00  0.00     0.012 A 
HETATM   19  C13 LIG X 999      45.601 131.418  16.229  1.00  0.00    -0.024 A 
HETATM   20  C10 LIG X 999      46.763 129.946  14.141  1.00  0.00     0.001 A 
HETATM   21  C11 LIG X 999      46.185 131.193  13.883  1.00  0.00     0.001 A 
HETATM   22  C12 LIG X 999      45.605 131.928  14.921  1.00  0.00     0.012 A 
HETATM   23  C14 LIG X 999      45.027 132.150  17.279  1.00  0.00     0.049 A 
ENDBRANCH   1  14
TORSDOF 7
