MODEL 1
REMARK VINA RESULT:      -8.3      0.000      0.000
REMARK  2 active torsions:
REMARK  status: ('A' for Active; 'I' for Inactive)
REMARK    1  A    between atoms: N1_1  and  C1_2 
REMARK    2  A    between atoms: C2_5  and  C3_6 
ROOT
HETATM    1  C3  LIG X 999      44.325 131.561  17.391  1.00  0.00     0.028 A 
HETATM    2  C4  LIG X 999      43.044 131.945  16.956  1.00  0.00     0.017 A 
HETATM    3  C5  LIG X 999      42.011 132.157  17.868  1.00  0.00     0.002 A 
HETATM    4  C6  LIG X 999      42.235 131.993  19.233  1.00  0.00     0.012 A 
HETATM    5  C7  LIG X 999      43.505 131.631  19.702  1.00  0.00    -0.025 A 
HETATM    6  C8  LIG X 999      43.722 131.488  21.082  1.00  0.00     0.012 A 
HETATM    7  C9  LIG X 999      44.990 131.160  21.563  1.00  0.00     0.001 A 
HETATM    8  C10 LIG X 999      46.051 130.985  20.677  1.00  0.00     0.001 A 
HETATM    9  C11 LIG X 999      45.852 131.120  19.302  1.00  0.00     0.013 A 
HETATM   10  C12 LIG X 999      44.572 131.423  18.785  1.00  0.00    -0.011 A 
ENDROOT
BRANCH   1  11
HETATM   11  C2  LIG X 999      45.351 131.279  16.358  1.00  0.00     0.178 A 
HETATM   12  N3  LIG X 999      45.871 132.197  15.521  1.00  0.00    -0.252 N 
HETATM   13  N2  LIG X 999      46.728 131.581  14.725  1.00  0.00    -0.128 NA
HETATM   14  H3  LIG X 999      45.664 133.220  15.490  1.00  0.00     0.191 HD
HETATM   15  C1  LIG X 999      46.691 130.290  15.110  1.00  0.00     0.263 A 
HETATM   16  O1  LIG X 999      45.854 130.092  16.101  1.00  0.00    -0.258 OA
BRANCH  15  17
HETATM   17  N1  LIG X 999      47.471 129.261  14.508  1.00  0.00    -0.362 N 
HETATM   18  H1  LIG X 999      48.487 129.409  14.324  1.00  0.00     0.159 HD
HETATM   19  H2  LIG X 999      47.028 128.352  14.250  1.00  0.00     0.159 HD
ENDBRANCH  15  17
ENDBRANCH   1  11
TORSDOF 2
ENDMDL
MODEL 2
REMARK VINA RESULT:      -8.2      1.091      2.905
REMARK  2 active torsions:
REMARK  status: ('A' for Active; 'I' for Inactive)
REMARK    1  A    between atoms: N1_1  and  C1_2 
REMARK    2  A    between atoms: C2_5  and  C3_6 
ROOT
HETATM    1  C3  LIG X 999      45.320 130.829  18.348  1.00  0.00     0.028 A 
HETATM    2  C4  LIG X 999      46.232 130.471  19.356  1.00  0.00     0.017 A 
HETATM    3  C5  LIG X 999      45.961 130.741  20.697  1.00  0.00     0.002 A 
HETATM    4  C6  LIG X 999      44.775 131.374  21.059  1.00  0.00     0.012 A 
HETATM    5  C7  LIG X 999      43.835 131.727  20.083  1.00  0.00    -0.025 A 
HETATM    6  C8  LIG X 999      42.634 132.346  20.463  1.00  0.00     0.012 A 
HETATM    7  C9  LIG X 999      41.676 132.673  19.504  1.00  0.00     0.001 A 
HETATM    8  C10 LIG X 999      41.901 132.375  18.161  1.00  0.00     0.001 A 
HETATM    9  C11 LIG X 999      43.091 131.761  17.764  1.00  0.00     0.013 A 
HETATM   10  C12 LIG X 999      44.091 131.446  18.712  1.00  0.00    -0.011 A 
ENDROOT
BRANCH   1  11
HETATM   11  C2  LIG X 999      45.712 130.579  16.940  1.00  0.00     0.178 A 
HETATM   12  N3  LIG X 999      45.717 129.369  16.348  1.00  0.00    -0.252 N 
HETATM   13  N2  LIG X 999      46.148 129.527  15.108  1.00  0.00    -0.128 NA
HETATM   14  H3  LIG X 999      45.428 128.456  16.763  1.00  0.00     0.191 HD
HETATM   15  C1  LIG X 999      46.397 130.846  14.993  1.00  0.00     0.263 A 
HETATM   16  O1  LIG X 999      46.138 131.498  16.103  1.00  0.00    -0.258 OA
BRANCH  15  17
HETATM   17  N1  LIG X 999      46.885 131.459  13.804  1.00  0.00    -0.362 N 
HETATM   18  H1  LIG X 999      46.313 131.449  12.932  1.00  0.00     0.159 HD
HETATM   19  H2  LIG X 999      47.820 131.925  13.801  1.00  0.00     0.159 HD
ENDBRANCH  15  17
ENDBRANCH   1  11
TORSDOF 2
ENDMDL
MODEL 3
REMARK VINA RESULT:      -6.8      2.724      5.133
REMARK  2 active torsions:
REMARK  status: ('A' for Active; 'I' for Inactive)
REMARK    1  A    between atoms: N1_1  and  C1_2 
REMARK    2  A    between atoms: C2_5  and  C3_6 
ROOT
HETATM    1  C3  LIG X 999      44.813 131.115  16.928  1.00  0.00     0.028 A 
HETATM    2  C4  LIG X 999      43.569 131.695  16.624  1.00  0.00     0.017 A 
HETATM    3  C5  LIG X 999      43.199 131.946  15.303  1.00  0.00     0.002 A 
HETATM    4  C6  LIG X 999      44.062 131.623  14.259  1.00  0.00     0.012 A 
HETATM    5  C7  LIG X 999      45.301 131.025  14.525  1.00  0.00    -0.025 A 
HETATM    6  C8  LIG X 999      46.152 130.686  13.462  1.00  0.00     0.012 A 
HETATM    7  C9  LIG X 999      47.374 130.061  13.712  1.00  0.00     0.001 A 
HETATM    8  C10 LIG X 999      47.750 129.758  15.019  1.00  0.00     0.001 A 
HETATM    9  C11 LIG X 999      46.917 130.091  16.089  1.00  0.00     0.013 A 
HETATM   10  C12 LIG X 999      45.687 130.751  15.866  1.00  0.00    -0.011 A 
ENDROOT
BRANCH   1  11
HETATM   11  C2  LIG X 999      45.169 130.949  18.358  1.00  0.00     0.178 A 
HETATM   12  N3  LIG X 999      46.039 130.036  18.832  1.00  0.00    -0.252 N 
HETATM   13  N2  LIG X 999      46.082 130.162  20.148  1.00  0.00    -0.128 NA
HETATM   14  H3  LIG X 999      46.601 129.348  18.284  1.00  0.00     0.191 HD
HETATM   15  C1  LIG X 999      45.219 131.158  20.428  1.00  0.00     0.263 A 
HETATM   16  O1  LIG X 999      44.654 131.644  19.347  1.00  0.00    -0.258 OA
BRANCH  15  17
HETATM   17  N1  LIG X 999      44.952 131.628  21.746  1.00  0.00    -0.362 N 
HETATM   18  H1  LIG X 999      44.266 132.398  21.903  1.00  0.00     0.159 HD
HETATM   19  H2  LIG X 999      45.442 131.201  22.563  1.00  0.00     0.159 HD
ENDBRANCH  15  17
ENDBRANCH   1  11
TORSDOF 2
ENDMDL
MODEL 4
REMARK VINA RESULT:      -6.3      1.574      2.205
REMARK  2 active torsions:
REMARK  status: ('A' for Active; 'I' for Inactive)
REMARK    1  A    between atoms: N1_1  and  C1_2 
REMARK    2  A    between atoms: C2_5  and  C3_6 
ROOT
HETATM    1  C3  LIG X 999      43.599 131.802  19.385  1.00  0.00     0.028 A 
HETATM    2  C4  LIG X 999      42.576 132.754  19.226  1.00  0.00     0.017 A 
HETATM    3  C5  LIG X 999      41.744 133.096  20.291  1.00  0.00     0.002 A 
HETATM    4  C6  LIG X 999      41.916 132.499  21.537  1.00  0.00     0.012 A 
HETATM    5  C7  LIG X 999      42.938 131.562  21.736  1.00  0.00    -0.025 A 
HETATM    6  C8  LIG X 999      43.114 130.981  23.002  1.00  0.00     0.012 A 
HETATM    7  C9  LIG X 999      44.148 130.071  23.221  1.00  0.00     0.001 A 
HETATM    8  C10 LIG X 999      45.022 129.743  22.186  1.00  0.00     0.001 A 
HETATM    9  C11 LIG X 999      44.861 130.309  20.920  1.00  0.00     0.013 A 
HETATM   10  C12 LIG X 999      43.803 131.210  20.663  1.00  0.00    -0.011 A 
ENDROOT
BRANCH   1  11
HETATM   11  C2  LIG X 999      44.393 131.432  18.189  1.00  0.00     0.178 A 
HETATM   12  N3  LIG X 999      44.119 131.833  16.932  1.00  0.00    -0.252 N 
HETATM   13  N2  LIG X 999      45.017 131.288  16.129  1.00  0.00    -0.128 NA
HETATM   14  H3  LIG X 999      43.352 132.468  16.619  1.00  0.00     0.191 HD
HETATM   15  C1  LIG X 999      45.810 130.561  16.939  1.00  0.00     0.263 A 
HETATM   16  O1  LIG X 999      45.439 130.637  18.195  1.00  0.00    -0.258 OA
BRANCH  15  17
HETATM   17  N1  LIG X 999      46.922 129.797  16.481  1.00  0.00    -0.362 N 
HETATM   18  H1  LIG X 999      47.825 129.815  17.004  1.00  0.00     0.159 HD
HETATM   19  H2  LIG X 999      46.837 129.213  15.621  1.00  0.00     0.159 HD
ENDBRANCH  15  17
ENDBRANCH   1  11
TORSDOF 2
ENDMDL
MODEL 5
REMARK VINA RESULT:      -6.3      7.258      8.533
REMARK  2 active torsions:
REMARK  status: ('A' for Active; 'I' for Inactive)
REMARK    1  A    between atoms: N1_1  and  C1_2 
REMARK    2  A    between atoms: C2_5  and  C3_6 
ROOT
HETATM    1  C3  LIG X 999      49.143 136.169  21.356  1.00  0.00     0.028 A 
HETATM    2  C4  LIG X 999      48.127 135.222  21.573  1.00  0.00     0.017 A 
HETATM    3  C5  LIG X 999      48.249 134.253  22.568  1.00  0.00     0.002 A 
HETATM    4  C6  LIG X 999      49.387 134.210  23.369  1.00  0.00     0.012 A 
HETATM    5  C7  LIG X 999      50.411 135.150  23.194  1.00  0.00    -0.025 A 
HETATM    6  C8  LIG X 999      51.544 135.108  24.021  1.00  0.00     0.012 A 
HETATM    7  C9  LIG X 999      52.555 136.058  23.879  1.00  0.00     0.001 A 
HETATM    8  C10 LIG X 999      52.439 137.065  22.921  1.00  0.00     0.001 A 
HETATM    9  C11 LIG X 999      51.320 137.120  22.088  1.00  0.00     0.013 A 
HETATM   10  C12 LIG X 999      50.295 136.152  22.191  1.00  0.00    -0.011 A 
ENDROOT
BRANCH   1  11
HETATM   11  C2  LIG X 999      48.977 137.118  20.230  1.00  0.00     0.178 A 
HETATM   12  N3  LIG X 999      47.994 138.035  20.137  1.00  0.00    -0.252 N 
HETATM   13  N2  LIG X 999      48.146 138.677  18.992  1.00  0.00    -0.128 NA
HETATM   14  H3  LIG X 999      47.241 138.234  20.833  1.00  0.00     0.191 HD
HETATM   15  C1  LIG X 999      49.228 138.114  18.420  1.00  0.00     0.263 A 
HETATM   16  O1  LIG X 999      49.741 137.161  19.162  1.00  0.00    -0.258 OA
BRANCH  15  17
HETATM   17  N1  LIG X 999      49.751 138.509  17.155  1.00  0.00    -0.362 N 
HETATM   18  H1  LIG X 999      49.765 139.515  16.881  1.00  0.00     0.159 HD
HETATM   19  H2  LIG X 999      50.126 137.791  16.497  1.00  0.00     0.159 HD
ENDBRANCH  15  17
ENDBRANCH   1  11
TORSDOF 2
ENDMDL
MODEL 6
REMARK VINA RESULT:      -5.4      3.146      4.781
REMARK  2 active torsions:
REMARK  status: ('A' for Active; 'I' for Inactive)
REMARK    1  A    between atoms: N1_1  and  C1_2 
REMARK    2  A    between atoms: C2_5  and  C3_6 
ROOT
HETATM    1  C3  LIG X 999      43.790 131.045  21.924  1.00  0.00     0.028 A 
HETATM    2  C4  LIG X 999      43.079 132.003  22.669  1.00  0.00     0.017 A 
HETATM    3  C5  LIG X 999      42.752 131.773  24.005  1.00  0.00     0.002 A 
HETATM    4  C6  LIG X 999      43.128 130.585  24.625  1.00  0.00     0.012 A 
HETATM    5  C7  LIG X 999      43.855 129.618  23.918  1.00  0.00    -0.025 A 
HETATM    6  C8  LIG X 999      44.246 128.433  24.562  1.00  0.00     0.012 A 
HETATM    7  C9  LIG X 999      44.997 127.477  23.878  1.00  0.00     0.001 A 
HETATM    8  C10 LIG X 999      45.376 127.699  22.555  1.00  0.00     0.001 A 
HETATM    9  C11 LIG X 999      44.994 128.871  21.899  1.00  0.00     0.013 A 
HETATM   10  C12 LIG X 999      44.207 129.842  22.558  1.00  0.00    -0.011 A 
ENDROOT
BRANCH   1  11
HETATM   11  C2  LIG X 999      44.033 131.327  20.489  1.00  0.00     0.178 A 
HETATM   12  N3  LIG X 999      45.251 131.486  19.933  1.00  0.00    -0.252 N 
HETATM   13  N2  LIG X 999      45.078 131.750  18.649  1.00  0.00    -0.128 NA
HETATM   14  H3  LIG X 999      46.180 131.408  20.403  1.00  0.00     0.191 HD
HETATM   15  C1  LIG X 999      43.743 131.748  18.472  1.00  0.00     0.263 A 
HETATM   16  O1  LIG X 999      43.095 131.494  19.584  1.00  0.00    -0.258 OA
BRANCH  15  17
HETATM   17  N1  LIG X 999      43.110 131.993  17.219  1.00  0.00    -0.362 N 
HETATM   18  H1  LIG X 999      43.399 131.461  16.369  1.00  0.00     0.159 HD
HETATM   19  H2  LIG X 999      42.352 132.706  17.147  1.00  0.00     0.159 HD
ENDBRANCH  15  17
ENDBRANCH   1  11
TORSDOF 2
ENDMDL
