REMARK VINA RESULT:      -5.2      2.513      3.073
REMARK  6 active torsions:
REMARK  status: ('A' for Active; 'I' for Inactive)
REMARK    1  A    between atoms: C8_8  and  O1_9 
REMARK    2  A    between atoms: O1_9  and  C9_10 
REMARK    3  A    between atoms: C9_10  and  C10_11 
REMARK    4  A    between atoms: C10_11  and  C11_12 
REMARK    5  A    between atoms: C11_12  and  N1_13 
REMARK    6  A    between atoms: C13_18  and  N4_19 
ROOT
HETATM    1  N1  LIG X 999      46.886 129.477  14.721  1.00  0.00    -0.116 NA
HETATM    2  N2  LIG X 999      47.182 130.300  13.854  1.00  0.00    -0.168 NA
HETATM    3  N3  LIG X 999      47.477 131.122  12.988  1.00  0.00     0.068 N 
ENDROOT
BRANCH   1   4
HETATM    4  C11 LIG X 999      46.517 129.902  16.067  1.00  0.00     0.191 C 
BRANCH   4   5
HETATM    5  C10 LIG X 999      45.253 130.766  16.029  1.00  0.00     0.051 C 
BRANCH   5   6
HETATM    6  C9  LIG X 999      45.199 131.776  17.178  1.00  0.00     0.170 C 
BRANCH   6   7
HETATM    7  O1  LIG X 999      44.099 131.484  18.015  1.00  0.00    -0.384 OA
BRANCH   7   8
HETATM    8  C8  LIG X 999      44.315 131.974  19.328  1.00  0.00     0.146 C 
HETATM    9  C7  LIG X 999      43.102 131.602  20.194  1.00  0.00     0.072 C 
HETATM   10  C5  LIG X 999      43.349 131.753  21.677  1.00  0.00    -0.047 A 
HETATM   11  C4  LIG X 999      44.659 131.800  22.216  1.00  0.00    -0.023 A 
HETATM   12  C6  LIG X 999      42.247 131.717  22.546  1.00  0.00     0.008 A 
HETATM   13  C3  LIG X 999      44.827 131.829  23.611  1.00  0.00     0.010 A 
HETATM   14  C13 LIG X 999      45.881 131.905  21.324  1.00  0.00     0.199 C 
HETATM   15  C2  LIG X 999      43.721 131.805  24.461  1.00  0.00     0.001 A 
HETATM   16  C1  LIG X 999      42.432 131.752  23.929  1.00  0.00     0.001 A 
HETATM   17  C12 LIG X 999      45.610 131.365  19.909  1.00  0.00     0.143 C 
HETATM   18 CL1  LIG X 999      45.547 129.573  19.920  1.00  0.00    -0.120 Cl
BRANCH  14  19
HETATM   19  N4  LIG X 999      46.310 133.300  21.229  1.00  0.00    -0.104 NA
HETATM   20  N5  LIG X 999      47.353 133.688  21.757  1.00  0.00    -0.167 NA
HETATM   21  N6  LIG X 999      48.394 134.077  22.284  1.00  0.00     0.068 N 
ENDBRANCH  14  19
ENDBRANCH   7   8
ENDBRANCH   6   7
ENDBRANCH   5   6
ENDBRANCH   4   5
ENDBRANCH   1   4
TORSDOF 6
