REMARK VINA RESULT:      -5.0      3.438      4.939
REMARK  6 active torsions:
REMARK  status: ('A' for Active; 'I' for Inactive)
REMARK    1  A    between atoms: C6_6  and  N1_7 
REMARK       I    between atoms: N1_7  and  C7_8 
REMARK    2  A    between atoms: C7_8  and  O2_10 
REMARK    3  A    between atoms: O2_10  and  C8_11 
REMARK    4  A    between atoms: C8_11  and  C10_13 
REMARK    5  A    between atoms: C10_13  and  O3_14 
REMARK    6  A    between atoms: C12_16  and  N2_17 
ROOT
HETATM    1  N2  LIG X 999      42.725 132.543  20.497  1.00  0.00    -0.070 NA
HETATM    2  N3  LIG X 999      42.172 132.567  19.396  1.00  0.00    -0.162 NA
HETATM    3  N4  LIG X 999      41.619 132.593  18.298  1.00  0.00     0.068 N 
ENDROOT
BRANCH   1   4
HETATM    4  C12 LIG X 999      43.486 131.413  20.952  1.00  0.00     0.122 A 
HETATM    5  C6  LIG X 999      44.695 131.102  20.306  1.00  0.00     0.095 A 
HETATM    6  C5  LIG X 999      45.439 129.982  20.718  1.00  0.00     0.046 A 
HETATM    7  C4  LIG X 999      45.007 129.199  21.798  1.00  0.00    -0.024 A 
HETATM    8  C3  LIG X 999      45.755 128.088  22.220  1.00  0.00     0.012 A 
HETATM    9  C14 LIG X 999      43.805 129.527  22.465  1.00  0.00    -0.024 A 
HETATM   10  C2  LIG X 999      45.316 127.314  23.297  1.00  0.00     0.001 A 
HETATM   11  C1  LIG X 999      44.129 127.640  23.959  1.00  0.00     0.001 A 
HETATM   12  C15 LIG X 999      43.374 128.742  23.547  1.00  0.00     0.012 A 
HETATM   13  C13 LIG X 999      43.050 130.628  22.036  1.00  0.00     0.049 A 
BRANCH   5  14
HETATM   14  N1  LIG X 999      45.118 131.909  19.194  1.00  0.00    -0.185 NA
HETATM   15  C7  LIG X 999      45.285 131.455  17.848  1.00  0.00     0.387 C 
HETATM   16  O1  LIG X 999      45.420 132.306  16.928  1.00  0.00    -0.236 OA
BRANCH  15  17
HETATM   17  O2  LIG X 999      45.340 130.085  17.564  1.00  0.00    -0.295 OA
BRANCH  17  18
HETATM   18  C8  LIG X 999      45.455 129.552  16.244  1.00  0.00     0.153 C 
HETATM   19  C9  LIG X 999      44.376 130.157  15.339  1.00  0.00     0.042 C 
BRANCH  18  20
HETATM   20  C10 LIG X 999      46.858 129.865  15.713  1.00  0.00     0.199 C 
BRANCH  20  21
HETATM   21  O3  LIG X 999      46.839 129.889  14.301  1.00  0.00    -0.393 OA
HETATM   22  C11 LIG X 999      48.086 129.454  13.810  1.00  0.00     0.201 C 
ENDBRANCH  20  21
ENDBRANCH  18  20
ENDBRANCH  17  18
ENDBRANCH  15  17
ENDBRANCH   5  14
ENDBRANCH   1   4
TORSDOF 6
