REMARK VINA RESULT:      -6.3      1.930      7.051
REMARK  3 active torsions:
REMARK  status: ('A' for Active; 'I' for Inactive)
REMARK    1  A    between atoms: C7_9  and  C8_10 
REMARK    2  A    between atoms: C9_14  and  N4_15 
REMARK    3  A    between atoms: N7_24  and  C14_25 
ROOT
HETATM    1  N4  LIG X 999      41.821 130.183  24.625  1.00  0.00    -0.025 NA
HETATM    2  N5  LIG X 999      41.381 129.043  24.474  1.00  0.00    -0.158 NA
HETATM    3  N6  LIG X 999      40.943 127.904  24.324  1.00  0.00     0.068 N 
ENDROOT
BRANCH   1   4
HETATM    4  C9  LIG X 999      42.813 130.703  23.742  1.00  0.00     0.302 A 
HETATM    5  N3  LIG X 999      43.758 131.580  24.109  1.00  0.00    -0.236 N 
HETATM    6  N2  LIG X 999      44.492 131.831  23.039  1.00  0.00    -0.145 NA
HETATM    7  H4  LIG X 999      43.910 131.996  25.054  1.00  0.00     0.193 HD
HETATM    8  C8  LIG X 999      43.950 131.092  22.044  1.00  0.00     0.203 A 
HETATM    9  O1  LIG X 999      42.924 130.390  22.475  1.00  0.00    -0.253 OA
BRANCH   8  10
HETATM   10  C7  LIG X 999      44.488 131.042  20.670  1.00  0.00     0.032 A 
HETATM   11  C6  LIG X 999      43.736 131.448  19.524  1.00  0.00     0.020 A 
HETATM   12  C1  LIG X 999      42.415 132.158  19.467  1.00  0.00     0.060 A 
HETATM   13  C5  LIG X 999      44.325 131.225  18.293  1.00  0.00     0.019 A 
HETATM   14  N1  LIG X 999      41.835 132.586  20.542  1.00  0.00    -0.299 NA
HETATM   15  C2  LIG X 999      41.817 132.467  18.124  1.00  0.00     0.034 A 
HETATM   16  H1  LIG X 999      40.933 133.113  20.513  1.00  0.00     0.187 HD
HETATM   17  C3  LIG X 999      42.474 132.179  16.981  1.00  0.00     0.033 A 
HETATM   18  C4  LIG X 999      43.797 131.538  17.080  1.00  0.00     0.048 A 
HETATM   19  N7  LIG X 999      44.678 131.214  16.101  1.00  0.00    -0.324 N 
HETATM   20  C13 LIG X 999      45.772 130.713  16.738  1.00  0.00     0.193 A 
HETATM   21  C12 LIG X 999      45.565 130.707  18.108  1.00  0.00     0.032 A 
HETATM   22  O2  LIG X 999      46.930 130.292  16.095  1.00  0.00    -0.171 OA
HETATM   23  C11 LIG X 999      46.352 130.342  19.194  1.00  0.00     0.018 A 
HETATM   24  C10 LIG X 999      45.801 130.510  20.484  1.00  0.00     0.018 A 
BRANCH  19  25
HETATM   25  C14 LIG X 999      44.537 131.457  14.666  1.00  0.00     0.127 C 
HETATM   26  C15 LIG X 999      45.790 131.000  13.928  1.00  0.00     0.027 C 
ENDBRANCH  19  25
ENDBRANCH   8  10
ENDBRANCH   1   4
TORSDOF 3
