REMARK VINA RESULT:      -3.5      3.880      6.097
REMARK  5 active torsions:
REMARK  status: ('A' for Active; 'I' for Inactive)
REMARK    1  A    between atoms: C3_3  and  O1_4 
REMARK    2  A    between atoms: O1_4  and  C4_5 
REMARK    3  A    between atoms: C5_6  and  C6_7 
REMARK    4  A    between atoms: C6_7  and  O2_8 
REMARK    5  A    between atoms: C17_20  and  N1_21 
ROOT
HETATM    1  C1  LIG X 999      45.693 131.468  16.649  1.00  0.00     0.014 C 
HETATM    2  C2  LIG X 999      45.751 130.598  17.482  1.00  0.00    -0.091 C 
HETATM    3  C3  LIG X 999      45.823 129.544  18.493  1.00  0.00     0.268 C 
ENDROOT
BRANCH   3   4
HETATM    4  O1  LIG X 999      46.113 130.126  19.759  1.00  0.00    -0.337 OA
BRANCH   4   5
HETATM    5  C4  LIG X 999      45.201 130.052  20.816  1.00  0.00     0.106 C 
HETATM    6  C5  LIG X 999      44.249 131.075  20.993  1.00  0.00     0.012 C 
HETATM    7  C7  LIG X 999      43.438 131.070  22.157  1.00  0.00    -0.014 C 
HETATM    8  C8  LIG X 999      42.572 132.151  22.448  1.00  0.00     0.013 C 
HETATM    9  C12 LIG X 999      43.528 129.988  23.082  1.00  0.00    -0.012 C 
HETATM   10  C9  LIG X 999      41.893 132.217  23.661  1.00  0.00     0.001 C 
HETATM   11  C10 LIG X 999      42.090 131.234  24.621  1.00  0.00     0.001 C 
HETATM   12  C11 LIG X 999      42.915 130.146  24.348  1.00  0.00     0.013 C 
HETATM   13  C13 LIG X 999      44.308 128.838  22.751  1.00  0.00     0.011 C 
HETATM   14  C14 LIG X 999      44.208 127.570  23.407  1.00  0.00    -0.045 C 
HETATM   15  C18 LIG X 999      45.231 128.938  21.676  1.00  0.00     0.080 C 
HETATM   16  C15 LIG X 999      43.019 127.132  24.230  1.00  0.00     0.049 C 
HETATM   17  C16 LIG X 999      45.185 126.596  23.169  1.00  0.00     0.061 C 
HETATM   18  C17 LIG X 999      46.165 126.803  22.196  1.00  0.00     0.165 C 
HETATM   19  N4  LIG X 999      46.135 127.936  21.451  1.00  0.00    -0.336 N 
HETATM   20  H15 LIG X 999      46.838 128.018  20.682  1.00  0.00     0.168 HD
BRANCH   6  21
HETATM   21  C6  LIG X 999      44.138 132.181  19.959  1.00  0.00     0.206 C 
BRANCH  21  22
HETATM   22  O2  LIG X 999      43.076 131.905  19.089  1.00  0.00    -0.396 OA
HETATM   23  H6  LIG X 999      42.265 131.828  19.656  1.00  0.00     0.209 HD
ENDBRANCH  21  22
ENDBRANCH   6  21
BRANCH  18  24
HETATM   24  N1  LIG X 999      47.167 125.812  21.918  1.00  0.00    -0.054 NA
HETATM   25  N2  LIG X 999      46.904 124.612  21.833  1.00  0.00    -0.160 NA
HETATM   26  N3  LIG X 999      46.644 123.412  21.748  1.00  0.00     0.068 N 
ENDBRANCH  18  24
ENDBRANCH   4   5
ENDBRANCH   3   4
TORSDOF 5
