REMARK VINA RESULT:      -6.1      1.706      2.329
REMARK  2 active torsions:
REMARK  status: ('A' for Active; 'I' for Inactive)
REMARK    1  A    between atoms: C1_1  and  N1_2 
REMARK    2  A    between atoms: C2_5  and  C3_7 
ROOT
HETATM    1  N1  LIG X 999      46.563 130.132  15.989  1.00  0.00    -0.082 NA
HETATM    2  N2  LIG X 999      45.937 130.311  14.943  1.00  0.00    -0.163 NA
HETATM    3  N3  LIG X 999      45.312 130.488  13.899  1.00  0.00     0.068 N 
ENDROOT
BRANCH   1   4
HETATM    4  C1  LIG X 999      45.893 130.154  17.248  1.00  0.00     0.196 C 
HETATM    5  C2  LIG X 999      45.329 131.285  17.692  1.00  0.00     0.137 C 
HETATM    6  O1  LIG X 999      45.432 132.437  16.919  1.00  0.00    -0.190 OA
BRANCH   5   7
HETATM    7  C3  LIG X 999      44.616 131.357  18.995  1.00  0.00     0.003 A 
HETATM    8  C4  LIG X 999      43.464 132.155  19.103  1.00  0.00     0.015 A 
HETATM    9  C5  LIG X 999      42.764 132.241  20.308  1.00  0.00     0.013 A 
HETATM   10  C6  LIG X 999      43.196 131.521  21.428  1.00  0.00    -0.026 A 
HETATM   11  C7  LIG X 999      42.498 131.599  22.644  1.00  0.00     0.012 A 
HETATM   12  C11 LIG X 999      44.346 130.701  21.332  1.00  0.00    -0.025 A 
HETATM   13  C8  LIG X 999      42.937 130.870  23.753  1.00  0.00     0.001 A 
HETATM   14  C9  LIG X 999      44.070 130.059  23.658  1.00  0.00     0.001 A 
HETATM   15  C10 LIG X 999      44.773 129.971  22.454  1.00  0.00     0.012 A 
HETATM   16  C12 LIG X 999      45.045 130.621  20.118  1.00  0.00     0.026 A 
ENDBRANCH   5   7
ENDBRANCH   1   4
TORSDOF 2
