REMARK VINA RESULT:      -6.3      3.494      6.388
REMARK  1 active torsions:
REMARK  status: ('A' for Active; 'I' for Inactive)
REMARK    1  A    between atoms: C14_14  and  N1_15 
ROOT
HETATM    1  N1  LIG X 999      45.089 130.467  14.949  1.00  0.00    -0.054 NA
HETATM    2  N2  LIG X 999      46.081 130.921  14.374  1.00  0.00    -0.160 NA
HETATM    3  N3  LIG X 999      47.070 131.373  13.801  1.00  0.00     0.068 N 
ENDROOT
BRANCH   1   4
HETATM    4  C14 LIG X 999      44.746 130.828  16.295  1.00  0.00     0.165 C 
HETATM    5  C13 LIG X 999      43.506 131.395  16.607  1.00  0.00     0.061 C 
HETATM    6  C11 LIG X 999      43.201 131.756  17.927  1.00  0.00    -0.045 C 
HETATM    7  C10 LIG X 999      44.111 131.411  18.975  1.00  0.00     0.008 C 
HETATM    8  C12 LIG X 999      41.984 132.631  18.111  1.00  0.00     0.049 C 
HETATM    9  C4  LIG X 999      43.835 131.520  20.380  1.00  0.00    -0.013 C 
HETATM   10  C9  LIG X 999      45.404 130.961  18.580  1.00  0.00     0.045 C 
HETATM   11  C3  LIG X 999      42.527 131.597  20.915  1.00  0.00     0.013 C 
HETATM   12  C5  LIG X 999      44.915 131.440  21.307  1.00  0.00    -0.025 C 
HETATM   13  C2  LIG X 999      42.315 131.760  22.285  1.00  0.00     0.001 C 
HETATM   14  C1  LIG X 999      43.394 131.799  23.163  1.00  0.00     0.001 C 
HETATM   15  C6  LIG X 999      44.688 131.619  22.681  1.00  0.00     0.012 C 
HETATM   16  C7  LIG X 999      46.200 131.126  20.863  1.00  0.00     0.014 C 
HETATM   17  C8  LIG X 999      46.429 130.835  19.526  1.00  0.00     0.031 C 
HETATM   18  N4  LIG X 999      45.670 130.668  17.275  1.00  0.00    -0.338 N 
HETATM   19  H11 LIG X 999      46.613 130.302  17.007  1.00  0.00     0.167 HD
ENDBRANCH   1   4
TORSDOF 1
