REMARK VINA RESULT:      -8.1      0.000      0.000
REMARK  3 active torsions:
REMARK  status: ('A' for Active; 'I' for Inactive)
REMARK    1  A    between atoms: O1_2  and  C2_3 
REMARK    2  A    between atoms: C2_3  and  C3_5 
REMARK    3  A    between atoms: C4_6  and  C5_7 
ROOT
HETATM    1  C5  LIG X 999      45.491 131.313  17.215  1.00  0.00     0.019 A 
HETATM    2  C6  LIG X 999      45.378 132.447  16.402  1.00  0.00     0.021 A 
HETATM    3  C7  LIG X 999      45.962 132.465  15.132  1.00  0.00     0.013 A 
HETATM    4  C8  LIG X 999      46.668 131.346  14.664  1.00  0.00    -0.026 A 
HETATM    5  C9  LIG X 999      47.260 131.353  13.391  1.00  0.00     0.012 A 
HETATM    6  C10 LIG X 999      47.961 130.233  12.937  1.00  0.00     0.001 A 
HETATM    7  C11 LIG X 999      48.076 129.099  13.747  1.00  0.00     0.001 A 
HETATM    8  C12 LIG X 999      47.492 129.078  15.017  1.00  0.00     0.012 A 
HETATM    9  C13 LIG X 999      46.785 130.198  15.485  1.00  0.00    -0.025 A 
HETATM   10  C14 LIG X 999      46.194 130.190  16.758  1.00  0.00     0.032 A 
ENDROOT
BRANCH   1  11
HETATM   11  C4  LIG X 999      44.886 131.301  18.520  1.00  0.00    -0.056 C 
HETATM   12  C3  LIG X 999      44.380 131.291  19.614  1.00  0.00     0.008 C 
BRANCH  12  13
HETATM   13  C2  LIG X 999      43.776 131.279  20.916  1.00  0.00     0.339 C 
HETATM   14  O2  LIG X 999      44.297 130.596  21.837  1.00  0.00    -0.249 OA
BRANCH  13  15
HETATM   15  O1  LIG X 999      42.618 132.027  21.143  1.00  0.00    -0.316 OA
HETATM   16  C1  LIG X 999      41.992 132.797  20.124  1.00  0.00     0.214 C 
ENDBRANCH  13  15
ENDBRANCH  12  13
ENDBRANCH   1  11
TORSDOF 3
