REMARK VINA RESULT:      -6.9      1.853      3.115
REMARK  1 active torsions:
REMARK  status: ('A' for Active; 'I' for Inactive)
REMARK    1  A    between atoms: C5_8  and  O1_9 
ROOT
HETATM    1  H1  LIG X 999      43.923 131.343  14.564  1.00  0.00     0.187 HD
HETATM    2  N1  LIG X 999      43.507 131.590  15.490  1.00  0.00    -0.300 NA
HETATM    3  C1  LIG X 999      44.126 131.347  16.601  1.00  0.00     0.059 A 
HETATM    4  C2  LIG X 999      45.483 130.696  16.608  1.00  0.00     0.034 A 
HETATM    5  C3  LIG X 999      46.130 130.442  17.770  1.00  0.00     0.035 A 
HETATM    6  C4  LIG X 999      45.474 130.820  19.035  1.00  0.00     0.071 A 
HETATM    7  N2  LIG X 999      45.918 130.669  20.305  1.00  0.00    -0.224 NA
HETATM    8  C5  LIG X 999      44.917 131.189  21.075  1.00  0.00     0.174 A 
HETATM    9  C6  LIG X 999      43.871 131.653  20.292  1.00  0.00     0.030 A 
HETATM   10  C7  LIG X 999      42.641 132.258  20.558  1.00  0.00     0.017 A 
HETATM   11  C8  LIG X 999      41.827 132.594  19.447  1.00  0.00     0.002 A 
HETATM   12  C9  LIG X 999      42.258 132.321  18.118  1.00  0.00     0.015 A 
HETATM   13  C10 LIG X 999      43.511 131.708  17.906  1.00  0.00     0.005 A 
HETATM   14  C11 LIG X 999      44.255 131.405  19.024  1.00  0.00     0.020 A 
ENDROOT
BRANCH   8  15
HETATM   15  O1  LIG X 999      44.957 131.238  22.463  1.00  0.00    -0.344 OA
HETATM   16  H4  LIG X 999      45.669 131.778  22.939  1.00  0.00     0.219 HD
ENDBRANCH   8  15
TORSDOF 1
