REMARK VINA RESULT:      -5.9      2.078      6.341
REMARK  1 active torsions:
REMARK  status: ('A' for Active; 'I' for Inactive)
REMARK    1  A    between atoms: C9_10  and  N2_11 
ROOT
HETATM    1  C1  LIG X 999      42.880 130.957  20.077  1.00  0.00     0.272 C 
HETATM    2  N1  LIG X 999      44.279 131.437  19.965  1.00  0.00    -0.067 N 
HETATM    3  C2  LIG X 999      44.689 132.033  21.256  1.00  0.00     0.272 C 
HETATM    4  C3  LIG X 999      44.387 132.444  18.860  1.00  0.00     0.276 C 
HETATM    5  C4  LIG X 999      45.136 131.768  17.778  1.00  0.00    -0.024 A 
HETATM    6  C5  LIG X 999      45.409 132.250  16.497  1.00  0.00     0.021 A 
HETATM    7  C6  LIG X 999      46.166 131.446  15.622  1.00  0.00    -0.025 A 
HETATM    8  C7  LIG X 999      46.462 131.886  14.325  1.00  0.00     0.014 A 
HETATM    9  C8  LIG X 999      47.216 131.082  13.465  1.00  0.00     0.030 A 
HETATM   10  C9  LIG X 999      47.683 129.829  13.888  1.00  0.00     0.026 A 
HETATM   11  C10 LIG X 999      47.394 129.379  15.184  1.00  0.00     0.041 A 
HETATM   12  C11 LIG X 999      46.637 130.175  16.057  1.00  0.00    -0.023 A 
HETATM   13  C12 LIG X 999      46.345 129.729  17.362  1.00  0.00     0.021 A 
HETATM   14  C13 LIG X 999      45.586 130.553  18.195  1.00  0.00    -0.024 A 
HETATM   15  C14 LIG X 999      45.182 130.301  19.595  1.00  0.00     0.276 C 
ENDROOT
BRANCH  10  16
HETATM   16  N2  LIG X 999      48.453 129.014  13.001  1.00  0.00    -0.399 N 
HETATM   17  H12 LIG X 999      48.292 127.984  12.944  1.00  0.00     0.156 HD
HETATM   18  H13 LIG X 999      49.193 129.434  12.395  1.00  0.00     0.156 HD
ENDBRANCH  10  16
TORSDOF 1
