REMARK VINA RESULT:      -7.6      0.000      0.000
REMARK  1 active torsions:
REMARK  status: ('A' for Active; 'I' for Inactive)
REMARK    1  A    between atoms: N1_2  and  C1_3 
ROOT
HETATM    1  C1  LIG X 999      43.126 131.682  22.044  1.00  0.00     0.143 C 
HETATM    2  N2  LIG X 999      42.365 131.909  20.945  1.00  0.00    -0.229 NA
HETATM    3  C2  LIG X 999      42.868 131.829  19.686  1.00  0.00     0.070 C 
HETATM    4  C3  LIG X 999      42.029 132.144  18.617  1.00  0.00     0.033 C 
HETATM    5  C4  LIG X 999      42.497 132.085  17.312  1.00  0.00     0.014 C 
HETATM    6  C5  LIG X 999      43.781 131.602  17.044  1.00  0.00    -0.025 C 
HETATM    7  C6  LIG X 999      44.191 131.452  15.709  1.00  0.00     0.012 C 
HETATM    8  C7  LIG X 999      45.410 130.849  15.412  1.00  0.00     0.001 C 
HETATM    9  C8  LIG X 999      46.209 130.356  16.438  1.00  0.00     0.001 C 
HETATM   10  C9  LIG X 999      45.821 130.511  17.772  1.00  0.00     0.013 C 
HETATM   11  C10 LIG X 999      44.640 131.213  18.113  1.00  0.00    -0.013 C 
HETATM   12  C11 LIG X 999      44.223 131.452  19.466  1.00  0.00     0.010 C 
HETATM   13  C12 LIG X 999      45.067 131.381  20.623  1.00  0.00    -0.045 C 
HETATM   14  C13 LIG X 999      46.576 131.408  20.579  1.00  0.00     0.049 C 
HETATM   15  C14 LIG X 999      44.487 131.430  21.900  1.00  0.00     0.059 C 
ENDROOT
BRANCH   1  16
HETATM   16  N1  LIG X 999      42.598 131.744  23.223  1.00  0.00    -0.282 NA
HETATM   17  H1  LIG X 999      42.699 132.591  23.825  1.00  0.00     0.188 HD
ENDBRANCH   1  16
TORSDOF 1
