REMARK VINA RESULT:      -6.4      1.554      2.810
REMARK  1 active torsions:
REMARK  status: ('A' for Active; 'I' for Inactive)
REMARK    1  A    between atoms: C1_2  and  C2_3 
ROOT
HETATM    1  C2  LIG X 999      44.295 131.478  19.877  1.00  0.00     0.013 A 
HETATM    2  C3  LIG X 999      43.054 132.024  20.258  1.00  0.00     0.015 A 
HETATM    3  C4  LIG X 999      42.096 132.371  19.308  1.00  0.00     0.002 A 
HETATM    4  C5  LIG X 999      42.350 132.182  17.954  1.00  0.00     0.012 A 
HETATM    5  C6  LIG X 999      43.571 131.643  17.532  1.00  0.00    -0.025 A 
HETATM    6  C7  LIG X 999      43.809 131.461  16.161  1.00  0.00     0.012 A 
HETATM    7  C8  LIG X 999      45.018 130.927  15.721  1.00  0.00     0.001 A 
HETATM    8  C9  LIG X 999      45.999 130.567  16.642  1.00  0.00     0.001 A 
HETATM    9  C10 LIG X 999      45.782 130.741  18.011  1.00  0.00     0.013 A 
HETATM   10  C11 LIG X 999      44.564 131.282  18.489  1.00  0.00    -0.013 A 
ENDROOT
BRANCH   1  11
HETATM   11  C1  LIG X 999      45.268 131.132  20.948  1.00  0.00     0.270 C 
HETATM   12  O1  LIG X 999      45.001 130.240  21.799  1.00  0.00    -0.301 OA
ENDBRANCH   1  11
TORSDOF 1
