REMARK VINA RESULT:      -7.5      1.160      1.359
REMARK  2 active torsions:
REMARK  status: ('A' for Active; 'I' for Inactive)
REMARK    1  A    between atoms: N1_1  and  C1_2 
REMARK    2  A    between atoms: C2_5  and  C3_6 
ROOT
HETATM    1  C3  LIG X 999      43.685 131.697  17.673  1.00  0.00     0.030 A 
HETATM    2  C4  LIG X 999      42.369 132.192  17.636  1.00  0.00     0.017 A 
HETATM    3  C5  LIG X 999      41.666 132.454  18.809  1.00  0.00     0.002 A 
HETATM    4  C6  LIG X 999      42.259 132.226  20.048  1.00  0.00     0.012 A 
HETATM    5  C7  LIG X 999      43.558 131.708  20.125  1.00  0.00    -0.025 A 
HETATM    6  C8  LIG X 999      44.135 131.459  21.380  1.00  0.00     0.012 A 
HETATM    7  C9  LIG X 999      45.412 130.907  21.471  1.00  0.00     0.001 A 
HETATM    8  C10 LIG X 999      46.120 130.588  20.315  1.00  0.00     0.001 A 
HETATM    9  C11 LIG X 999      45.564 130.832  19.056  1.00  0.00     0.013 A 
HETATM   10  C12 LIG X 999      44.285 131.420  18.934  1.00  0.00    -0.011 A 
ENDROOT
BRANCH   1  11
HETATM   11  C2  LIG X 999      44.391 131.527  16.380  1.00  0.00     0.205 A 
HETATM   12  N3  LIG X 999      43.798 131.085  15.251  1.00  0.00    -0.119 NA
HETATM   13  N2  LIG X 999      44.726 131.099  14.306  1.00  0.00    -0.103 NA
HETATM   14  C1  LIG X 999      45.843 131.555  14.898  1.00  0.00     0.265 A 
HETATM   15  O1  LIG X 999      45.651 131.826  16.165  1.00  0.00    -0.255 OA
BRANCH  14  16
HETATM   16  N1  LIG X 999      47.086 131.726  14.224  1.00  0.00    -0.362 N 
HETATM   17  H1  LIG X 999      47.237 131.296  13.285  1.00  0.00     0.159 HD
HETATM   18  H2  LIG X 999      47.852 132.283  14.664  1.00  0.00     0.159 HD
ENDBRANCH  14  16
ENDBRANCH   1  11
TORSDOF 2
