REMARK VINA RESULT:      -7.5      1.900      3.744
REMARK  1 active torsions:
REMARK  status: ('A' for Active; 'I' for Inactive)
REMARK    1  A    between atoms: C11_13  and  N2_14 
ROOT
HETATM    1  N2  LIG X 999      46.217 130.497  16.155  1.00  0.00    -0.053 NA
HETATM    2  N3  LIG X 999      46.166 130.754  14.952  1.00  0.00    -0.160 NA
HETATM    3  N4  LIG X 999      46.116 131.010  13.750  1.00  0.00     0.068 N 
ENDROOT
BRANCH   1   4
HETATM    4  C11 LIG X 999      45.206 130.958  17.054  1.00  0.00     0.175 A 
HETATM    5  C10 LIG X 999      45.311 130.960  18.437  1.00  0.00     0.026 A 
HETATM    6  C5  LIG X 999      44.139 131.473  18.879  1.00  0.00     0.017 A 
HETATM    7  C9  LIG X 999      46.299 130.568  19.340  1.00  0.00     0.016 A 
HETATM    8  C4  LIG X 999      43.355 131.773  17.815  1.00  0.00     0.046 A 
HETATM    9  C6  LIG X 999      43.809 131.658  20.204  1.00  0.00     0.005 A 
HETATM   10  C3  LIG X 999      42.014 132.349  18.009  1.00  0.00     0.033 A 
HETATM   11  N5  LIG X 999      43.998 131.460  16.668  1.00  0.00    -0.337 N 
HETATM   12  C2  LIG X 999      41.590 132.573  19.274  1.00  0.00     0.034 A 
HETATM   13  C1  LIG X 999      42.455 132.244  20.457  1.00  0.00     0.059 A 
HETATM   14  N1  LIG X 999      42.013 132.472  21.652  1.00  0.00    -0.300 NA
HETATM   15  H1  LIG X 999      42.561 132.268  22.516  1.00  0.00     0.187 HD
HETATM   16  H7  LIG X 999      43.640 131.580  15.695  1.00  0.00     0.167 HD
HETATM   17  C7  LIG X 999      44.782 131.276  21.157  1.00  0.00     0.015 A 
HETATM   18  C8  LIG X 999      46.023 130.733  20.719  1.00  0.00     0.002 A 
ENDBRANCH   1   4
TORSDOF 1
