REMARK VINA RESULT:      -2.6      5.538      7.495
REMARK  2 active torsions:
REMARK  status: ('A' for Active; 'I' for Inactive)
REMARK    1  A    between atoms: C4_4  and  O1_5 
REMARK    2  A    between atoms: C10_11  and  N1_12 
ROOT
HETATM    1  N1  LIG X 999      45.791 129.806  20.362  1.00  0.00    -0.072 NA
HETATM    2  N2  LIG X 999      45.612 130.470  19.340  1.00  0.00    -0.162 NA
HETATM    3  N3  LIG X 999      45.434 131.131  18.319  1.00  0.00     0.068 N 
ENDROOT
BRANCH   1   4
HETATM    4  C10 LIG X 999      44.862 129.818  21.457  1.00  0.00     0.101 C 
HETATM    5  C9  LIG X 999      44.972 128.798  22.428  1.00  0.00     0.007 C 
HETATM    6  C8  LIG X 999      44.562 128.846  23.752  1.00  0.00    -0.022 C 
HETATM    7  C12 LIG X 999      45.425 127.415  22.108  1.00  0.00     0.278 C 
HETATM    8  C7  LIG X 999      44.227 129.989  24.491  1.00  0.00     0.012 C 
HETATM    9  C15 LIG X 999      44.446 127.467  24.279  1.00  0.00     0.276 C 
HETATM   10  C6  LIG X 999      44.832 131.229  24.254  1.00  0.00     0.037 C 
HETATM   11  C4  LIG X 999      44.122 132.447  24.250  1.00  0.00     0.068 C 
HETATM   12  C3  LIG X 999      42.774 132.544  23.847  1.00  0.00     0.037 C 
HETATM   13  C2  LIG X 999      42.082 131.635  23.024  1.00  0.00     0.003 C 
HETATM   14  C1  LIG X 999      42.677 130.688  22.181  1.00  0.00     0.002 C 
HETATM   15  C11 LIG X 999      43.932 130.868  21.584  1.00  0.00     0.035 C 
HETATM   16  N4  LIG X 999      45.247 126.615  23.356  1.00  0.00    -0.067 N 
HETATM   17  C13 LIG X 999      44.545 125.341  23.074  1.00  0.00     0.272 C 
HETATM   18  C14 LIG X 999      46.568 126.315  23.961  1.00  0.00     0.272 C 
BRANCH  11  19
HETATM   19  O1  LIG X 999      44.754 133.642  24.621  1.00  0.00    -0.356 OA
HETATM   20  C5  LIG X 999      46.155 133.879  24.518  1.00  0.00     0.210 C 
ENDBRANCH  11  19
ENDBRANCH   1   4
TORSDOF 2
