REMARK VINA RESULT:      -4.8      6.959      8.845
REMARK  1 active torsions:
REMARK  status: ('A' for Active; 'I' for Inactive)
REMARK    1  A    between atoms: C4_4  and  N1_5 
ROOT
HETATM    1  C1  LIG X 999      44.600 127.112  22.778  1.00  0.00     0.049 C 
HETATM    2  C2  LIG X 999      44.916 125.644  22.637  1.00  0.00    -0.045 C 
HETATM    3  C3  LIG X 999      46.271 125.321  22.453  1.00  0.00     0.057 C 
HETATM    4  C4  LIG X 999      46.638 124.041  22.046  1.00  0.00     0.122 C 
HETATM    5  N2  LIG X 999      45.682 123.117  21.797  1.00  0.00    -0.231 NA
HETATM    6  C5  LIG X 999      44.363 123.363  22.003  1.00  0.00     0.070 C 
HETATM    7  C6  LIG X 999      43.442 122.375  21.655  1.00  0.00     0.033 C 
HETATM    8  C7  LIG X 999      42.082 122.581  21.839  1.00  0.00     0.014 C 
HETATM    9  C8  LIG X 999      41.623 123.737  22.476  1.00  0.00    -0.025 C 
HETATM   10  C9  LIG X 999      40.251 123.873  22.745  1.00  0.00     0.012 C 
HETATM   11  C10 LIG X 999      39.784 124.949  23.494  1.00  0.00     0.001 C 
HETATM   12  C11 LIG X 999      40.685 125.874  24.016  1.00  0.00     0.001 C 
HETATM   13  C12 LIG X 999      42.050 125.760  23.744  1.00  0.00     0.013 C 
HETATM   14  C13 LIG X 999      42.546 124.740  22.898  1.00  0.00    -0.013 C 
HETATM   15  C14 LIG X 999      43.930 124.609  22.539  1.00  0.00     0.010 C 
ENDROOT
BRANCH   4  16
HETATM   16  N1  LIG X 999      48.012 123.715  21.831  1.00  0.00    -0.384 N 
HETATM   17  H5  LIG X 999      48.417 123.697  20.869  1.00  0.00     0.157 HD
HETATM   18  H6  LIG X 999      48.633 123.492  22.641  1.00  0.00     0.157 HD
ENDBRANCH   4  16
TORSDOF 1
