REMARK VINA RESULT:      -3.2      3.387      5.251
REMARK  5 active torsions:
REMARK  status: ('A' for Active; 'I' for Inactive)
REMARK    1  A    between atoms: O1_2  and  C1_3 
REMARK    2  A    between atoms: C1_3  and  C15_22 
REMARK    3  A    between atoms: N1_4  and  C2_5 
REMARK    4  A    between atoms: C3_6  and  O2_7 
REMARK    5  A    between atoms: O2_7  and  C4_8 
REMARK       I    between atoms: C4_8  and  N2_10 
ROOT
HETATM    1  C2  LIG X 999      44.522 129.531  21.822  1.00  0.00     0.104 A 
HETATM    2  C3  LIG X 999      45.057 128.419  22.494  1.00  0.00     0.110 A 
HETATM    3  C7  LIG X 999      44.850 128.275  23.877  1.00  0.00     0.041 A 
HETATM    4  C8  LIG X 999      44.087 129.205  24.580  1.00  0.00     0.015 A 
HETATM    5  C9  LIG X 999      43.506 130.292  23.916  1.00  0.00    -0.024 A 
HETATM    6  C10 LIG X 999      42.717 131.211  24.625  1.00  0.00     0.012 A 
HETATM    7  C11 LIG X 999      42.119 132.283  23.960  1.00  0.00     0.001 A 
HETATM    8  C12 LIG X 999      42.298 132.444  22.585  1.00  0.00     0.001 A 
HETATM    9  C13 LIG X 999      43.084 131.540  21.867  1.00  0.00     0.014 A 
HETATM   10  C14 LIG X 999      43.713 130.461  22.522  1.00  0.00     0.006 A 
ENDROOT
BRANCH   1  11
HETATM   11  N1  LIG X 999      44.785 129.669  20.418  1.00  0.00    -0.221 NA
HETATM   12  C1  LIG X 999      45.518 130.615  19.910  1.00  0.00     0.176 C 
BRANCH  12  13
HETATM   13  O1  LIG X 999      46.122 131.557  20.746  1.00  0.00    -0.344 OA
HETATM   14  H1  LIG X 999      47.122 131.708  20.756  1.00  0.00     0.219 HD
ENDBRANCH  12  13
BRANCH  12  15
HETATM   15  C15 LIG X 999      45.707 130.670  18.448  1.00  0.00     0.053 A 
HETATM   16  C16 LIG X 999      45.371 131.714  17.603  1.00  0.00     0.156 A 
HETATM   17  N3  LIG X 999      45.686 131.381  16.336  1.00  0.00    -0.185 NA
HETATM   18  N4  LIG X 999      46.222 130.171  16.363  1.00  0.00    -0.285 N 
HETATM   19  C17 LIG X 999      46.632 129.438  15.174  1.00  0.00     0.179 C 
HETATM   20  C18 LIG X 999      46.241 129.699  17.623  1.00  0.00     0.129 A 
ENDBRANCH  12  15
ENDBRANCH   1  11
BRANCH   2  21
HETATM   21  O2  LIG X 999      45.835 127.506  21.766  1.00  0.00    -0.254 OA
BRANCH  21  22
HETATM   22  C4  LIG X 999      46.110 126.186  22.153  1.00  0.00     0.461 C 
HETATM   23  O3  LIG X 999      45.223 125.292  22.058  1.00  0.00    -0.230 OA
HETATM   24  N2  LIG X 999      47.442 125.844  22.588  1.00  0.00     0.009 N 
HETATM   25  H2  LIG X 999      48.007 126.723  22.658  1.00  0.00     0.292 HD
HETATM   26  C5  LIG X 999      48.085 124.959  21.604  1.00  0.00     0.282 C 
HETATM   27  C6  LIG X 999      47.404 125.215  23.917  1.00  0.00     0.282 C 
ENDBRANCH  21  22
ENDBRANCH   2  21
TORSDOF 5
