REMARK VINA RESULT:      -7.7      0.000      0.000
REMARK  3 active torsions:
REMARK  status: ('A' for Active; 'I' for Inactive)
REMARK    1  A    between atoms: C3_3  and  O1_4 
REMARK    2  A    between atoms: O1_4  and  C4_5 
REMARK    3  A    between atoms: C5_6  and  C6_7 
ROOT
HETATM    1  C1  LIG X 999      47.514 130.063  13.765  1.00  0.00     0.014 C 
HETATM    2  C2  LIG X 999      47.017 129.898  14.850  1.00  0.00    -0.091 C 
HETATM    3  C3  LIG X 999      46.412 129.698  16.168  1.00  0.00     0.268 C 
ENDROOT
BRANCH   3   4
HETATM    4  O1  LIG X 999      46.193 130.963  16.780  1.00  0.00    -0.338 OA
BRANCH   4   5
HETATM    5  C4  LIG X 999      44.954 131.295  17.336  1.00  0.00     0.094 A 
HETATM    6  C5  LIG X 999      43.876 131.646  16.495  1.00  0.00     0.036 A 
HETATM    7  C7  LIG X 999      42.641 131.997  17.066  1.00  0.00     0.018 A 
HETATM    8  C8  LIG X 999      42.468 131.992  18.450  1.00  0.00     0.013 A 
HETATM    9  C9  LIG X 999      43.525 131.629  19.293  1.00  0.00    -0.023 A 
HETATM   10  C10 LIG X 999      43.348 131.615  20.686  1.00  0.00     0.012 A 
HETATM   11  C14 LIG X 999      44.779 131.272  18.737  1.00  0.00     0.009 A 
HETATM   12  C11 LIG X 999      44.401 131.245  21.524  1.00  0.00     0.001 A 
HETATM   13  C12 LIG X 999      45.637 130.886  20.982  1.00  0.00     0.001 A 
HETATM   14  C13 LIG X 999      45.828 130.897  19.598  1.00  0.00     0.015 A 
BRANCH   6  15
HETATM   15  C6  LIG X 999      44.040 131.638  15.026  1.00  0.00     0.272 C 
HETATM   16  O2  LIG X 999      43.040 131.673  14.260  1.00  0.00    -0.301 OA
ENDBRANCH   6  15
ENDBRANCH   4   5
ENDBRANCH   3   4
TORSDOF 3
