REMARK VINA RESULT:      -6.8      1.627      2.959
REMARK  1 active torsions:
REMARK  status: ('A' for Active; 'I' for Inactive)
REMARK    1  A    between atoms: N1_1  and  C1_2 
ROOT
HETATM    1  C1  LIG X 999      44.763 131.119  18.826  1.00  0.00     0.026 A 
HETATM    2  C2  LIG X 999      43.696 131.735  18.157  1.00  0.00     0.030 A 
HETATM    3  C3  LIG X 999      43.670 131.786  16.762  1.00  0.00     0.014 A 
HETATM    4  C4  LIG X 999      44.713 131.218  16.015  1.00  0.00    -0.026 A 
HETATM    5  C5  LIG X 999      44.697 131.262  14.613  1.00  0.00     0.012 A 
HETATM    6  C6  LIG X 999      45.743 130.692  13.881  1.00  0.00     0.001 A 
HETATM    7  C7  LIG X 999      46.809 130.076  14.541  1.00  0.00     0.001 A 
HETATM    8  C8  LIG X 999      46.837 130.025  15.939  1.00  0.00     0.012 A 
HETATM    9  C9  LIG X 999      45.793 130.593  16.685  1.00  0.00    -0.024 A 
HETATM   10  C10 LIG X 999      45.810 130.548  18.087  1.00  0.00     0.041 A 
ENDROOT
BRANCH   1  11
HETATM   11  N1  LIG X 999      44.783 131.072  20.255  1.00  0.00    -0.399 N 
HETATM   12  H1  LIG X 999      45.499 131.604  20.797  1.00  0.00     0.156 HD
HETATM   13  H2  LIG X 999      44.082 130.506  20.782  1.00  0.00     0.156 HD
ENDBRANCH   1  11
TORSDOF 1
