REMARK VINA RESULT:      -5.3      0.000      0.000
REMARK  5 active torsions:
REMARK  status: ('A' for Active; 'I' for Inactive)
REMARK    1  A    between atoms: C3_3  and  C4_4 
REMARK    2  A    between atoms: C4_4  and  S1_5 
REMARK    3  A    between atoms: S1_5  and  C5_6 
REMARK    4  A    between atoms: C6_7  and  N1_8 
REMARK    5  A    between atoms: C10_12  and  N2_13 
ROOT
HETATM    1  C1  LIG X 999      43.354 128.797  24.625  1.00  0.00     0.112 C 
HETATM    2  C2  LIG X 999      44.025 129.113  23.365  1.00  0.00    -0.110 C 
HETATM    3  C3  LIG X 999      44.577 129.365  22.324  1.00  0.00    -0.097 C 
ENDROOT
BRANCH   3   4
HETATM    4  C4  LIG X 999      45.243 129.664  21.053  1.00  0.00     0.173 C 
BRANCH   4   5
HETATM    5  S1  LIG X 999      45.512 131.461  20.882  1.00  0.00    -0.115 SA
BRANCH   5   6
HETATM    6  C5  LIG X 999      44.204 131.703  19.650  1.00  0.00     0.038 A 
HETATM    7  C6  LIG X 999      42.916 132.105  20.072  1.00  0.00     0.043 A 
HETATM    8  C7  LIG X 999      41.911 132.314  19.126  1.00  0.00     0.031 A 
HETATM    9  C8  LIG X 999      42.153 132.130  17.768  1.00  0.00     0.017 A 
HETATM   10  C9  LIG X 999      43.420 131.731  17.307  1.00  0.00     0.002 A 
HETATM   11  C10 LIG X 999      43.685 131.537  15.917  1.00  0.00     0.045 A 
HETATM   12  C14 LIG X 999      44.455 131.489  18.269  1.00  0.00    -0.004 A 
HETATM   13  C11 LIG X 999      44.956 131.080  15.543  1.00  0.00     0.003 A 
HETATM   14  C12 LIG X 999      45.927 130.839  16.461  1.00  0.00    -0.021 A 
HETATM   15  C18 LIG X 999      45.465 130.790  14.179  1.00  0.00     0.278 C 
HETATM   16  C13 LIG X 999      45.716 131.033  17.820  1.00  0.00     0.023 A 
HETATM   17  C15 LIG X 999      47.164 130.355  15.810  1.00  0.00     0.276 C 
HETATM   18  N3  LIG X 999      46.921 130.483  14.340  1.00  0.00    -0.067 N 
HETATM   19  C16 LIG X 999      47.739 131.588  13.785  1.00  0.00     0.272 C 
HETATM   20  C17 LIG X 999      47.272 129.225  13.640  1.00  0.00     0.272 C 
BRANCH   7  21
HETATM   21  N1  LIG X 999      42.600 132.290  21.460  1.00  0.00    -0.398 N 
HETATM   22  H6  LIG X 999      42.279 133.220  21.810  1.00  0.00     0.156 HD
HETATM   23  H7  LIG X 999      42.662 131.518  22.158  1.00  0.00     0.156 HD
ENDBRANCH   7  21
BRANCH  11  24
HETATM   24  N2  LIG X 999      42.707 131.806  14.898  1.00  0.00    -0.398 N 
HETATM   25  H10 LIG X 999      42.617 131.229  14.036  1.00  0.00     0.156 HD
HETATM   26  H11 LIG X 999      41.972 132.532  15.044  1.00  0.00     0.156 HD
ENDBRANCH  11  24
ENDBRANCH   5   6
ENDBRANCH   4   5
ENDBRANCH   3   4
TORSDOF 5
