REMARK VINA RESULT:      -4.9      3.053      5.863
REMARK  5 active torsions:
REMARK  status: ('A' for Active; 'I' for Inactive)
REMARK    1  A    between atoms: C3_3  and  O1_4 
REMARK    2  A    between atoms: O1_4  and  C4_5 
REMARK    3  A    between atoms: C5_6  and  C6_7 
REMARK    4  A    between atoms: C12_14  and  N1_15 
REMARK    5  A    between atoms: C15_21  and  N3_22 
ROOT
HETATM    1  C1  LIG X 999      47.775 123.853  21.324  1.00  0.00     0.014 C 
HETATM    2  C2  LIG X 999      46.674 123.472  21.629  1.00  0.00    -0.091 C 
HETATM    3  C3  LIG X 999      45.336 123.008  21.999  1.00  0.00     0.268 C 
ENDROOT
BRANCH   3   4
HETATM    4  O1  LIG X 999      44.937 123.650  23.206  1.00  0.00    -0.339 OA
BRANCH   4   5
HETATM    5  C4  LIG X 999      43.792 124.452  23.351  1.00  0.00     0.085 A 
HETATM    6  C5  LIG X 999      43.943 125.876  23.383  1.00  0.00     0.050 A 
HETATM    7  C7  LIG X 999      42.774 126.642  23.531  1.00  0.00     0.044 A 
HETATM    8  C8  LIG X 999      41.566 126.039  23.634  1.00  0.00     0.021 A 
HETATM    9  C15 LIG X 999      42.448 128.082  23.613  1.00  0.00     0.198 A 
HETATM   10  C9  LIG X 999      40.596 126.975  23.766  1.00  0.00     0.071 A 
HETATM   11  C13 LIG X 999      41.348 124.676  23.611  1.00  0.00     0.006 A 
HETATM   12  C10 LIG X 999      39.262 126.596  23.891  1.00  0.00     0.035 A 
HETATM   13  N2  LIG X 999      41.162 128.284  23.752  1.00  0.00    -0.225 NA
HETATM   14  C11 LIG X 999      38.967 125.214  23.875  1.00  0.00     0.032 A 
HETATM   15  C12 LIG X 999      39.998 124.239  23.736  1.00  0.00     0.037 A 
HETATM   16  C14 LIG X 999      42.493 123.863  23.466  1.00  0.00     0.052 A 
BRANCH   6  17
HETATM   17  C6  LIG X 999      45.264 126.534  23.269  1.00  0.00     0.273 C 
HETATM   18  O2  LIG X 999      45.735 126.879  22.153  1.00  0.00    -0.301 OA
ENDBRANCH   6  17
BRANCH  15  19
HETATM   19  N1  LIG X 999      39.642 122.850  23.726  1.00  0.00    -0.398 N 
HETATM   20  H7  LIG X 999      38.797 122.529  23.205  1.00  0.00     0.156 HD
HETATM   21  H8  LIG X 999      40.197 122.124  24.225  1.00  0.00     0.156 HD
ENDBRANCH  15  19
BRANCH   9  22
HETATM   22  N3  LIG X 999      43.399 129.147  23.550  1.00  0.00    -0.051 NA
HETATM   23  N4  LIG X 999      43.267 130.074  22.750  1.00  0.00    -0.160 NA
HETATM   24  N5  LIG X 999      43.137 131.000  21.951  1.00  0.00     0.068 N 
ENDBRANCH   9  22
ENDBRANCH   4   5
ENDBRANCH   3   4
TORSDOF 5
