MODEL 1
REMARK VINA RESULT:      -7.1      0.000      0.000
REMARK  3 active torsions:
REMARK  status: ('A' for Active; 'I' for Inactive)
REMARK    1  A    between atoms: C3_3  and  S1_4 
REMARK    2  A    between atoms: S1_4  and  C4_7 
REMARK    3  A    between atoms: C17_20  and  N1_21 
ROOT
HETATM    1  C1  LIG X 999      44.628 127.617  23.461  1.00  0.00     0.013 C 
HETATM    2  C2  LIG X 999      43.692 128.374  23.516  1.00  0.00    -0.102 C 
HETATM    3  C3  LIG X 999      42.556 129.296  23.588  1.00  0.00     0.238 C 
ENDROOT
BRANCH   3   4
HETATM    4  S1  LIG X 999      43.139 130.984  23.555  1.00  0.00     0.186 S 
HETATM    5  O1  LIG X 999      42.313 131.780  24.527  1.00  0.00    -0.222 OA
HETATM    6  O2  LIG X 999      44.573 131.046  24.002  1.00  0.00    -0.222 OA
BRANCH   4   7
HETATM    7  C4  LIG X 999      42.982 131.665  21.919  1.00  0.00     0.071 C 
HETATM    8  C5  LIG X 999      41.958 132.593  21.696  1.00  0.00     0.024 C 
HETATM    9  C6  LIG X 999      41.795 133.185  20.452  1.00  0.00     0.002 C 
HETATM   10  C7  LIG X 999      42.602 132.808  19.383  1.00  0.00     0.013 C 
HETATM   11  C8  LIG X 999      43.570 131.790  19.522  1.00  0.00    -0.011 C 
HETATM   12  C9  LIG X 999      43.834 131.297  20.838  1.00  0.00    -0.003 C 
HETATM   13  C13 LIG X 999      44.360 131.326  18.417  1.00  0.00     0.008 C 
HETATM   14  C10 LIG X 999      44.970 130.496  21.046  1.00  0.00     0.016 C 
HETATM   15  C11 LIG X 999      45.848 130.221  20.008  1.00  0.00     0.031 C 
HETATM   16  C12 LIG X 999      45.566 130.628  18.703  1.00  0.00     0.045 C 
HETATM   17  N4  LIG X 999      46.449 130.324  17.707  1.00  0.00    -0.338 N 
HETATM   18  C17 LIG X 999      46.195 130.631  16.405  1.00  0.00     0.165 C 
HETATM   19  H13 LIG X 999      47.344 129.844  17.951  1.00  0.00     0.167 HD
HETATM   20  C16 LIG X 999      44.971 131.188  16.055  1.00  0.00     0.061 C 
HETATM   21  C14 LIG X 999      44.013 131.477  17.037  1.00  0.00    -0.045 C 
HETATM   22  C15 LIG X 999      42.620 131.776  16.538  1.00  0.00     0.049 C 
BRANCH  18  23
HETATM   23  N1  LIG X 999      47.141 130.332  15.370  1.00  0.00    -0.054 NA
HETATM   24  N2  LIG X 999      46.993 130.724  14.212  1.00  0.00    -0.160 NA
HETATM   25  N3  LIG X 999      46.847 131.114  13.055  1.00  0.00     0.068 N 
ENDBRANCH  18  23
ENDBRANCH   4   7
ENDBRANCH   3   4
TORSDOF 3
ENDMDL
MODEL 2
REMARK VINA RESULT:      -6.1      1.313      1.869
REMARK  3 active torsions:
REMARK  status: ('A' for Active; 'I' for Inactive)
REMARK    1  A    between atoms: C3_3  and  S1_4 
REMARK    2  A    between atoms: S1_4  and  C4_7 
REMARK    3  A    between atoms: C17_20  and  N1_21 
ROOT
HETATM    1  C1  LIG X 999      45.587 133.377  24.554  1.00  0.00     0.013 C 
HETATM    2  C2  LIG X 999      44.501 132.857  24.588  1.00  0.00    -0.102 C 
HETATM    3  C3  LIG X 999      43.180 132.225  24.625  1.00  0.00     0.238 C 
ENDROOT
BRANCH   3   4
HETATM    4  S1  LIG X 999      43.093 130.923  23.405  1.00  0.00     0.186 S 
HETATM    5  O1  LIG X 999      44.342 130.094  23.521  1.00  0.00    -0.222 OA
HETATM    6  O2  LIG X 999      41.915 130.032  23.681  1.00  0.00    -0.222 OA
BRANCH   4   7
HETATM    7  C4  LIG X 999      42.967 131.611  21.770  1.00  0.00     0.071 C 
HETATM    8  C5  LIG X 999      41.954 132.550  21.535  1.00  0.00     0.024 C 
HETATM    9  C6  LIG X 999      41.816 133.148  20.291  1.00  0.00     0.002 C 
HETATM   10  C7  LIG X 999      42.636 132.768  19.233  1.00  0.00     0.013 C 
HETATM   11  C8  LIG X 999      43.592 131.741  19.383  1.00  0.00    -0.011 C 
HETATM   12  C9  LIG X 999      43.832 131.240  20.701  1.00  0.00    -0.003 C 
HETATM   13  C13 LIG X 999      44.396 131.274  18.288  1.00  0.00     0.008 C 
HETATM   14  C10 LIG X 999      44.957 130.429  20.923  1.00  0.00     0.016 C 
HETATM   15  C11 LIG X 999      45.849 130.150  19.898  1.00  0.00     0.031 C 
HETATM   16  C12 LIG X 999      45.590 130.564  18.590  1.00  0.00     0.045 C 
HETATM   17  N4  LIG X 999      46.486 130.256  17.606  1.00  0.00    -0.338 N 
HETATM   18  C17 LIG X 999      46.255 130.570  16.302  1.00  0.00     0.165 C 
HETATM   19  H13 LIG X 999      47.373 129.767  17.862  1.00  0.00     0.167 HD
HETATM   20  C16 LIG X 999      45.041 131.139  15.935  1.00  0.00     0.061 C 
HETATM   21  C14 LIG X 999      44.071 131.433  16.904  1.00  0.00    -0.045 C 
HETATM   22  C15 LIG X 999      42.688 131.746  16.385  1.00  0.00     0.049 C 
BRANCH  18  23
HETATM   23  N1  LIG X 999      47.214 130.266  15.280  1.00  0.00    -0.054 NA
HETATM   24  N2  LIG X 999      47.079 130.649  14.118  1.00  0.00    -0.160 NA
HETATM   25  N3  LIG X 999      46.945 131.030  12.956  1.00  0.00     0.068 N 
ENDBRANCH  18  23
ENDBRANCH   4   7
ENDBRANCH   3   4
TORSDOF 3
ENDMDL
MODEL 3
REMARK VINA RESULT:      -5.8      4.565      7.065
REMARK  3 active torsions:
REMARK  status: ('A' for Active; 'I' for Inactive)
REMARK    1  A    between atoms: C3_3  and  S1_4 
REMARK    2  A    between atoms: S1_4  and  C4_7 
REMARK    3  A    between atoms: C17_20  and  N1_21 
ROOT
HETATM    1  C1  LIG X 999      48.357 129.550  13.331  1.00  0.00     0.013 C 
HETATM    2  C2  LIG X 999      47.573 129.704  14.233  1.00  0.00    -0.102 C 
HETATM    3  C3  LIG X 999      46.621 129.895  15.330  1.00  0.00     0.238 C 
ENDROOT
BRANCH   3   4
HETATM    4  S1  LIG X 999      45.697 131.402  15.080  1.00  0.00     0.186 S 
HETATM    5  O1  LIG X 999      46.653 132.557  15.197  1.00  0.00    -0.222 OA
HETATM    6  O2  LIG X 999      45.107 131.424  13.698  1.00  0.00    -0.222 OA
BRANCH   4   7
HETATM    7  C4  LIG X 999      44.408 131.550  16.296  1.00  0.00     0.071 C 
HETATM    8  C5  LIG X 999      43.154 131.999  15.864  1.00  0.00     0.024 C 
HETATM    9  C6  LIG X 999      42.095 132.110  16.754  1.00  0.00     0.002 C 
HETATM   10  C7  LIG X 999      42.284 131.849  18.107  1.00  0.00     0.013 C 
HETATM   11  C8  LIG X 999      43.556 131.510  18.615  1.00  0.00    -0.011 C 
HETATM   12  C9  LIG X 999      44.601 131.249  17.675  1.00  0.00    -0.003 C 
HETATM   13  C13 LIG X 999      43.795 131.314  20.017  1.00  0.00     0.008 C 
HETATM   14  C10 LIG X 999      45.786 130.646  18.130  1.00  0.00     0.016 C 
HETATM   15  C11 LIG X 999      45.930 130.268  19.456  1.00  0.00     0.031 C 
HETATM   16  C12 LIG X 999      44.954 130.586  20.403  1.00  0.00     0.045 C 
HETATM   17  N4  LIG X 999      45.140 130.208  21.702  1.00  0.00    -0.338 N 
HETATM   18  C17 LIG X 999      44.260 130.550  22.682  1.00  0.00     0.165 C 
HETATM   19  H13 LIG X 999      45.982 129.641  21.950  1.00  0.00     0.167 HD
HETATM   20  C16 LIG X 999      43.185 131.380  22.382  1.00  0.00     0.061 C 
HETATM   21  C14 LIG X 999      42.976 131.830  21.071  1.00  0.00    -0.045 C 
HETATM   22  C15 LIG X 999      41.989 132.960  20.906  1.00  0.00     0.049 C 
BRANCH  18  23
HETATM   23  N1  LIG X 999      44.451 130.127  24.038  1.00  0.00    -0.054 NA
HETATM   24  N2  LIG X 999      44.726 128.963  24.330  1.00  0.00    -0.160 NA
HETATM   25  N3  LIG X 999      45.000 127.801  24.624  1.00  0.00     0.068 N 
ENDBRANCH  18  23
ENDBRANCH   4   7
ENDBRANCH   3   4
TORSDOF 3
ENDMDL
MODEL 4
REMARK VINA RESULT:      -4.4      5.564      7.140
REMARK  3 active torsions:
REMARK  status: ('A' for Active; 'I' for Inactive)
REMARK    1  A    between atoms: C3_3  and  S1_4 
REMARK    2  A    between atoms: S1_4  and  C4_7 
REMARK    3  A    between atoms: C17_20  and  N1_21 
ROOT
HETATM    1  C1  LIG X 999      44.808 133.535  24.563  1.00  0.00     0.013 C 
HETATM    2  C2  LIG X 999      44.613 132.347  24.552  1.00  0.00    -0.102 C 
HETATM    3  C3  LIG X 999      44.370 130.902  24.538  1.00  0.00     0.238 C 
ENDROOT
BRANCH   3   4
HETATM    4  S1  LIG X 999      43.007 130.523  23.449  1.00  0.00     0.186 S 
HETATM    5  O1  LIG X 999      41.807 131.298  23.920  1.00  0.00    -0.222 OA
HETATM    6  O2  LIG X 999      43.325 130.963  22.047  1.00  0.00    -0.222 OA
BRANCH   4   7
HETATM    7  C4  LIG X 999      42.656 128.779  23.475  1.00  0.00     0.071 C 
HETATM    8  C5  LIG X 999      41.360 128.381  23.825  1.00  0.00     0.024 C 
HETATM    9  C6  LIG X 999      41.009 127.039  23.838  1.00  0.00     0.002 C 
HETATM   10  C7  LIG X 999      41.963 126.061  23.577  1.00  0.00     0.013 C 
HETATM   11  C8  LIG X 999      43.311 126.401  23.337  1.00  0.00    -0.011 C 
HETATM   12  C9  LIG X 999      43.631 127.785  23.174  1.00  0.00    -0.003 C 
HETATM   13  C13 LIG X 999      44.331 125.408  23.144  1.00  0.00     0.008 C 
HETATM   14  C10 LIG X 999      44.893 128.133  22.665  1.00  0.00     0.016 C 
HETATM   15  C11 LIG X 999      45.802 127.158  22.283  1.00  0.00     0.031 C 
HETATM   16  C12 LIG X 999      45.539 125.805  22.508  1.00  0.00     0.045 C 
HETATM   17  N4  LIG X 999      46.467 124.877  22.131  1.00  0.00    -0.338 N 
HETATM   18  C17 LIG X 999      46.299 123.551  22.387  1.00  0.00     0.165 C 
HETATM   19  H13 LIG X 999      47.328 125.194  21.632  1.00  0.00     0.167 HD
HETATM   20  C16 LIG X 999      45.203 123.126  23.129  1.00  0.00     0.061 C 
HETATM   21  C14 LIG X 999      44.246 124.047  23.577  1.00  0.00    -0.045 C 
HETATM   22  C15 LIG X 999      43.282 123.547  24.625  1.00  0.00     0.049 C 
BRANCH  18  23
HETATM   23  N1  LIG X 999      47.267 122.580  21.964  1.00  0.00    -0.054 NA
HETATM   24  N2  LIG X 999      48.322 122.901  21.418  1.00  0.00    -0.160 NA
HETATM   25  N3  LIG X 999      49.377 123.220  20.872  1.00  0.00     0.068 N 
ENDBRANCH  18  23
ENDBRANCH   4   7
ENDBRANCH   3   4
TORSDOF 3
ENDMDL
