MODEL 1
REMARK VINA RESULT:      -5.7      0.000      0.000
REMARK  6 active torsions:
REMARK  status: ('A' for Active; 'I' for Inactive)
REMARK    1  A    between atoms: C6_6  and  N1_7 
REMARK       I    between atoms: N1_7  and  C7_8 
REMARK    2  A    between atoms: C7_8  and  O2_10 
REMARK    3  A    between atoms: O2_10  and  C8_11 
REMARK    4  A    between atoms: C8_11  and  C10_13 
REMARK    5  A    between atoms: C10_13  and  O3_14 
REMARK    6  A    between atoms: C12_16  and  N2_17 
ROOT
HETATM    1  N2  LIG X 999      41.184 128.227  24.017  1.00  0.00    -0.070 NA
HETATM    2  N3  LIG X 999      40.159 127.550  23.926  1.00  0.00    -0.162 NA
HETATM    3  N4  LIG X 999      39.133 126.875  23.837  1.00  0.00     0.068 N 
ENDROOT
BRANCH   1   4
HETATM    4  C12 LIG X 999      42.473 127.730  23.624  1.00  0.00     0.122 A 
HETATM    5  C6  LIG X 999      43.536 128.638  23.476  1.00  0.00     0.095 A 
HETATM    6  C5  LIG X 999      44.797 128.174  23.062  1.00  0.00     0.046 A 
HETATM    7  C4  LIG X 999      45.015 126.807  22.839  1.00  0.00    -0.024 A 
HETATM    8  C3  LIG X 999      46.277 126.340  22.439  1.00  0.00     0.012 A 
HETATM    9  C14 LIG X 999      43.952 125.890  23.013  1.00  0.00    -0.024 A 
HETATM   10  C2  LIG X 999      46.483 124.975  22.219  1.00  0.00     0.001 A 
HETATM   11  C1  LIG X 999      45.434 124.068  22.393  1.00  0.00     0.001 A 
HETATM   12  C15 LIG X 999      44.172 124.521  22.789  1.00  0.00     0.012 A 
HETATM   13  C13 LIG X 999      42.689 126.357  23.399  1.00  0.00     0.049 A 
BRANCH   5  14
HETATM   14  N1  LIG X 999      43.293 130.036  23.699  1.00  0.00    -0.185 NA
HETATM   15  C7  LIG X 999      43.103 131.025  22.682  1.00  0.00     0.387 C 
HETATM   16  O1  LIG X 999      42.658 132.158  23.006  1.00  0.00    -0.236 OA
BRANCH  15  17
HETATM   17  O2  LIG X 999      43.447 130.748  21.353  1.00  0.00    -0.295 OA
BRANCH  17  18
HETATM   18  C8  LIG X 999      44.432 131.476  20.620  1.00  0.00     0.153 C 
HETATM   19  C9  LIG X 999      45.715 130.645  20.502  1.00  0.00     0.042 C 
BRANCH  18  20
HETATM   20  C10 LIG X 999      43.863 131.809  19.237  1.00  0.00     0.199 C 
BRANCH  20  21
HETATM   21  O3  LIG X 999      44.878 131.688  18.261  1.00  0.00    -0.393 OA
HETATM   22  C11 LIG X 999      44.288 131.526  16.992  1.00  0.00     0.201 C 
ENDBRANCH  20  21
ENDBRANCH  18  20
ENDBRANCH  17  18
ENDBRANCH  15  17
ENDBRANCH   5  14
ENDBRANCH   1   4
TORSDOF 6
ENDMDL
MODEL 2
REMARK VINA RESULT:      -5.6      2.738      3.893
REMARK  6 active torsions:
REMARK  status: ('A' for Active; 'I' for Inactive)
REMARK    1  A    between atoms: C6_6  and  N1_7 
REMARK       I    between atoms: N1_7  and  C7_8 
REMARK    2  A    between atoms: C7_8  and  O2_10 
REMARK    3  A    between atoms: O2_10  and  C8_11 
REMARK    4  A    between atoms: C8_11  and  C10_13 
REMARK    5  A    between atoms: C10_13  and  O3_14 
REMARK    6  A    between atoms: C12_16  and  N2_17 
ROOT
HETATM    1  N2  LIG X 999      45.648 126.774  22.650  1.00  0.00    -0.070 NA
HETATM    2  N3  LIG X 999      46.461 125.942  22.246  1.00  0.00    -0.162 NA
HETATM    3  N4  LIG X 999      47.275 125.112  21.841  1.00  0.00     0.068 N 
ENDROOT
BRANCH   1   4
HETATM    4  C12 LIG X 999      44.279 126.441  22.929  1.00  0.00     0.122 A 
HETATM    5  C6  LIG X 999      43.533 127.280  23.776  1.00  0.00     0.095 A 
HETATM    6  C5  LIG X 999      42.201 126.953  24.085  1.00  0.00     0.046 A 
HETATM    7  C4  LIG X 999      41.595 125.822  23.518  1.00  0.00    -0.024 A 
HETATM    8  C3  LIG X 999      40.260 125.502  23.815  1.00  0.00     0.012 A 
HETATM    9  C14 LIG X 999      42.337 124.993  22.646  1.00  0.00    -0.024 A 
HETATM   10  C2  LIG X 999      39.666 124.373  23.245  1.00  0.00     0.001 A 
HETATM   11  C1  LIG X 999      40.399 123.554  22.380  1.00  0.00     0.001 A 
HETATM   12  C15 LIG X 999      41.729 123.861  22.080  1.00  0.00     0.012 A 
HETATM   13  C13 LIG X 999      43.673 125.304  22.361  1.00  0.00     0.049 A 
BRANCH   5  14
HETATM   14  N1  LIG X 999      44.172 128.429  24.355  1.00  0.00    -0.185 NA
HETATM   15  C7  LIG X 999      44.198 129.744  23.792  1.00  0.00     0.387 C 
HETATM   16  O1  LIG X 999      44.575 130.709  24.510  1.00  0.00    -0.236 OA
BRANCH  15  17
HETATM   17  O2  LIG X 999      43.849 129.948  22.452  1.00  0.00    -0.295 OA
BRANCH  17  18
HETATM   18  C8  LIG X 999      44.210 131.110  21.705  1.00  0.00     0.153 C 
HETATM   19  C9  LIG X 999      45.357 130.778  20.744  1.00  0.00     0.042 C 
BRANCH  18  20
HETATM   20  C10 LIG X 999      42.976 131.601  20.941  1.00  0.00     0.199 C 
BRANCH  20  21
HETATM   21  O3  LIG X 999      43.348 131.993  19.635  1.00  0.00    -0.393 OA
HETATM   22  C11 LIG X 999      42.206 132.012  18.811  1.00  0.00     0.201 C 
ENDBRANCH  20  21
ENDBRANCH  18  20
ENDBRANCH  17  18
ENDBRANCH  15  17
ENDBRANCH   5  14
ENDBRANCH   1   4
TORSDOF 6
ENDMDL
MODEL 3
REMARK VINA RESULT:      -5.4      3.162      6.899
REMARK  6 active torsions:
REMARK  status: ('A' for Active; 'I' for Inactive)
REMARK    1  A    between atoms: C6_6  and  N1_7 
REMARK       I    between atoms: N1_7  and  C7_8 
REMARK    2  A    between atoms: C7_8  and  O2_10 
REMARK    3  A    between atoms: O2_10  and  C8_11 
REMARK    4  A    between atoms: C8_11  and  C10_13 
REMARK    5  A    between atoms: C10_13  and  O3_14 
REMARK    6  A    between atoms: C12_16  and  N2_17 
ROOT
HETATM    1  N2  LIG X 999      45.709 131.454  20.869  1.00  0.00    -0.070 NA
HETATM    2  N3  LIG X 999      46.476 132.334  21.262  1.00  0.00    -0.162 NA
HETATM    3  N4  LIG X 999      47.243 133.212  21.656  1.00  0.00     0.068 N 
ENDROOT
BRANCH   1   4
HETATM    4  C12 LIG X 999      45.223 131.402  19.518  1.00  0.00     0.122 A 
HETATM    5  C6  LIG X 999      43.927 131.870  19.243  1.00  0.00     0.095 A 
HETATM    6  C5  LIG X 999      43.422 131.798  17.932  1.00  0.00     0.046 A 
HETATM    7  C4  LIG X 999      44.219 131.305  16.888  1.00  0.00    -0.024 A 
HETATM    8  C3  LIG X 999      43.723 131.245  15.577  1.00  0.00     0.012 A 
HETATM    9  C14 LIG X 999      45.533 130.859  17.161  1.00  0.00    -0.024 A 
HETATM   10  C2  LIG X 999      44.526 130.752  14.544  1.00  0.00     0.001 A 
HETATM   11  C1  LIG X 999      45.825 130.313  14.813  1.00  0.00     0.001 A 
HETATM   12  C15 LIG X 999      46.330 130.364  16.116  1.00  0.00     0.012 A 
HETATM   13  C13 LIG X 999      46.024 130.905  18.473  1.00  0.00     0.049 A 
BRANCH   5  14
HETATM   14  N1  LIG X 999      43.120 132.363  20.325  1.00  0.00    -0.185 NA
HETATM   15  C7  LIG X 999      42.881 131.689  21.564  1.00  0.00     0.387 C 
HETATM   16  O1  LIG X 999      42.363 132.328  22.518  1.00  0.00    -0.236 OA
BRANCH  15  17
HETATM   17  O2  LIG X 999      43.181 130.328  21.699  1.00  0.00    -0.295 OA
BRANCH  17  18
HETATM   18  C8  LIG X 999      43.465 129.698  22.949  1.00  0.00     0.153 C 
HETATM   19  C9  LIG X 999      42.207 129.003  23.482  1.00  0.00     0.042 C 
BRANCH  18  20
HETATM   20  C10 LIG X 999      44.603 128.693  22.740  1.00  0.00     0.199 C 
BRANCH  20  21
HETATM   21  O3  LIG X 999      45.030 128.189  23.989  1.00  0.00    -0.393 OA
HETATM   22  C11 LIG X 999      45.419 126.843  23.841  1.00  0.00     0.201 C 
ENDBRANCH  20  21
ENDBRANCH  18  20
ENDBRANCH  17  18
ENDBRANCH  15  17
ENDBRANCH   5  14
ENDBRANCH   1   4
TORSDOF 6
ENDMDL
MODEL 4
REMARK VINA RESULT:      -5.0      3.438      4.939
REMARK  6 active torsions:
REMARK  status: ('A' for Active; 'I' for Inactive)
REMARK    1  A    between atoms: C6_6  and  N1_7 
REMARK       I    between atoms: N1_7  and  C7_8 
REMARK    2  A    between atoms: C7_8  and  O2_10 
REMARK    3  A    between atoms: O2_10  and  C8_11 
REMARK    4  A    between atoms: C8_11  and  C10_13 
REMARK    5  A    between atoms: C10_13  and  O3_14 
REMARK    6  A    between atoms: C12_16  and  N2_17 
ROOT
HETATM    1  N2  LIG X 999      42.725 132.543  20.497  1.00  0.00    -0.070 NA
HETATM    2  N3  LIG X 999      42.172 132.567  19.396  1.00  0.00    -0.162 NA
HETATM    3  N4  LIG X 999      41.619 132.593  18.298  1.00  0.00     0.068 N 
ENDROOT
BRANCH   1   4
HETATM    4  C12 LIG X 999      43.486 131.413  20.952  1.00  0.00     0.122 A 
HETATM    5  C6  LIG X 999      44.695 131.102  20.306  1.00  0.00     0.095 A 
HETATM    6  C5  LIG X 999      45.439 129.982  20.718  1.00  0.00     0.046 A 
HETATM    7  C4  LIG X 999      45.007 129.199  21.798  1.00  0.00    -0.024 A 
HETATM    8  C3  LIG X 999      45.755 128.088  22.220  1.00  0.00     0.012 A 
HETATM    9  C14 LIG X 999      43.805 129.527  22.465  1.00  0.00    -0.024 A 
HETATM   10  C2  LIG X 999      45.316 127.314  23.297  1.00  0.00     0.001 A 
HETATM   11  C1  LIG X 999      44.129 127.640  23.959  1.00  0.00     0.001 A 
HETATM   12  C15 LIG X 999      43.374 128.742  23.547  1.00  0.00     0.012 A 
HETATM   13  C13 LIG X 999      43.050 130.628  22.036  1.00  0.00     0.049 A 
BRANCH   5  14
HETATM   14  N1  LIG X 999      45.118 131.909  19.194  1.00  0.00    -0.185 NA
HETATM   15  C7  LIG X 999      45.285 131.455  17.848  1.00  0.00     0.387 C 
HETATM   16  O1  LIG X 999      45.420 132.306  16.928  1.00  0.00    -0.236 OA
BRANCH  15  17
HETATM   17  O2  LIG X 999      45.340 130.085  17.564  1.00  0.00    -0.295 OA
BRANCH  17  18
HETATM   18  C8  LIG X 999      45.455 129.552  16.244  1.00  0.00     0.153 C 
HETATM   19  C9  LIG X 999      44.376 130.157  15.339  1.00  0.00     0.042 C 
BRANCH  18  20
HETATM   20  C10 LIG X 999      46.858 129.865  15.713  1.00  0.00     0.199 C 
BRANCH  20  21
HETATM   21  O3  LIG X 999      46.839 129.889  14.301  1.00  0.00    -0.393 OA
HETATM   22  C11 LIG X 999      48.086 129.454  13.810  1.00  0.00     0.201 C 
ENDBRANCH  20  21
ENDBRANCH  18  20
ENDBRANCH  17  18
ENDBRANCH  15  17
ENDBRANCH   5  14
ENDBRANCH   1   4
TORSDOF 6
ENDMDL
MODEL 5
REMARK VINA RESULT:      -5.0      2.797      5.855
REMARK  6 active torsions:
REMARK  status: ('A' for Active; 'I' for Inactive)
REMARK    1  A    between atoms: C6_6  and  N1_7 
REMARK       I    between atoms: N1_7  and  C7_8 
REMARK    2  A    between atoms: C7_8  and  O2_10 
REMARK    3  A    between atoms: O2_10  and  C8_11 
REMARK    4  A    between atoms: C8_11  and  C10_13 
REMARK    5  A    between atoms: C10_13  and  O3_14 
REMARK    6  A    between atoms: C12_16  and  N2_17 
ROOT
HETATM    1  N2  LIG X 999      41.990 128.761  24.625  1.00  0.00    -0.070 NA
HETATM    2  N3  LIG X 999      41.009 128.053  24.394  1.00  0.00    -0.162 NA
HETATM    3  N4  LIG X 999      40.028 127.346  24.166  1.00  0.00     0.068 N 
ENDROOT
BRANCH   1   4
HETATM    4  C12 LIG X 999      42.906 129.168  23.596  1.00  0.00     0.122 A 
HETATM    5  C6  LIG X 999      44.079 128.420  23.394  1.00  0.00     0.095 A 
HETATM    6  C5  LIG X 999      45.002 128.822  22.412  1.00  0.00     0.046 A 
HETATM    7  C4  LIG X 999      44.740 129.935  21.601  1.00  0.00    -0.024 A 
HETATM    8  C3  LIG X 999      45.654 130.330  20.611  1.00  0.00     0.012 A 
HETATM    9  C14 LIG X 999      43.547 130.671  21.786  1.00  0.00    -0.024 A 
HETATM   10  C2  LIG X 999      45.383 131.441  19.808  1.00  0.00     0.001 A 
HETATM   11  C1  LIG X 999      44.203 132.168  19.989  1.00  0.00     0.001 A 
HETATM   12  C15 LIG X 999      43.286 131.787  20.974  1.00  0.00     0.012 A 
HETATM   13  C13 LIG X 999      42.642 130.287  22.784  1.00  0.00     0.049 A 
BRANCH   5  14
HETATM   14  N1  LIG X 999      44.337 127.288  24.240  1.00  0.00    -0.185 NA
HETATM   15  C7  LIG X 999      44.638 125.962  23.795  1.00  0.00     0.387 C 
HETATM   16  O1  LIG X 999      45.082 125.125  24.624  1.00  0.00    -0.236 OA
BRANCH  15  17
HETATM   17  O2  LIG X 999      44.403 125.591  22.465  1.00  0.00    -0.295 OA
BRANCH  17  18
HETATM   18  C8  LIG X 999      43.432 124.621  22.072  1.00  0.00     0.153 C 
HETATM   19  C9  LIG X 999      43.957 123.210  22.358  1.00  0.00     0.042 C 
BRANCH  18  20
HETATM   20  C10 LIG X 999      42.133 124.892  22.839  1.00  0.00     0.199 C 
BRANCH  20  21
HETATM   21  O3  LIG X 999      41.029 124.438  22.083  1.00  0.00    -0.393 OA
HETATM   22  C11 LIG X 999      40.278 123.529  22.855  1.00  0.00     0.201 C 
ENDBRANCH  20  21
ENDBRANCH  18  20
ENDBRANCH  17  18
ENDBRANCH  15  17
ENDBRANCH   5  14
ENDBRANCH   1   4
TORSDOF 6
ENDMDL
MODEL 6
REMARK VINA RESULT:      -4.8      2.801      6.102
REMARK  6 active torsions:
REMARK  status: ('A' for Active; 'I' for Inactive)
REMARK    1  A    between atoms: C6_6  and  N1_7 
REMARK       I    between atoms: N1_7  and  C7_8 
REMARK    2  A    between atoms: C7_8  and  O2_10 
REMARK    3  A    between atoms: O2_10  and  C8_11 
REMARK    4  A    between atoms: C8_11  and  C10_13 
REMARK    5  A    between atoms: C10_13  and  O3_14 
REMARK    6  A    between atoms: C12_16  and  N2_17 
ROOT
HETATM    1  N2  LIG X 999      42.430 132.189  21.796  1.00  0.00    -0.070 NA
HETATM    2  N3  LIG X 999      41.514 132.962  21.509  1.00  0.00    -0.162 NA
HETATM    3  N4  LIG X 999      40.598 133.733  21.226  1.00  0.00     0.068 N 
ENDROOT
BRANCH   1   4
HETATM    4  C12 LIG X 999      43.374 131.719  20.821  1.00  0.00     0.122 A 
HETATM    5  C6  LIG X 999      44.532 131.055  21.260  1.00  0.00     0.095 A 
HETATM    6  C5  LIG X 999      45.483 130.615  20.322  1.00  0.00     0.046 A 
HETATM    7  C4  LIG X 999      45.264 130.793  18.949  1.00  0.00    -0.024 A 
HETATM    8  C3  LIG X 999      46.205 130.342  18.010  1.00  0.00     0.012 A 
HETATM    9  C14 LIG X 999      44.086 131.438  18.505  1.00  0.00    -0.024 A 
HETATM   10  C2  LIG X 999      45.977 130.526  16.643  1.00  0.00     0.001 A 
HETATM   11  C1  LIG X 999      44.812 131.161  16.204  1.00  0.00     0.001 A 
HETATM   12  C15 LIG X 999      43.868 131.617  17.130  1.00  0.00     0.012 A 
HETATM   13  C13 LIG X 999      43.153 131.901  19.443  1.00  0.00     0.049 A 
BRANCH   5  14
HETATM   14  N1  LIG X 999      44.746 130.889  22.671  1.00  0.00    -0.185 NA
HETATM   15  C7  LIG X 999      44.301 129.781  23.461  1.00  0.00     0.387 C 
HETATM   16  O1  LIG X 999      44.760 129.637  24.625  1.00  0.00    -0.236 OA
BRANCH  15  17
HETATM   17  O2  LIG X 999      43.338 128.897  22.960  1.00  0.00    -0.295 OA
BRANCH  17  18
HETATM   18  C8  LIG X 999      42.694 127.895  23.748  1.00  0.00     0.153 C 
HETATM   19  C9  LIG X 999      41.173 128.073  23.678  1.00  0.00     0.042 C 
BRANCH  18  20
HETATM   20  C10 LIG X 999      43.113 126.518  23.222  1.00  0.00     0.199 C 
BRANCH  20  21
HETATM   21  O3  LIG X 999      44.414 126.208  23.681  1.00  0.00    -0.393 OA
HETATM   22  C11 LIG X 999      45.283 126.097  22.578  1.00  0.00     0.201 C 
ENDBRANCH  20  21
ENDBRANCH  18  20
ENDBRANCH  17  18
ENDBRANCH  15  17
ENDBRANCH   5  14
ENDBRANCH   1   4
TORSDOF 6
ENDMDL
MODEL 7
REMARK VINA RESULT:      -4.8      2.499      3.415
REMARK  6 active torsions:
REMARK  status: ('A' for Active; 'I' for Inactive)
REMARK    1  A    between atoms: C6_6  and  N1_7 
REMARK       I    between atoms: N1_7  and  C7_8 
REMARK    2  A    between atoms: C7_8  and  O2_10 
REMARK    3  A    between atoms: O2_10  and  C8_11 
REMARK    4  A    between atoms: C8_11  and  C10_13 
REMARK    5  A    between atoms: C10_13  and  O3_14 
REMARK    6  A    between atoms: C12_16  and  N2_17 
ROOT
HETATM    1  N2  LIG X 999      42.609 131.909  22.598  1.00  0.00    -0.070 NA
HETATM    2  N3  LIG X 999      42.173 132.419  21.566  1.00  0.00    -0.162 NA
HETATM    3  N4  LIG X 999      41.735 132.930  20.535  1.00  0.00     0.068 N 
ENDROOT
BRANCH   1   4
HETATM    4  C12 LIG X 999      43.269 130.633  22.608  1.00  0.00     0.122 A 
HETATM    5  C6  LIG X 999      44.561 130.531  22.064  1.00  0.00     0.095 A 
HETATM    6  C5  LIG X 999      45.211 129.283  22.037  1.00  0.00     0.046 A 
HETATM    7  C4  LIG X 999      44.598 128.150  22.590  1.00  0.00    -0.024 A 
HETATM    8  C3  LIG X 999      45.250 126.906  22.577  1.00  0.00     0.012 A 
HETATM    9  C14 LIG X 999      43.309 128.258  23.162  1.00  0.00    -0.024 A 
HETATM   10  C2  LIG X 999      44.630 125.783  23.130  1.00  0.00     0.001 A 
HETATM   11  C1  LIG X 999      43.357 125.890  23.697  1.00  0.00     0.001 A 
HETATM   12  C15 LIG X 999      42.696 127.122  23.714  1.00  0.00     0.012 A 
HETATM   13  C13 LIG X 999      42.652 129.496  23.162  1.00  0.00     0.049 A 
BRANCH   5  14
HETATM   14  N1  LIG X 999      45.170 131.700  21.493  1.00  0.00    -0.185 NA
HETATM   15  C7  LIG X 999      45.173 132.048  20.105  1.00  0.00     0.387 C 
HETATM   16  O1  LIG X 999      45.523 133.210  19.767  1.00  0.00    -0.236 OA
BRANCH  15  17
HETATM   17  O2  LIG X 999      44.832 131.097  19.136  1.00  0.00    -0.295 OA
BRANCH  17  18
HETATM   18  C8  LIG X 999      45.232 131.179  17.768  1.00  0.00     0.153 C 
HETATM   19  C9  LIG X 999      45.894 129.865  17.337  1.00  0.00     0.042 C 
BRANCH  18  20
HETATM   20  C10 LIG X 999      43.994 131.478  16.916  1.00  0.00     0.199 C 
BRANCH  20  21
HETATM   21  O3  LIG X 999      44.034 130.710  15.730  1.00  0.00    -0.393 OA
HETATM   22  C11 LIG X 999      44.140 131.570  14.620  1.00  0.00     0.201 C 
ENDBRANCH  20  21
ENDBRANCH  18  20
ENDBRANCH  17  18
ENDBRANCH  15  17
ENDBRANCH   5  14
ENDBRANCH   1   4
TORSDOF 6
ENDMDL
MODEL 8
REMARK VINA RESULT:      -4.6      2.491      4.033
REMARK  6 active torsions:
REMARK  status: ('A' for Active; 'I' for Inactive)
REMARK    1  A    between atoms: C6_6  and  N1_7 
REMARK       I    between atoms: N1_7  and  C7_8 
REMARK    2  A    between atoms: C7_8  and  O2_10 
REMARK    3  A    between atoms: O2_10  and  C8_11 
REMARK    4  A    between atoms: C8_11  and  C10_13 
REMARK    5  A    between atoms: C10_13  and  O3_14 
REMARK    6  A    between atoms: C12_16  and  N2_17 
ROOT
HETATM    1  N2  LIG X 999      44.756 127.650  23.835  1.00  0.00    -0.070 NA
HETATM    2  N3  LIG X 999      45.466 127.021  23.049  1.00  0.00    -0.162 NA
HETATM    3  N4  LIG X 999      46.177 126.394  22.264  1.00  0.00     0.068 N 
ENDROOT
BRANCH   1   4
HETATM    4  C12 LIG X 999      43.328 127.499  23.874  1.00  0.00     0.122 A 
HETATM    5  C6  LIG X 999      42.531 128.628  24.132  1.00  0.00     0.095 A 
HETATM    6  C5  LIG X 999      41.133 128.494  24.205  1.00  0.00     0.046 A 
HETATM    7  C4  LIG X 999      40.525 127.251  23.978  1.00  0.00    -0.024 A 
HETATM    8  C3  LIG X 999      39.128 127.117  24.036  1.00  0.00     0.012 A 
HETATM    9  C14 LIG X 999      41.325 126.121  23.693  1.00  0.00    -0.024 A 
HETATM   10  C2  LIG X 999      38.532 125.874  23.809  1.00  0.00     0.001 A 
HETATM   11  C1  LIG X 999      39.322 124.757  23.525  1.00  0.00     0.001 A 
HETATM   12  C15 LIG X 999      40.714 124.876  23.466  1.00  0.00     0.012 A 
HETATM   13  C13 LIG X 999      42.720 126.250  23.648  1.00  0.00     0.049 A 
BRANCH   5  14
HETATM   14  N1  LIG X 999      43.171 129.892  24.372  1.00  0.00    -0.185 NA
HETATM   15  C7  LIG X 999      43.126 131.030  23.506  1.00  0.00     0.387 C 
HETATM   16  O1  LIG X 999      43.518 132.145  23.942  1.00  0.00    -0.236 OA
BRANCH  15  17
HETATM   17  O2  LIG X 999      42.690 130.897  22.183  1.00  0.00    -0.295 OA
BRANCH  17  18
HETATM   18  C8  LIG X 999      43.478 131.254  21.047  1.00  0.00     0.153 C 
HETATM   19  C9  LIG X 999      42.758 132.333  20.230  1.00  0.00     0.042 C 
BRANCH  18  20
HETATM   20  C10 LIG X 999      44.842 131.753  21.538  1.00  0.00     0.199 C 
BRANCH  20  21
HETATM   21  O3  LIG X 999      45.825 131.495  20.557  1.00  0.00    -0.393 OA
HETATM   22  C11 LIG X 999      45.839 130.117  20.261  1.00  0.00     0.201 C 
ENDBRANCH  20  21
ENDBRANCH  18  20
ENDBRANCH  17  18
ENDBRANCH  15  17
ENDBRANCH   5  14
ENDBRANCH   1   4
TORSDOF 6
ENDMDL
MODEL 9
REMARK VINA RESULT:      -3.8      2.811      5.945
REMARK  6 active torsions:
REMARK  status: ('A' for Active; 'I' for Inactive)
REMARK    1  A    between atoms: C6_6  and  N1_7 
REMARK       I    between atoms: N1_7  and  C7_8 
REMARK    2  A    between atoms: C7_8  and  O2_10 
REMARK    3  A    between atoms: O2_10  and  C8_11 
REMARK    4  A    between atoms: C8_11  and  C10_13 
REMARK    5  A    between atoms: C10_13  and  O3_14 
REMARK    6  A    between atoms: C12_16  and  N2_17 
ROOT
HETATM    1  N2  LIG X 999      42.529 129.372  24.619  1.00  0.00    -0.070 NA
HETATM    2  N3  LIG X 999      41.459 128.763  24.596  1.00  0.00    -0.162 NA
HETATM    3  N4  LIG X 999      40.389 128.155  24.576  1.00  0.00     0.068 N 
ENDROOT
BRANCH   1   4
HETATM    4  C12 LIG X 999      43.255 129.701  23.423  1.00  0.00     0.122 A 
HETATM    5  C6  LIG X 999      44.426 128.985  23.120  1.00  0.00     0.095 A 
HETATM    6  C5  LIG X 999      45.166 129.313  21.970  1.00  0.00     0.046 A 
HETATM    7  C4  LIG X 999      44.721 130.318  21.099  1.00  0.00    -0.024 A 
HETATM    8  C3  LIG X 999      45.450 130.638  19.943  1.00  0.00     0.012 A 
HETATM    9  C14 LIG X 999      43.528 131.020  21.391  1.00  0.00    -0.024 A 
HETATM   10  C2  LIG X 999      44.998 131.642  19.082  1.00  0.00     0.001 A 
HETATM   11  C1  LIG X 999      43.818 132.334  19.369  1.00  0.00     0.001 A 
HETATM   12  C15 LIG X 999      43.084 132.027  20.518  1.00  0.00     0.012 A 
HETATM   13  C13 LIG X 999      42.807 130.711  22.552  1.00  0.00     0.049 A 
BRANCH   5  14
HETATM   14  N1  LIG X 999      44.874 127.965  24.027  1.00  0.00    -0.185 NA
HETATM   15  C7  LIG X 999      45.712 126.855  23.691  1.00  0.00     0.387 C 
HETATM   16  O1  LIG X 999      46.229 126.177  24.618  1.00  0.00    -0.236 OA
BRANCH  15  17
HETATM   17  O2  LIG X 999      45.918 126.504  22.352  1.00  0.00    -0.295 OA
BRANCH  17  18
HETATM   18  C8  LIG X 999      46.864 125.524  21.925  1.00  0.00     0.153 C 
HETATM   19  C9  LIG X 999      48.197 125.731  22.652  1.00  0.00     0.042 C 
BRANCH  18  20
HETATM   20  C10 LIG X 999      46.288 124.133  22.215  1.00  0.00     0.199 C 
BRANCH  20  21
HETATM   21  O3  LIG X 999      47.325 123.262  22.618  1.00  0.00    -0.393 OA
HETATM   22  C11 LIG X 999      47.761 122.511  21.508  1.00  0.00     0.201 C 
ENDBRANCH  20  21
ENDBRANCH  18  20
ENDBRANCH  17  18
ENDBRANCH  15  17
ENDBRANCH   5  14
ENDBRANCH   1   4
TORSDOF 6
ENDMDL
