REMARK VINA RESULT:      -6.3      3.265      4.517
REMARK  1 active torsions:
REMARK  status: ('A' for Active; 'I' for Inactive)
REMARK    1  A    between atoms: C1_2  and  C2_3 
ROOT
HETATM    1  C2  LIG X 999      44.659 131.238  15.113  1.00  0.00     0.013 A 
HETATM    2  C3  LIG X 999      44.385 130.884  16.449  1.00  0.00     0.015 A 
HETATM    3  C4  LIG X 999      45.285 130.125  17.194  1.00  0.00     0.002 A 
HETATM    4  C5  LIG X 999      46.480 129.699  16.628  1.00  0.00     0.012 A 
HETATM    5  C6  LIG X 999      46.792 130.028  15.303  1.00  0.00    -0.025 A 
HETATM    6  C7  LIG X 999      48.004 129.588  14.749  1.00  0.00     0.012 A 
HETATM    7  C8  LIG X 999      48.332 129.904  13.432  1.00  0.00     0.001 A 
HETATM    8  C9  LIG X 999      47.457 130.662  12.657  1.00  0.00     0.001 A 
HETATM    9  C10 LIG X 999      46.246 131.109  13.190  1.00  0.00     0.013 A 
HETATM   10  C11 LIG X 999      45.884 130.803  14.524  1.00  0.00    -0.013 A 
ENDROOT
BRANCH   1  11
HETATM   11  C1  LIG X 999      43.650 132.050  14.381  1.00  0.00     0.270 C 
HETATM   12  O1  LIG X 999      42.797 131.499  13.634  1.00  0.00    -0.301 OA
ENDBRANCH   1  11
TORSDOF 1
