REMARK VINA RESULT:      -7.7      1.517      2.833
REMARK  2 active torsions:
REMARK  status: ('A' for Active; 'I' for Inactive)
REMARK    1  A    between atoms: C2_5  and  C3_6 
REMARK    2  A    between atoms: N3_18  and  C13_19 
ROOT
HETATM    1  H1  LIG X 999      42.321 131.909  13.677  1.00  0.00     0.190 HD
HETATM    2  N1  LIG X 999      43.300 131.653  13.937  1.00  0.00    -0.260 NA
HETATM    3  C1  LIG X 999      43.669 131.617  15.177  1.00  0.00     0.268 A 
HETATM    4  O1  LIG X 999      42.870 131.874  16.189  1.00  0.00    -0.257 OA
HETATM    5  C2  LIG X 999      43.609 131.679  17.262  1.00  0.00     0.177 A 
HETATM    6  N2  LIG X 999      44.865 131.315  16.922  1.00  0.00    -0.269 N 
HETATM    7  H9  LIG X 999      45.673 131.140  17.559  1.00  0.00     0.190 HD
HETATM    8  N3  LIG X 999      44.905 131.282  15.600  1.00  0.00    -0.212 N 
ENDROOT
BRANCH   5   9
HETATM    9  C3  LIG X 999      43.133 131.890  18.645  1.00  0.00     0.028 A 
HETATM   10  C4  LIG X 999      41.932 132.596  18.817  1.00  0.00     0.017 A 
HETATM   11  C5  LIG X 999      41.458 132.901  20.091  1.00  0.00     0.002 A 
HETATM   12  C6  LIG X 999      42.171 132.502  21.220  1.00  0.00     0.012 A 
HETATM   13  C7  LIG X 999      43.355 131.765  21.084  1.00  0.00    -0.025 A 
HETATM   14  C8  LIG X 999      44.049 131.339  22.227  1.00  0.00     0.012 A 
HETATM   15  C12 LIG X 999      43.843 131.434  19.790  1.00  0.00    -0.011 A 
HETATM   16  C9  LIG X 999      45.205 130.568  22.102  1.00  0.00     0.001 A 
HETATM   17  C10 LIG X 999      45.671 130.206  20.839  1.00  0.00     0.001 A 
HETATM   18  C11 LIG X 999      44.994 130.624  19.691  1.00  0.00     0.013 A 
ENDBRANCH   5   9
BRANCH   8  19
HETATM   19  C13 LIG X 999      46.057 130.910  14.825  1.00  0.00     0.105 A 
HETATM   20  C14 LIG X 999      46.735 131.884  14.077  1.00  0.00     0.054 A 
HETATM   21  C15 LIG X 999      47.853 131.521  13.322  1.00  0.00     0.122 A 
HETATM   22  N4  LIG X 999      48.272 130.229  13.303  1.00  0.00    -0.230 NA
HETATM   23  C16 LIG X 999      47.626 129.259  14.004  1.00  0.00     0.251 A 
HETATM   24  F1  LIG X 999      48.068 127.979  13.943  1.00  0.00    -0.181 F 
HETATM   25  C17 LIG X 999      46.504 129.578  14.775  1.00  0.00     0.202 A 
HETATM   26  F2  LIG X 999      45.835 128.591  15.421  1.00  0.00    -0.199 F 
ENDBRANCH   8  19
TORSDOF 2
