MODEL 1
REMARK VINA RESULT:      -8.6      0.000      0.000
REMARK  4 active torsions:
REMARK  status: ('A' for Active; 'I' for Inactive)
REMARK    1  A    between atoms: C7_9  and  C8_10 
REMARK    2  A    between atoms: C9_13  and  N4_14 
REMARK    3  A    between atoms: C13_21  and  O2_22 
REMARK    4  A    between atoms: N7_24  and  C14_25 
ROOT
HETATM    1  N4  LIG X 999      47.100 131.515  13.999  1.00  0.00    -0.023 NA
HETATM    2  N5  LIG X 999      47.736 130.505  13.698  1.00  0.00    -0.158 NA
HETATM    3  N6  LIG X 999      48.372 129.496  13.397  1.00  0.00     0.068 N 
ENDROOT
BRANCH   1   4
HETATM    4  C9  LIG X 999      45.860 131.413  14.697  1.00  0.00     0.326 A 
HETATM    5  N3  LIG X 999      44.715 131.007  14.122  1.00  0.00    -0.099 NA
HETATM    6  N2  LIG X 999      43.799 131.043  15.078  1.00  0.00    -0.119 NA
HETATM    7  C8  LIG X 999      44.427 131.462  16.198  1.00  0.00     0.205 A 
HETATM    8  O1  LIG X 999      45.696 131.700  15.965  1.00  0.00    -0.252 OA
BRANCH   7   9
HETATM    9  C7  LIG X 999      43.751 131.677  17.492  1.00  0.00     0.032 A 
HETATM   10  C6  LIG X 999      44.343 131.337  18.747  1.00  0.00     0.020 A 
HETATM   11  C1  LIG X 999      45.595 130.554  19.015  1.00  0.00     0.060 A 
HETATM   12  C5  LIG X 999      43.644 131.713  19.880  1.00  0.00     0.019 A 
HETATM   13  N1  LIG X 999      46.254 129.987  18.056  1.00  0.00    -0.299 NA
HETATM   14  C2  LIG X 999      46.025 130.342  20.441  1.00  0.00     0.034 A 
HETATM   15  H1  LIG X 999      47.106 129.411  18.234  1.00  0.00     0.187 HD
HETATM   16  C3  LIG X 999      45.272 130.779  21.471  1.00  0.00     0.033 A 
HETATM   17  C4  LIG X 999      44.017 131.488  21.167  1.00  0.00     0.048 A 
HETATM   18  N7  LIG X 999      43.065 131.961  22.007  1.00  0.00    -0.327 N 
HETATM   19  C13 LIG X 999      42.082 132.466  21.212  1.00  0.00     0.154 A 
HETATM   20  C12 LIG X 999      42.432 132.326  19.876  1.00  0.00     0.028 A 
HETATM   21  C11 LIG X 999      41.796 132.632  18.679  1.00  0.00     0.018 A 
HETATM   22  C10 LIG X 999      42.468 132.307  17.480  1.00  0.00     0.018 A 
BRANCH  18  23
HETATM   23  C14 LIG X 999      43.038 131.851  23.465  1.00  0.00     0.127 C 
HETATM   24  C15 LIG X 999      42.448 130.509  23.883  1.00  0.00     0.027 C 
ENDBRANCH  18  23
BRANCH  19  25
HETATM   25  O2  LIG X 999      40.898 133.021  21.693  1.00  0.00    -0.345 OA
HETATM   26  H6  LIG X 999      39.997 132.642  21.431  1.00  0.00     0.219 HD
ENDBRANCH  19  25
ENDBRANCH   7   9
ENDBRANCH   1   4
TORSDOF 4
ENDMDL
MODEL 2
REMARK VINA RESULT:      -7.0      1.395      2.701
REMARK  4 active torsions:
REMARK  status: ('A' for Active; 'I' for Inactive)
REMARK    1  A    between atoms: C7_9  and  C8_10 
REMARK    2  A    between atoms: C9_13  and  N4_14 
REMARK    3  A    between atoms: C13_21  and  O2_22 
REMARK    4  A    between atoms: N7_24  and  C14_25 
ROOT
HETATM    1  N4  LIG X 999      47.012 131.022  13.735  1.00  0.00    -0.023 NA
HETATM    2  N5  LIG X 999      47.901 130.251  13.372  1.00  0.00    -0.158 NA
HETATM    3  N6  LIG X 999      48.789 129.482  13.010  1.00  0.00     0.068 N 
ENDROOT
BRANCH   1   4
HETATM    4  C9  LIG X 999      46.184 130.704  14.853  1.00  0.00     0.326 A 
HETATM    5  N3  LIG X 999      45.103 129.911  14.774  1.00  0.00    -0.099 NA
HETATM    6  N2  LIG X 999      44.607 129.856  16.001  1.00  0.00    -0.119 NA
HETATM    7  C8  LIG X 999      45.413 130.611  16.777  1.00  0.00     0.205 A 
HETATM    8  O1  LIG X 999      46.382 131.144  16.071  1.00  0.00    -0.252 OA
BRANCH   7   9
HETATM    9  C7  LIG X 999      45.188 130.848  18.217  1.00  0.00     0.032 A 
HETATM   10  C6  LIG X 999      43.980 131.407  18.735  1.00  0.00     0.020 A 
HETATM   11  C1  LIG X 999      42.836 132.030  17.988  1.00  0.00     0.060 A 
HETATM   12  C5  LIG X 999      43.863 131.451  20.113  1.00  0.00     0.019 A 
HETATM   13  N1  LIG X 999      42.889 132.219  16.710  1.00  0.00    -0.299 NA
HETATM   14  C2  LIG X 999      41.654 132.538  18.768  1.00  0.00     0.034 A 
HETATM   15  H1  LIG X 999      42.115 132.684  16.185  1.00  0.00     0.187 HD
HETATM   16  C3  LIG X 999      41.639 132.505  20.117  1.00  0.00     0.033 A 
HETATM   17  C4  LIG X 999      42.808 131.944  20.815  1.00  0.00     0.048 A 
HETATM   18  N7  LIG X 999      43.065 131.858  22.142  1.00  0.00    -0.327 N 
HETATM   19  C13 LIG X 999      44.312 131.321  22.248  1.00  0.00     0.154 A 
HETATM   20  C12 LIG X 999      44.823 131.053  20.985  1.00  0.00     0.028 A 
HETATM   21  C11 LIG X 999      46.034 130.547  20.526  1.00  0.00     0.018 A 
HETATM   22  C10 LIG X 999      46.210 130.442  19.129  1.00  0.00     0.018 A 
BRANCH  18  23
HETATM   23  C14 LIG X 999      42.229 132.347  23.239  1.00  0.00     0.127 C 
HETATM   24  C15 LIG X 999      41.965 131.229  24.240  1.00  0.00     0.027 C 
ENDBRANCH  18  23
BRANCH  19  25
HETATM   25  O2  LIG X 999      44.965 131.100  23.459  1.00  0.00    -0.345 OA
HETATM   26  H6  LIG X 999      44.667 131.564  24.307  1.00  0.00     0.219 HD
ENDBRANCH  19  25
ENDBRANCH   7   9
ENDBRANCH   1   4
TORSDOF 4
ENDMDL
MODEL 3
REMARK VINA RESULT:      -5.7      5.158      7.905
REMARK  4 active torsions:
REMARK  status: ('A' for Active; 'I' for Inactive)
REMARK    1  A    between atoms: C7_9  and  C8_10 
REMARK    2  A    between atoms: C9_13  and  N4_14 
REMARK    3  A    between atoms: C13_21  and  O2_22 
REMARK    4  A    between atoms: N7_24  and  C14_25 
ROOT
HETATM    1  N4  LIG X 999      44.918 132.020  20.757  1.00  0.00    -0.023 NA
HETATM    2  N5  LIG X 999      44.416 131.880  19.642  1.00  0.00    -0.158 NA
HETATM    3  N6  LIG X 999      43.915 131.740  18.528  1.00  0.00     0.068 N 
ENDROOT
BRANCH   1   4
HETATM    4  C9  LIG X 999      44.622 131.102  21.809  1.00  0.00     0.326 A 
HETATM    5  N3  LIG X 999      44.388 131.476  23.078  1.00  0.00    -0.099 NA
HETATM    6  N2  LIG X 999      44.154 130.357  23.746  1.00  0.00    -0.119 NA
HETATM    7  C8  LIG X 999      44.248 129.348  22.854  1.00  0.00     0.205 A 
HETATM    8  O1  LIG X 999      44.546 129.802  21.659  1.00  0.00    -0.252 OA
BRANCH   7   9
HETATM    9  C7  LIG X 999      44.094 127.922  23.201  1.00  0.00     0.032 A 
HETATM   10  C6  LIG X 999      42.839 127.338  23.556  1.00  0.00     0.020 A 
HETATM   11  C1  LIG X 999      41.532 128.018  23.843  1.00  0.00     0.060 A 
HETATM   12  C5  LIG X 999      42.827 125.966  23.733  1.00  0.00     0.019 A 
HETATM   13  N1  LIG X 999      41.441 129.308  23.892  1.00  0.00    -0.299 NA
HETATM   14  C2  LIG X 999      40.336 127.173  24.184  1.00  0.00     0.034 A 
HETATM   15  H1  LIG X 999      40.545 129.792  24.126  1.00  0.00     0.187 HD
HETATM   16  C3  LIG X 999      40.437 125.833  24.302  1.00  0.00     0.033 A 
HETATM   17  C4  LIG X 999      41.751 125.209  24.075  1.00  0.00     0.048 A 
HETATM   18  N7  LIG X 999      42.126 123.913  24.196  1.00  0.00    -0.327 N 
HETATM   19  C13 LIG X 999      43.464 123.885  23.941  1.00  0.00     0.154 A 
HETATM   20  C12 LIG X 999      43.917 125.162  23.642  1.00  0.00     0.028 A 
HETATM   21  C11 LIG X 999      45.167 125.693  23.345  1.00  0.00     0.018 A 
HETATM   22  C10 LIG X 999      45.249 127.085  23.119  1.00  0.00     0.018 A 
BRANCH  18  23
HETATM   23  C14 LIG X 999      41.296 122.787  24.625  1.00  0.00     0.127 C 
HETATM   24  C15 LIG X 999      40.344 122.377  23.508  1.00  0.00     0.027 C 
ENDBRANCH  18  23
BRANCH  19  25
HETATM   25  O2  LIG X 999      44.244 122.732  23.998  1.00  0.00    -0.345 OA
HETATM   26  H6  LIG X 999      44.163 122.082  24.770  1.00  0.00     0.219 HD
ENDBRANCH  19  25
ENDBRANCH   7   9
ENDBRANCH   1   4
TORSDOF 4
ENDMDL
MODEL 4
REMARK VINA RESULT:      -5.7      7.714      8.732
REMARK  4 active torsions:
REMARK  status: ('A' for Active; 'I' for Inactive)
REMARK    1  A    between atoms: C7_9  and  C8_10 
REMARK    2  A    between atoms: C9_13  and  N4_14 
REMARK    3  A    between atoms: C13_21  and  O2_22 
REMARK    4  A    between atoms: N7_24  and  C14_25 
ROOT
HETATM    1  N4  LIG X 999      50.222 124.079  20.767  1.00  0.00    -0.023 NA
HETATM    2  N5  LIG X 999      50.427 123.906  19.565  1.00  0.00    -0.158 NA
HETATM    3  N6  LIG X 999      50.633 123.732  18.365  1.00  0.00     0.068 N 
ENDROOT
BRANCH   1   4
HETATM    4  C9  LIG X 999      49.031 123.588  21.380  1.00  0.00     0.326 A 
HETATM    5  N3  LIG X 999      48.998 122.512  22.183  1.00  0.00    -0.099 NA
HETATM    6  N2  LIG X 999      47.734 122.375  22.552  1.00  0.00    -0.119 NA
HETATM    7  C8  LIG X 999      47.050 123.381  21.964  1.00  0.00     0.205 A 
HETATM    8  O1  LIG X 999      47.845 124.126  21.233  1.00  0.00    -0.252 OA
BRANCH   7   9
HETATM    9  C7  LIG X 999      45.591 123.570  22.087  1.00  0.00     0.032 A 
HETATM   10  C6  LIG X 999      45.004 124.707  22.722  1.00  0.00     0.020 A 
HETATM   11  C1  LIG X 999      45.670 125.781  23.531  1.00  0.00     0.060 A 
HETATM   12  C5  LIG X 999      43.626 124.809  22.649  1.00  0.00     0.019 A 
HETATM   13  N1  LIG X 999      46.927 125.716  23.832  1.00  0.00    -0.299 NA
HETATM   14  C2  LIG X 999      44.827 126.895  24.087  1.00  0.00     0.034 A 
HETATM   15  H1  LIG X 999      47.393 126.439  24.425  1.00  0.00     0.187 HD
HETATM   16  C3  LIG X 999      43.487 126.905  23.930  1.00  0.00     0.033 A 
HETATM   17  C4  LIG X 999      42.863 125.799  23.184  1.00  0.00     0.048 A 
HETATM   18  N7  LIG X 999      41.554 125.545  22.947  1.00  0.00    -0.327 N 
HETATM   19  C13 LIG X 999      41.519 124.362  22.272  1.00  0.00     0.154 A 
HETATM   20  C12 LIG X 999      42.810 123.892  22.070  1.00  0.00     0.028 A 
HETATM   21  C11 LIG X 999      43.334 122.746  21.482  1.00  0.00     0.018 A 
HETATM   22  C10 LIG X 999      44.738 122.592  21.490  1.00  0.00     0.018 A 
BRANCH  18  23
HETATM   23  C14 LIG X 999      40.403 126.314  23.418  1.00  0.00     0.127 C 
HETATM   24  C15 LIG X 999      39.667 125.549  24.511  1.00  0.00     0.027 C 
ENDBRANCH  18  23
BRANCH  19  25
HETATM   25  O2  LIG X 999      40.345 123.728  21.870  1.00  0.00    -0.345 OA
HETATM   26  H6  LIG X 999      39.867 124.002  21.020  1.00  0.00     0.219 HD
ENDBRANCH  19  25
ENDBRANCH   7   9
ENDBRANCH   1   4
TORSDOF 4
ENDMDL
