REMARK VINA RESULT:      -4.4      1.498      2.092
REMARK  6 active torsions:
REMARK  status: ('A' for Active; 'I' for Inactive)
REMARK    1  A    between atoms: C8_8  and  O1_9 
REMARK    2  A    between atoms: O1_9  and  C9_10 
REMARK    3  A    between atoms: C9_10  and  C10_11 
REMARK    4  A    between atoms: C10_11  and  C11_12 
REMARK    5  A    between atoms: C11_12  and  N1_13 
REMARK    6  A    between atoms: C13_18  and  N4_19 
ROOT
HETATM    1  N1  LIG X 999      45.421 131.032  20.548  1.00  0.00    -0.116 NA
HETATM    2  N2  LIG X 999      44.425 131.587  20.083  1.00  0.00    -0.168 NA
HETATM    3  N3  LIG X 999      43.432 132.143  19.618  1.00  0.00     0.068 N 
ENDROOT
BRANCH   1   4
HETATM    4  C11 LIG X 999      45.295 129.785  21.287  1.00  0.00     0.191 C 
BRANCH   4   5
HETATM    5  C10 LIG X 999      44.284 129.960  22.421  1.00  0.00     0.051 C 
BRANCH   5   6
HETATM    6  C9  LIG X 999      44.591 129.037  23.602  1.00  0.00     0.170 C 
BRANCH   6   7
HETATM    7  O1  LIG X 999      44.734 127.710  23.139  1.00  0.00    -0.384 OA
BRANCH   7   8
HETATM    8  C8  LIG X 999      44.832 126.801  24.225  1.00  0.00     0.146 C 
HETATM    9  C7  LIG X 999      43.434 126.307  24.618  1.00  0.00     0.072 C 
HETATM   10  C5  LIG X 999      42.813 125.432  23.556  1.00  0.00    -0.047 A 
HETATM   11  C4  LIG X 999      43.609 124.718  22.626  1.00  0.00    -0.023 A 
HETATM   12  C6  LIG X 999      41.419 125.268  23.547  1.00  0.00     0.008 A 
HETATM   13  C3  LIG X 999      42.973 123.917  21.659  1.00  0.00     0.010 A 
HETATM   14  C13 LIG X 999      45.118 124.895  22.563  1.00  0.00     0.199 C 
HETATM   15  C2  LIG X 999      41.583 123.777  21.652  1.00  0.00     0.001 A 
HETATM   16  C1  LIG X 999      40.808 124.446  22.598  1.00  0.00     0.001 A 
HETATM   17  C12 LIG X 999      45.692 125.599  23.810  1.00  0.00     0.143 C 
HETATM   18 CL1  LIG X 999      47.369 126.134  23.497  1.00  0.00    -0.120 Cl
BRANCH  14  19
HETATM   19  N4  LIG X 999      45.764 123.592  22.419  1.00  0.00    -0.104 NA
HETATM   20  N5  LIG X 999      46.733 123.439  21.675  1.00  0.00    -0.167 NA
HETATM   21  N6  LIG X 999      47.700 123.288  20.930  1.00  0.00     0.068 N 
ENDBRANCH  14  19
ENDBRANCH   7   8
ENDBRANCH   6   7
ENDBRANCH   5   6
ENDBRANCH   4   5
ENDBRANCH   1   4
TORSDOF 6
