REMARK VINA RESULT:      -7.8      2.031      8.426
REMARK  8 active torsions:
REMARK  status: ('A' for Active; 'I' for Inactive)
REMARK    1  A    between atoms: O1_2  and  C1_3 
REMARK    2  A    between atoms: C1_3  and  N1_4 
REMARK    3  A    between atoms: N1_4  and  C2_5 
REMARK    4  A    between atoms: C2_5  and  C3_6 
REMARK    5  A    between atoms: C3_6  and  C4_7 
REMARK    6  A    between atoms: C4_7  and  O2_8 
REMARK    7  A    between atoms: O2_8  and  C5_9 
REMARK    8  A    between atoms: C15_19  and  C16_20 
ROOT
HETATM    1  C4  LIG X 999      45.368 131.682  19.903  1.00  0.00     0.177 C 
ENDROOT
BRANCH   1   2
HETATM    2  C3  LIG X 999      44.623 131.640  18.558  1.00  0.00     0.048 C 
BRANCH   2   3
HETATM    3  C2  LIG X 999      45.416 130.927  17.456  1.00  0.00     0.154 C 
BRANCH   3   4
HETATM    4  N1  LIG X 999      45.515 131.785  16.284  1.00  0.00    -0.267 NA
BRANCH   4   5
HETATM    5  C1  LIG X 999      44.896 131.475  15.033  1.00  0.00     0.153 C 
HETATM    6  C15 LIG X 999      45.631 131.030  14.004  1.00  0.00     0.034 C 
BRANCH   5   7
HETATM    7  O1  LIG X 999      43.518 131.645  14.889  1.00  0.00    -0.345 OA
HETATM    8  H1  LIG X 999      43.015 132.385  15.367  1.00  0.00     0.219 HD
ENDBRANCH   5   7
BRANCH   6   9
HETATM    9  C16 LIG X 999      47.118 130.776  14.108  1.00  0.00     0.004 C 
HETATM   10  C17 LIG X 999      47.819 131.153  12.800  1.00  0.00     0.013 C 
HETATM   11  C18 LIG X 999      47.384 129.310  14.461  1.00  0.00     0.013 C 
ENDBRANCH   6   9
ENDBRANCH   4   5
ENDBRANCH   3   4
ENDBRANCH   2   3
ENDBRANCH   1   2
BRANCH   1  12
HETATM   12  O2  LIG X 999      44.477 131.803  21.014  1.00  0.00    -0.351 OA
BRANCH  12  13
HETATM   13  C5  LIG X 999      44.107 130.772  21.892  1.00  0.00     0.069 A 
HETATM   14  C6  LIG X 999      43.013 130.876  22.772  1.00  0.00     0.037 A 
HETATM   15  C7  LIG X 999      42.661 129.801  23.593  1.00  0.00     0.015 A 
HETATM   16  C8  LIG X 999      43.400 128.611  23.555  1.00  0.00    -0.026 A 
HETATM   17  C9  LIG X 999      43.040 127.517  24.357  1.00  0.00     0.012 A 
HETATM   18  C13 LIG X 999      44.517 128.509  22.692  1.00  0.00    -0.023 A 
HETATM   19  C10 LIG X 999      43.781 126.333  24.302  1.00  0.00     0.001 A 
HETATM   20  C11 LIG X 999      44.884 126.233  23.451  1.00  0.00     0.001 A 
HETATM   21  C12 LIG X 999      45.254 127.316  22.648  1.00  0.00     0.012 A 
HETATM   22  C14 LIG X 999      44.863 129.594  21.872  1.00  0.00     0.049 A 
ENDBRANCH  12  13
ENDBRANCH   1  12
TORSDOF 8
