REMARK VINA RESULT:      -4.7      0.000      0.000
REMARK  6 active torsions:
REMARK  status: ('A' for Active; 'I' for Inactive)
REMARK    1  A    between atoms: C8_8  and  O1_9 
REMARK    2  A    between atoms: O1_9  and  C9_10 
REMARK    3  A    between atoms: C9_10  and  C10_11 
REMARK    4  A    between atoms: C10_11  and  C11_12 
REMARK    5  A    between atoms: C11_12  and  N1_13 
REMARK    6  A    between atoms: C13_18  and  N4_19 
ROOT
HETATM    1  N1  LIG X 999      43.346 131.558  20.878  1.00  0.00    -0.116 NA
HETATM    2  N2  LIG X 999      42.547 132.199  20.193  1.00  0.00    -0.168 NA
HETATM    3  N3  LIG X 999      41.749 132.839  19.511  1.00  0.00     0.068 N 
ENDROOT
BRANCH   1   4
HETATM    4  C11 LIG X 999      44.760 131.534  20.536  1.00  0.00     0.191 C 
BRANCH   4   5
HETATM    5  C10 LIG X 999      45.397 130.254  21.079  1.00  0.00     0.051 C 
BRANCH   5   6
HETATM    6  C9  LIG X 999      44.663 129.735  22.316  1.00  0.00     0.170 C 
BRANCH   6   7
HETATM    7  O1  LIG X 999      44.741 128.325  22.355  1.00  0.00    -0.384 OA
BRANCH   7   8
HETATM    8  C8  LIG X 999      44.974 127.865  23.677  1.00  0.00     0.146 C 
HETATM    9  C7  LIG X 999      43.756 128.174  24.558  1.00  0.00     0.072 C 
HETATM   10  C5  LIG X 999      42.546 127.360  24.172  1.00  0.00    -0.047 A 
HETATM   11  C4  LIG X 999      42.671 126.116  23.503  1.00  0.00    -0.023 A 
HETATM   12  C6  LIG X 999      41.274 127.817  24.556  1.00  0.00     0.008 A 
HETATM   13  C3  LIG X 999      41.505 125.402  23.170  1.00  0.00     0.010 A 
HETATM   14  C13 LIG X 999      44.018 125.599  23.024  1.00  0.00     0.199 C 
HETATM   15  C2  LIG X 999      40.246 125.878  23.544  1.00  0.00     0.001 A 
HETATM   16  C1  LIG X 999      40.132 127.080  24.241  1.00  0.00     0.001 A 
HETATM   17  C12 LIG X 999      45.208 126.349  23.658  1.00  0.00     0.143 C 
HETATM   18 CL1  LIG X 999      46.713 125.980  22.764  1.00  0.00    -0.120 Cl
BRANCH  14  19
HETATM   19  N4  LIG X 999      44.139 124.175  23.333  1.00  0.00    -0.104 NA
HETATM   20  N5  LIG X 999      44.455 123.360  22.466  1.00  0.00    -0.167 NA
HETATM   21  N6  LIG X 999      44.769 122.545  21.599  1.00  0.00     0.068 N 
ENDBRANCH  14  19
ENDBRANCH   7   8
ENDBRANCH   6   7
ENDBRANCH   5   6
ENDBRANCH   4   5
ENDBRANCH   1   4
TORSDOF 6
