REMARK VINA RESULT:      -7.7      0.000      0.000
REMARK  1 active torsions:
REMARK  status: ('A' for Active; 'I' for Inactive)
REMARK    1  A    between atoms: C11_13  and  N2_14 
ROOT
HETATM    1  N2  LIG X 999      47.561 129.513  14.404  1.00  0.00    -0.053 NA
HETATM    2  N3  LIG X 999      47.805 130.166  13.389  1.00  0.00    -0.160 NA
HETATM    3  N4  LIG X 999      48.057 130.809  12.372  1.00  0.00     0.068 N 
ENDROOT
BRANCH   1   4
HETATM    4  C11 LIG X 999      46.697 129.991  15.442  1.00  0.00     0.175 A 
HETATM    5  C10 LIG X 999      45.470 130.649  15.295  1.00  0.00     0.026 A 
HETATM    6  C5  LIG X 999      45.054 130.888  16.565  1.00  0.00     0.017 A 
HETATM    7  C9  LIG X 999      44.680 131.058  14.215  1.00  0.00     0.016 A 
HETATM    8  C4  LIG X 999      45.970 130.409  17.439  1.00  0.00     0.046 A 
HETATM    9  C6  LIG X 999      43.881 131.524  16.904  1.00  0.00     0.005 A 
HETATM   10  C3  LIG X 999      45.765 130.539  18.893  1.00  0.00     0.033 A 
HETATM   11  N5  LIG X 999      46.995 129.849  16.763  1.00  0.00    -0.337 N 
HETATM   12  C2  LIG X 999      44.640 131.150  19.331  1.00  0.00     0.034 A 
HETATM   13  C1  LIG X 999      43.622 131.684  18.360  1.00  0.00     0.059 A 
HETATM   14  N1  LIG X 999      42.544 132.268  18.778  1.00  0.00    -0.300 NA
HETATM   15  H1  LIG X 999      42.344 132.389  19.796  1.00  0.00     0.187 HD
HETATM   16  H7  LIG X 999      47.844 129.398  17.171  1.00  0.00     0.167 HD
HETATM   17  C7  LIG X 999      43.056 131.953  15.846  1.00  0.00     0.015 A 
HETATM   18  C8  LIG X 999      43.459 131.719  14.503  1.00  0.00     0.002 A 
ENDBRANCH   1   4
TORSDOF 1
