REMARK VINA RESULT:      -6.0      2.649      6.983
REMARK  5 active torsions:
REMARK  status: ('A' for Active; 'I' for Inactive)
REMARK    1  A    between atoms: N1_1  and  C1_2 
REMARK    2  A    between atoms: C1_2  and  C2_3 
REMARK    3  A    between atoms: C2_3  and  C3_4 
REMARK    4  A    between atoms: C3_4  and  O1_5 
REMARK    5  A    between atoms: O1_5  and  C4_6 
ROOT
HETATM    1  C4  LIG X 999      43.506 131.759  18.492  1.00  0.00     0.069 A 
HETATM    2  C5  LIG X 999      42.315 132.439  18.811  1.00  0.00     0.037 A 
HETATM    3  C6  LIG X 999      41.911 132.571  20.142  1.00  0.00     0.015 A 
HETATM    4  C7  LIG X 999      42.688 132.029  21.174  1.00  0.00    -0.026 A 
HETATM    5  C8  LIG X 999      42.290 132.156  22.514  1.00  0.00     0.012 A 
HETATM    6  C9  LIG X 999      43.075 131.609  23.534  1.00  0.00     0.001 A 
HETATM    7  C10 LIG X 999      44.258 130.933  23.224  1.00  0.00     0.001 A 
HETATM    8  C11 LIG X 999      44.665 130.799  21.894  1.00  0.00     0.012 A 
HETATM    9  C12 LIG X 999      43.886 131.343  20.861  1.00  0.00    -0.023 A 
HETATM   10  C13 LIG X 999      44.284 131.215  19.521  1.00  0.00     0.049 A 
ENDROOT
BRANCH   1  11
HETATM   11  O1  LIG X 999      43.951 131.602  17.171  1.00  0.00    -0.351 OA
BRANCH  11  12
HETATM   12  C3  LIG X 999      45.292 131.822  16.739  1.00  0.00     0.177 C 
BRANCH  12  13
HETATM   13  C2  LIG X 999      45.930 130.498  16.308  1.00  0.00     0.056 C 
BRANCH  13  14
HETATM   14  C1  LIG X 999      46.706 130.602  14.990  1.00  0.00     0.269 C 
BRANCH  14  15
HETATM   15  N1  LIG X 999      47.146 129.285  14.536  1.00  0.00     0.078 N 
HETATM   16  H1  LIG X 999      46.331 128.631  14.582  1.00  0.00     0.312 HD
HETATM   17  H2  LIG X 999      47.396 129.363  13.524  1.00  0.00     0.312 HD
ENDBRANCH  14  15
ENDBRANCH  13  14
ENDBRANCH  12  13
ENDBRANCH  11  12
ENDBRANCH   1  11
TORSDOF 5
