REMARK VINA RESULT:      -5.7      6.914      8.067
REMARK  3 active torsions:
REMARK  status: ('A' for Active; 'I' for Inactive)
REMARK    1  A    between atoms: C7_9  and  C8_10 
REMARK    2  A    between atoms: C9_13  and  N4_14 
REMARK    3  A    between atoms: N7_23  and  C14_24 
ROOT
HETATM    1  N4  LIG X 999      49.189 122.954  19.895  1.00  0.00    -0.023 NA
HETATM    2  N5  LIG X 999      49.983 123.385  19.061  1.00  0.00    -0.158 NA
HETATM    3  N6  LIG X 999      50.777 123.817  18.225  1.00  0.00     0.068 N 
ENDROOT
BRANCH   1   4
HETATM    4  C9  LIG X 999      48.601 123.824  20.860  1.00  0.00     0.326 A 
HETATM    5  N3  LIG X 999      49.312 124.569  21.722  1.00  0.00    -0.099 NA
HETATM    6  N2  LIG X 999      48.422 125.231  22.446  1.00  0.00    -0.119 NA
HETATM    7  C8  LIG X 999      47.206 124.856  22.000  1.00  0.00     0.205 A 
HETATM    8  O1  LIG X 999      47.310 123.995  21.015  1.00  0.00    -0.252 OA
BRANCH   7   9
HETATM    9  C7  LIG X 999      45.934 125.396  22.519  1.00  0.00     0.032 A 
HETATM   10  C6  LIG X 999      44.862 124.566  22.973  1.00  0.00     0.020 A 
HETATM   11  C1  LIG X 999      44.855 123.084  23.211  1.00  0.00     0.060 A 
HETATM   12  C5  LIG X 999      43.686 125.211  23.312  1.00  0.00     0.019 A 
HETATM   13  N1  LIG X 999      45.935 122.379  23.106  1.00  0.00    -0.299 NA
HETATM   14  C2  LIG X 999      43.584 122.434  23.682  1.00  0.00     0.034 A 
HETATM   15  H1  LIG X 999      45.950 121.354  23.304  1.00  0.00     0.187 HD
HETATM   16  C3  LIG X 999      42.484 123.165  23.959  1.00  0.00     0.033 A 
HETATM   17  C4  LIG X 999      42.550 124.622  23.772  1.00  0.00     0.048 A 
HETATM   18  N7  LIG X 999      41.622 125.574  24.039  1.00  0.00    -0.324 N 
HETATM   19  C13 LIG X 999      42.217 126.765  23.753  1.00  0.00     0.193 A 
HETATM   20  C12 LIG X 999      43.506 126.555  23.290  1.00  0.00     0.032 A 
HETATM   21  O2  LIG X 999      41.613 128.005  23.925  1.00  0.00    -0.171 OA
HETATM   22  C11 LIG X 999      44.533 127.405  22.901  1.00  0.00     0.018 A 
HETATM   23  C10 LIG X 999      45.755 126.814  22.508  1.00  0.00     0.018 A 
BRANCH  18  24
HETATM   24  C14 LIG X 999      40.295 125.378  24.624  1.00  0.00     0.127 C 
HETATM   25  C15 LIG X 999      39.326 124.852  23.574  1.00  0.00     0.027 C 
ENDBRANCH  18  24
ENDBRANCH   7   9
ENDBRANCH   1   4
TORSDOF 3
