REMARK VINA RESULT:      -4.0      3.087      6.011
REMARK  3 active torsions:
REMARK  status: ('A' for Active; 'I' for Inactive)
REMARK    1  A    between atoms: N2_3  and  N3_4 
REMARK    2  A    between atoms: C1_5  and  C2_6 
REMARK    3  A    between atoms: C3_8  and  C4_9 
REMARK       I    between atoms: N4_19  and  C14_20 
ROOT
HETATM    1  C2  LIG X 999      45.202 124.252  23.788  1.00  0.00     0.259 C 
HETATM    2  O1  LIG X 999      44.894 125.439  24.497  1.00  0.00    -0.335 OA
HETATM    3  C3  LIG X 999      43.517 125.661  24.311  1.00  0.00     0.280 C 
HETATM    4  N4  LIG X 999      43.118 124.805  23.217  1.00  0.00    -0.247 N 
HETATM    5  C14 LIG X 999      41.791 124.733  22.668  1.00  0.00     0.232 C 
HETATM    6  O2  LIG X 999      40.848 125.374  23.206  1.00  0.00    -0.272 OA
HETATM    7  C15 LIG X 999      41.505 123.874  21.477  1.00  0.00     0.119 C 
HETATM    8  N5  LIG X 999      44.154 123.975  22.802  1.00  0.00    -0.199 NA
HETATM    9  H15 LIG X 999      43.837 122.985  22.930  1.00  0.00     0.150 HD
ENDROOT
BRANCH   3  10
HETATM   10  C4  LIG X 999      43.272 127.127  23.972  1.00  0.00     0.003 A 
HETATM   11  C5  LIG X 999      42.202 127.768  24.625  1.00  0.00     0.012 A 
HETATM   12  C6  LIG X 999      41.886 129.097  24.364  1.00  0.00     0.002 A 
HETATM   13  C7  LIG X 999      42.635 129.830  23.451  1.00  0.00     0.012 A 
HETATM   14  C8  LIG X 999      43.726 129.242  22.799  1.00  0.00    -0.025 A 
HETATM   15  C9  LIG X 999      44.481 130.006  21.895  1.00  0.00     0.012 A 
HETATM   16  C13 LIG X 999      44.071 127.883  23.058  1.00  0.00    -0.015 A 
HETATM   17  C10 LIG X 999      45.582 129.449  21.251  1.00  0.00     0.001 A 
HETATM   18  C11 LIG X 999      45.946 128.130  21.506  1.00  0.00     0.001 A 
HETATM   19  C12 LIG X 999      45.206 127.351  22.399  1.00  0.00     0.013 A 
ENDBRANCH   3  10
BRANCH   1  20
HETATM   20  C1  LIG X 999      46.525 124.389  23.104  1.00  0.00     0.164 C 
HETATM   21  N3  LIG X 999      46.720 123.867  21.936  1.00  0.00    -0.143 NA
BRANCH  21  22
HETATM   22  N2  LIG X 999      47.956 123.993  21.294  1.00  0.00    -0.052 NA
HETATM   23  N1  LIG X 999      48.136 123.462  20.155  1.00  0.00    -0.184 NA
HETATM   24  H1  LIG X 999      49.058 123.555  19.676  1.00  0.00     0.214 HD
ENDBRANCH  21  22
ENDBRANCH   1  20
TORSDOF 3
