REMARK VINA RESULT:      -8.4      0.000      0.000
REMARK  1 active torsions:
REMARK  status: ('A' for Active; 'I' for Inactive)
REMARK    1  A    between atoms: C2_5  and  C3_6 
ROOT
HETATM    1  C3  LIG X 999      44.366 131.432  17.367  1.00  0.00     0.030 A 
HETATM    2  C4  LIG X 999      43.103 131.855  16.904  1.00  0.00     0.017 A 
HETATM    3  C5  LIG X 999      42.077 132.180  17.786  1.00  0.00     0.002 A 
HETATM    4  C6  LIG X 999      42.276 132.094  19.155  1.00  0.00     0.012 A 
HETATM    5  C7  LIG X 999      43.511 131.678  19.665  1.00  0.00    -0.025 A 
HETATM    6  C8  LIG X 999      43.684 131.600  21.057  1.00  0.00     0.012 A 
HETATM    7  C9  LIG X 999      44.901 131.191  21.594  1.00  0.00     0.001 A 
HETATM    8  C10 LIG X 999      45.956 130.856  20.751  1.00  0.00     0.001 A 
HETATM    9  C11 LIG X 999      45.805 130.927  19.364  1.00  0.00     0.013 A 
HETATM   10  C12 LIG X 999      44.581 131.340  18.781  1.00  0.00    -0.011 A 
ENDROOT
BRANCH   1  11
HETATM   11  C2  LIG X 999      45.388 131.111  16.322  1.00  0.00     0.203 A 
HETATM   12  O1  LIG X 999      45.845 129.912  16.027  1.00  0.00    -0.255 OA
HETATM   13  C1  LIG X 999      46.711 130.105  15.063  1.00  0.00     0.262 A 
HETATM   14  N1  LIG X 999      47.388 129.165  14.490  1.00  0.00    -0.260 NA
HETATM   15  N3  LIG X 999      46.808 131.401  14.745  1.00  0.00    -0.238 N 
HETATM   16  H1  LIG X 999      47.271 128.169  14.780  1.00  0.00     0.190 HD
HETATM   17  N2  LIG X 999      45.972 132.050  15.537  1.00  0.00    -0.145 NA
HETATM   18  H9  LIG X 999      47.417 131.841  14.019  1.00  0.00     0.193 HD
ENDBRANCH   1  11
TORSDOF 1
