MODEL 1
REMARK VINA RESULT:      -8.5      0.000      0.000
REMARK  1 active torsions:
REMARK  status: ('A' for Active; 'I' for Inactive)
REMARK    1  A    between atoms: C2_5  and  C3_6 
ROOT
HETATM    1  C3  LIG X 999      44.374 131.416  17.346  1.00  0.00     0.030 A 
HETATM    2  C4  LIG X 999      43.112 131.824  16.884  1.00  0.00     0.017 A 
HETATM    3  C5  LIG X 999      42.102 132.176  17.777  1.00  0.00     0.002 A 
HETATM    4  C6  LIG X 999      42.326 132.124  19.150  1.00  0.00     0.012 A 
HETATM    5  C7  LIG X 999      43.562 131.690  19.646  1.00  0.00    -0.025 A 
HETATM    6  C8  LIG X 999      43.768 131.613  21.033  1.00  0.00     0.012 A 
HETATM    7  C9  LIG X 999      44.978 131.143  21.541  1.00  0.00     0.001 A 
HETATM    8  C10 LIG X 999      45.988 130.732  20.673  1.00  0.00     0.001 A 
HETATM    9  C11 LIG X 999      45.803 130.806  19.290  1.00  0.00     0.013 A 
HETATM   10  C12 LIG X 999      44.600 131.311  18.748  1.00  0.00    -0.011 A 
ENDROOT
BRANCH   1  11
HETATM   11  C2  LIG X 999      45.414 131.146  16.326  1.00  0.00     0.203 A 
HETATM   12  O1  LIG X 999      45.857 129.940  16.033  1.00  0.00    -0.255 OA
HETATM   13  C1  LIG X 999      46.718 130.129  15.066  1.00  0.00     0.262 A 
HETATM   14  N1  LIG X 999      47.387 129.181  14.494  1.00  0.00    -0.260 NA
HETATM   15  N3  LIG X 999      46.816 131.429  14.745  1.00  0.00    -0.238 N 
HETATM   16  H1  LIG X 999      48.063 129.384  13.726  1.00  0.00     0.190 HD
HETATM   17  N2  LIG X 999      45.985 132.084  15.536  1.00  0.00    -0.145 NA
HETATM   18  H9  LIG X 999      47.419 131.865  14.011  1.00  0.00     0.193 HD
ENDBRANCH   1  11
TORSDOF 1
ENDMDL
MODEL 2
REMARK VINA RESULT:      -8.0      1.102      2.886
REMARK  1 active torsions:
REMARK  status: ('A' for Active; 'I' for Inactive)
REMARK    1  A    between atoms: C2_5  and  C3_6 
ROOT
HETATM    1  C3  LIG X 999      45.345 130.947  18.325  1.00  0.00     0.030 A 
HETATM    2  C4  LIG X 999      46.306 130.657  19.306  1.00  0.00     0.017 A 
HETATM    3  C5  LIG X 999      46.030 130.848  20.659  1.00  0.00     0.002 A 
HETATM    4  C6  LIG X 999      44.791 131.336  21.062  1.00  0.00     0.012 A 
HETATM    5  C7  LIG X 999      43.820 131.668  20.108  1.00  0.00    -0.025 A 
HETATM    6  C8  LIG X 999      42.584 132.188  20.525  1.00  0.00     0.012 A 
HETATM    7  C9  LIG X 999      41.624 132.561  19.586  1.00  0.00     0.001 A 
HETATM    8  C10 LIG X 999      41.891 132.432  18.224  1.00  0.00     0.001 A 
HETATM    9  C11 LIG X 999      43.114 131.913  17.791  1.00  0.00     0.013 A 
HETATM   10  C12 LIG X 999      44.091 131.494  18.722  1.00  0.00    -0.011 A 
ENDROOT
BRANCH   1  11
HETATM   11  C2  LIG X 999      45.693 130.630  16.920  1.00  0.00     0.203 A 
HETATM   12  O1  LIG X 999      46.103 131.529  16.048  1.00  0.00    -0.255 OA
HETATM   13  C1  LIG X 999      46.346 130.845  14.959  1.00  0.00     0.262 A 
HETATM   14  N1  LIG X 999      46.769 131.366  13.853  1.00  0.00    -0.260 NA
HETATM   15  N3  LIG X 999      46.104 129.537  15.137  1.00  0.00    -0.238 N 
HETATM   16  H1  LIG X 999      46.949 130.777  13.011  1.00  0.00     0.190 HD
HETATM   17  N2  LIG X 999      45.694 129.389  16.385  1.00  0.00    -0.145 NA
HETATM   18  H9  LIG X 999      46.215 128.763  14.443  1.00  0.00     0.193 HD
ENDBRANCH   1  11
TORSDOF 1
ENDMDL
MODEL 3
REMARK VINA RESULT:      -6.4      4.495      5.777
REMARK  1 active torsions:
REMARK  status: ('A' for Active; 'I' for Inactive)
REMARK    1  A    between atoms: C2_5  and  C3_6 
ROOT
HETATM    1  C3  LIG X 999      43.382 131.573  21.283  1.00  0.00     0.030 A 
HETATM    2  C4  LIG X 999      42.187 132.310  21.310  1.00  0.00     0.017 A 
HETATM    3  C5  LIG X 999      41.616 132.794  20.134  1.00  0.00     0.002 A 
HETATM    4  C6  LIG X 999      42.228 132.558  18.906  1.00  0.00     0.012 A 
HETATM    5  C7  LIG X 999      43.438 131.855  18.845  1.00  0.00    -0.025 A 
HETATM    6  C8  LIG X 999      44.062 131.648  17.604  1.00  0.00     0.012 A 
HETATM    7  C9  LIG X 999      45.287 130.987  17.532  1.00  0.00     0.001 A 
HETATM    8  C10 LIG X 999      45.908 130.539  18.697  1.00  0.00     0.001 A 
HETATM    9  C11 LIG X 999      45.301 130.732  19.940  1.00  0.00     0.013 A 
HETATM   10  C12 LIG X 999      44.043 131.367  20.038  1.00  0.00    -0.011 A 
ENDROOT
BRANCH   1  11
HETATM   11  C2  LIG X 999      43.868 131.023  22.570  1.00  0.00     0.203 A 
HETATM   12  O1  LIG X 999      44.034 129.736  22.799  1.00  0.00    -0.255 OA
HETATM   13  C1  LIG X 999      44.513 129.677  24.016  1.00  0.00     0.262 A 
HETATM   14  N1  LIG X 999      44.812 128.575  24.625  1.00  0.00    -0.260 NA
HETATM   15  N3  LIG X 999      44.657 130.901  24.547  1.00  0.00    -0.238 N 
HETATM   16  H1  LIG X 999      45.192 128.581  25.597  1.00  0.00     0.190 HD
HETATM   17  N2  LIG X 999      44.255 131.766  23.631  1.00  0.00    -0.145 NA
HETATM   18  H9  LIG X 999      45.019 131.151  25.494  1.00  0.00     0.193 HD
ENDBRANCH   1  11
TORSDOF 1
ENDMDL
MODEL 4
REMARK VINA RESULT:      -6.3      7.632      8.801
REMARK  1 active torsions:
REMARK  status: ('A' for Active; 'I' for Inactive)
REMARK    1  A    between atoms: C2_5  and  C3_6 
ROOT
HETATM    1  C3  LIG X 999      49.347 136.258  21.302  1.00  0.00     0.030 A 
HETATM    2  C4  LIG X 999      48.437 135.217  21.548  1.00  0.00     0.017 A 
HETATM    3  C5  LIG X 999      48.627 134.333  22.608  1.00  0.00     0.002 A 
HETATM    4  C6  LIG X 999      49.734 134.465  23.443  1.00  0.00     0.012 A 
HETATM    5  C7  LIG X 999      50.679 135.471  23.207  1.00  0.00    -0.025 A 
HETATM    6  C8  LIG X 999      51.807 135.576  24.038  1.00  0.00     0.012 A 
HETATM    7  C9  LIG X 999      52.777 136.545  23.790  1.00  0.00     0.001 A 
HETATM    8  C10 LIG X 999      52.641 137.409  22.705  1.00  0.00     0.001 A 
HETATM    9  C11 LIG X 999      51.524 137.322  21.870  1.00  0.00     0.013 A 
HETATM   10  C12 LIG X 999      50.508 136.372  22.119  1.00  0.00    -0.011 A 
ENDROOT
BRANCH   1  11
HETATM   11  C2  LIG X 999      49.017 137.202  20.209  1.00  0.00     0.203 A 
HETATM   12  O1  LIG X 999      49.662 137.246  19.061  1.00  0.00    -0.255 OA
HETATM   13  C1  LIG X 999      49.041 138.167  18.368  1.00  0.00     0.262 A 
HETATM   14  N1  LIG X 999      49.374 138.521  17.169  1.00  0.00    -0.260 NA
HETATM   15  N3  LIG X 999      48.018 138.693  19.059  1.00  0.00    -0.238 N 
HETATM   16  H1  LIG X 999      48.846 139.261  16.658  1.00  0.00     0.190 HD
HETATM   17  N2  LIG X 999      47.990 138.081  20.230  1.00  0.00    -0.145 NA
HETATM   18  H9  LIG X 999      47.352 139.438  18.752  1.00  0.00     0.193 HD
ENDBRANCH   1  11
TORSDOF 1
ENDMDL
MODEL 5
REMARK VINA RESULT:      -6.1      2.714      5.082
REMARK  1 active torsions:
REMARK  status: ('A' for Active; 'I' for Inactive)
REMARK    1  A    between atoms: C2_5  and  C3_6 
ROOT
HETATM    1  C3  LIG X 999      44.863 131.174  17.030  1.00  0.00     0.030 A 
HETATM    2  C4  LIG X 999      43.623 131.787  16.785  1.00  0.00     0.017 A 
HETATM    3  C5  LIG X 999      43.159 131.971  15.485  1.00  0.00     0.002 A 
HETATM    4  C6  LIG X 999      43.923 131.554  14.399  1.00  0.00     0.012 A 
HETATM    5  C7  LIG X 999      45.180 130.969  14.605  1.00  0.00    -0.025 A 
HETATM    6  C8  LIG X 999      45.956 130.579  13.501  1.00  0.00     0.012 A 
HETATM    7  C9  LIG X 999      47.225 130.035  13.689  1.00  0.00     0.001 A 
HETATM    8  C10 LIG X 999      47.738 129.887  14.977  1.00  0.00     0.001 A 
HETATM    9  C11 LIG X 999      46.979 130.266  16.087  1.00  0.00     0.013 A 
HETATM   10  C12 LIG X 999      45.676 130.787  15.926  1.00  0.00    -0.011 A 
ENDROOT
BRANCH   1  11
HETATM   11  C2  LIG X 999      45.235 130.939  18.444  1.00  0.00     0.203 A 
HETATM   12  O1  LIG X 999      44.854 131.714  19.440  1.00  0.00    -0.255 OA
HETATM   13  C1  LIG X 999      45.346 131.143  20.510  1.00  0.00     0.262 A 
HETATM   14  N1  LIG X 999      45.198 131.602  21.710  1.00  0.00    -0.260 NA
HETATM   15  N3  LIG X 999      46.020 130.024  20.203  1.00  0.00    -0.238 N 
HETATM   16  H1  LIG X 999      45.610 131.109  22.532  1.00  0.00     0.190 HD
HETATM   17  N2  LIG X 999      45.950 129.882  18.891  1.00  0.00    -0.145 NA
HETATM   18  H9  LIG X 999      46.510 129.370  20.855  1.00  0.00     0.193 HD
ENDBRANCH   1  11
TORSDOF 1
ENDMDL
MODEL 6
REMARK VINA RESULT:      -5.9      9.107     10.371
REMARK  1 active torsions:
REMARK  status: ('A' for Active; 'I' for Inactive)
REMARK    1  A    between atoms: C2_5  and  C3_6 
ROOT
HETATM    1  C3  LIG X 999      51.498 136.854  22.893  1.00  0.00     0.030 A 
HETATM    2  C4  LIG X 999      52.390 137.721  23.545  1.00  0.00     0.017 A 
HETATM    3  C5  LIG X 999      52.377 139.090  23.286  1.00  0.00     0.002 A 
HETATM    4  C6  LIG X 999      51.478 139.624  22.367  1.00  0.00     0.012 A 
HETATM    5  C7  LIG X 999      50.596 138.784  21.675  1.00  0.00    -0.025 A 
HETATM    6  C8  LIG X 999      49.714 139.330  20.728  1.00  0.00     0.012 A 
HETATM    7  C9  LIG X 999      48.860 138.502  20.001  1.00  0.00     0.001 A 
HETATM    8  C10 LIG X 999      48.888 137.122  20.200  1.00  0.00     0.001 A 
HETATM    9  C11 LIG X 999      49.757 136.562  21.140  1.00  0.00     0.013 A 
HETATM   10  C12 LIG X 999      50.607 137.381  21.915  1.00  0.00    -0.011 A 
ENDROOT
BRANCH   1  11
HETATM   11  C2  LIG X 999      51.523 135.429  23.296  1.00  0.00     0.203 A 
HETATM   12  O1  LIG X 999      50.485 134.792  23.800  1.00  0.00    -0.255 OA
HETATM   13  C1  LIG X 999      50.902 133.564  23.972  1.00  0.00     0.262 A 
HETATM   14  N1  LIG X 999      50.174 132.612  24.459  1.00  0.00    -0.260 NA
HETATM   15  N3  LIG X 999      52.177 133.419  23.579  1.00  0.00    -0.238 N 
HETATM   16  H1  LIG X 999      50.553 131.647  24.577  1.00  0.00     0.190 HD
HETATM   17  N2  LIG X 999      52.579 134.599  23.140  1.00  0.00    -0.145 NA
HETATM   18  H9  LIG X 999      52.760 132.552  23.598  1.00  0.00     0.193 HD
ENDBRANCH   1  11
TORSDOF 1
ENDMDL
MODEL 7
REMARK VINA RESULT:      -5.8      7.829      9.123
REMARK  1 active torsions:
REMARK  status: ('A' for Active; 'I' for Inactive)
REMARK    1  A    between atoms: C2_5  and  C3_6 
ROOT
HETATM    1  C3  LIG X 999      50.397 137.509  21.576  1.00  0.00     0.030 A 
HETATM    2  C4  LIG X 999      51.496 138.131  22.189  1.00  0.00     0.017 A 
HETATM    3  C5  LIG X 999      52.168 137.520  23.246  1.00  0.00     0.002 A 
HETATM    4  C6  LIG X 999      51.754 136.278  23.718  1.00  0.00     0.012 A 
HETATM    5  C7  LIG X 999      50.641 135.644  23.152  1.00  0.00    -0.025 A 
HETATM    6  C8  LIG X 999      50.214 134.404  23.655  1.00  0.00     0.012 A 
HETATM    7  C9  LIG X 999      49.084 133.781  23.130  1.00  0.00     0.001 A 
HETATM    8  C10 LIG X 999      48.360 134.394  22.108  1.00  0.00     0.001 A 
HETATM    9  C11 LIG X 999      48.771 135.625  21.591  1.00  0.00     0.013 A 
HETATM   10  C12 LIG X 999      49.934 136.261  22.081  1.00  0.00    -0.011 A 
ENDROOT
BRANCH   1  11
HETATM   11  C2  LIG X 999      49.800 138.190  20.403  1.00  0.00     0.203 A 
HETATM   12  O1  LIG X 999      49.800 137.686  19.186  1.00  0.00    -0.255 OA
HETATM   13  C1  LIG X 999      49.146 138.561  18.465  1.00  0.00     0.262 A 
HETATM   14  N1  LIG X 999      48.927 138.438  17.196  1.00  0.00    -0.260 NA
HETATM   15  N3  LIG X 999      48.731 139.597  19.210  1.00  0.00    -0.238 N 
HETATM   16  H1  LIG X 999      48.398 139.165  16.666  1.00  0.00     0.190 HD
HETATM   17  N2  LIG X 999      49.137 139.368  20.447  1.00  0.00    -0.145 NA
HETATM   18  H9  LIG X 999      48.186 140.434  18.900  1.00  0.00     0.193 HD
ENDBRANCH   1  11
TORSDOF 1
ENDMDL
MODEL 8
REMARK VINA RESULT:      -5.5      3.138      5.675
REMARK  1 active torsions:
REMARK  status: ('A' for Active; 'I' for Inactive)
REMARK    1  A    between atoms: C2_5  and  C3_6 
ROOT
HETATM    1  C3  LIG X 999      44.330 131.205  17.906  1.00  0.00     0.030 A 
HETATM    2  C4  LIG X 999      45.261 130.612  18.774  1.00  0.00     0.017 A 
HETATM    3  C5  LIG X 999      46.430 130.032  18.284  1.00  0.00     0.002 A 
HETATM    4  C6  LIG X 999      46.692 130.027  16.917  1.00  0.00     0.012 A 
HETATM    5  C7  LIG X 999      45.770 130.580  16.020  1.00  0.00    -0.025 A 
HETATM    6  C8  LIG X 999      46.031 130.542  14.641  1.00  0.00     0.012 A 
HETATM    7  C9  LIG X 999      45.104 131.051  13.733  1.00  0.00     0.001 A 
HETATM    8  C10 LIG X 999      43.901 131.588  14.190  1.00  0.00     0.001 A 
HETATM    9  C11 LIG X 999      43.625 131.638  15.559  1.00  0.00     0.013 A 
HETATM   10  C12 LIG X 999      44.564 131.162  16.502  1.00  0.00    -0.011 A 
ENDROOT
BRANCH   1  11
HETATM   11  C2  LIG X 999      43.160 131.874  18.522  1.00  0.00     0.203 A 
HETATM   12  O1  LIG X 999      43.054 132.121  19.812  1.00  0.00    -0.255 OA
HETATM   13  C1  LIG X 999      41.916 132.755  19.935  1.00  0.00     0.262 A 
HETATM   14  N1  LIG X 999      41.436 133.174  21.061  1.00  0.00    -0.260 NA
HETATM   15  N3  LIG X 999      41.313 132.914  18.747  1.00  0.00    -0.238 N 
HETATM   16  H1  LIG X 999      40.522 133.676  21.106  1.00  0.00     0.190 HD
HETATM   17  N2  LIG X 999      42.100 132.363  17.840  1.00  0.00    -0.145 NA
HETATM   18  H9  LIG X 999      40.401 133.384  18.547  1.00  0.00     0.193 HD
ENDBRANCH   1  11
TORSDOF 1
ENDMDL
