REMARK VINA RESULT:      -7.9      2.148      4.071
REMARK  4 active torsions:
REMARK  status: ('A' for Active; 'I' for Inactive)
REMARK    1  A    between atoms: C3_3  and  O1_4 
REMARK    2  A    between atoms: O1_4  and  C4_5 
REMARK    3  A    between atoms: C4_5  and  O2_6 
REMARK    4  A    between atoms: C5_8  and  C6_9 
ROOT
HETATM    1  C1  LIG X 999      45.533 126.544  22.363  1.00  0.00     0.014 C 
HETATM    2  C2  LIG X 999      44.692 127.246  22.869  1.00  0.00    -0.091 C 
HETATM    3  C3  LIG X 999      43.675 128.100  23.482  1.00  0.00     0.266 C 
ENDROOT
BRANCH   3   4
HETATM    4  O1  LIG X 999      43.505 129.249  22.685  1.00  0.00    -0.319 OA
BRANCH   4   5
HETATM    5  C4  LIG X 999      44.060 130.357  23.356  1.00  0.00     0.314 A 
HETATM    6  O3  LIG X 999      43.128 131.411  23.402  1.00  0.00    -0.312 OA
HETATM    7  C5  LIG X 999      44.298 131.643  22.646  1.00  0.00     0.254 A 
BRANCH   5   8
HETATM    8  O2  LIG X 999      44.612 130.147  24.625  1.00  0.00    -0.341 OA
HETATM    9  H4  LIG X 999      45.305 129.449  24.497  1.00  0.00     0.215 HD
ENDBRANCH   5   8
BRANCH   7  10
HETATM   10  C6  LIG X 999      44.036 131.642  21.166  1.00  0.00    -0.021 A 
HETATM   11  C7  LIG X 999      42.805 132.079  20.648  1.00  0.00     0.011 A 
HETATM   12  C8  LIG X 999      42.578 132.079  19.270  1.00  0.00     0.013 A 
HETATM   13  C9  LIG X 999      43.583 131.655  18.388  1.00  0.00    -0.026 A 
HETATM   14  C10 LIG X 999      43.363 131.647  17.002  1.00  0.00     0.012 A 
HETATM   15  C14 LIG X 999      44.834 131.237  18.902  1.00  0.00    -0.025 A 
HETATM   16  C11 LIG X 999      44.376 131.228  16.134  1.00  0.00     0.001 A 
HETATM   17  C12 LIG X 999      45.611 130.815  16.641  1.00  0.00     0.001 A 
HETATM   18  C13 LIG X 999      45.842 130.820  18.020  1.00  0.00     0.012 A 
HETATM   19  C15 LIG X 999      45.054 131.245  20.288  1.00  0.00     0.022 A 
ENDBRANCH   7  10
ENDBRANCH   4   5
ENDBRANCH   3   4
TORSDOF 4
