REMARK VINA RESULT:      -7.7      1.357      6.594
REMARK  1 active torsions:
REMARK  status: ('A' for Active; 'I' for Inactive)
REMARK    1  A    between atoms: C2_2  and  N1_3 
ROOT
HETATM    1  N1  LIG X 999      43.540 131.732  23.331  1.00  0.00    -0.073 NA
HETATM    2  N2  LIG X 999      43.912 130.752  23.977  1.00  0.00    -0.162 NA
HETATM    3  N3  LIG X 999      44.282 129.773  24.625  1.00  0.00     0.068 N 
ENDROOT
BRANCH   1   4
HETATM    4  C2  LIG X 999      43.516 131.741  21.898  1.00  0.00     0.094 A 
HETATM    5  C1  LIG X 999      42.396 132.273  21.247  1.00  0.00     0.035 A 
HETATM    6  C10 LIG X 999      42.328 132.303  19.851  1.00  0.00     0.014 A 
HETATM    7  C9  LIG X 999      43.385 131.800  19.083  1.00  0.00    -0.025 A 
HETATM    8  C4  LIG X 999      44.530 131.257  19.734  1.00  0.00    -0.023 A 
HETATM    9  C8  LIG X 999      43.325 131.823  17.675  1.00  0.00     0.021 A 
HETATM   10  C3  LIG X 999      44.584 131.232  21.135  1.00  0.00     0.046 A 
HETATM   11  C5  LIG X 999      45.594 130.747  18.965  1.00  0.00     0.021 A 
HETATM   12  C6  LIG X 999      45.499 130.796  17.574  1.00  0.00    -0.024 A 
HETATM   13  C7  LIG X 999      44.404 131.315  16.952  1.00  0.00    -0.024 A 
HETATM   14  C14 LIG X 999      46.475 130.303  16.579  1.00  0.00     0.276 C 
HETATM   15  C11 LIG X 999      44.546 131.218  15.483  1.00  0.00     0.276 C 
HETATM   16  N4  LIG X 999      45.939 130.721  15.245  1.00  0.00    -0.067 N 
HETATM   17  C12 LIG X 999      45.931 129.579  14.303  1.00  0.00     0.272 C 
HETATM   18  C13 LIG X 999      46.775 131.807  14.680  1.00  0.00     0.272 C 
ENDBRANCH   1   4
TORSDOF 1
