REMARK VINA RESULT:      -6.5      3.430      6.357
REMARK  3 active torsions:
REMARK  status: ('A' for Active; 'I' for Inactive)
REMARK    1  A    between atoms: C3_3  and  S1_4 
REMARK    2  A    between atoms: S1_4  and  C4_7 
REMARK    3  A    between atoms: C13_16  and  N1_17 
ROOT
HETATM    1  C1  LIG X 999      42.829 131.425  23.731  1.00  0.00     0.013 C 
HETATM    2  C2  LIG X 999      43.317 131.022  22.705  1.00  0.00    -0.102 C 
HETATM    3  C3  LIG X 999      43.907 130.535  21.455  1.00  0.00     0.238 C 
ENDROOT
BRANCH   3   4
HETATM    4  S1  LIG X 999      44.172 131.893  20.333  1.00  0.00     0.185 S 
HETATM    5  O1  LIG X 999      42.882 132.636  20.125  1.00  0.00    -0.222 OA
HETATM    6  O2  LIG X 999      45.179 132.840  20.924  1.00  0.00    -0.222 OA
BRANCH   4   7
HETATM    7  C4  LIG X 999      44.773 131.286  18.792  1.00  0.00     0.060 A 
HETATM    8  C5  LIG X 999      45.797 130.335  18.760  1.00  0.00     0.024 A 
HETATM    9  C6  LIG X 999      46.292 129.876  17.539  1.00  0.00     0.011 A 
HETATM   10  C7  LIG X 999      45.787 130.376  16.324  1.00  0.00    -0.019 A 
HETATM   11  C8  LIG X 999      44.721 131.309  16.357  1.00  0.00    -0.048 A 
HETATM   12  C13 LIG X 999      46.306 129.807  15.012  1.00  0.00     0.251 C 
HETATM   13  C9  LIG X 999      44.245 131.776  17.593  1.00  0.00     0.031 A 
HETATM   14  C10 LIG X 999      44.137 131.890  15.092  1.00  0.00     0.039 C 
HETATM   15  C11 LIG X 999      44.391 131.000  13.875  1.00  0.00     0.007 C 
HETATM   16  C12 LIG X 999      45.873 130.642  13.789  1.00  0.00     0.040 C 
BRANCH  12  17
HETATM   17  N1  LIG X 999      47.765 129.681  15.049  1.00  0.00     0.087 N 
HETATM   18  H14 LIG X 999      48.026 128.668  15.085  1.00  0.00     0.313 HD
HETATM   19  H15 LIG X 999      48.121 130.130  15.925  1.00  0.00     0.313 HD
ENDBRANCH  12  17
ENDBRANCH   4   7
ENDBRANCH   3   4
TORSDOF 3
