REMARK VINA RESULT:      -3.4      3.543      6.566
REMARK  4 active torsions:
REMARK  status: ('A' for Active; 'I' for Inactive)
REMARK    1  A    between atoms: C5_5  and  C6_6 
REMARK    2  A    between atoms: C7_7  and  C8_8 
REMARK    3  A    between atoms: C11_13  and  C12_14 
REMARK    4  A    between atoms: C13_18  and  N3_19 
ROOT
HETATM    1  N3  LIG X 999      44.679 126.399  22.674  1.00  0.00    -0.025 NA
HETATM    2  N4  LIG X 999      44.001 125.372  22.691  1.00  0.00    -0.158 NA
HETATM    3  N5  LIG X 999      43.322 124.345  22.707  1.00  0.00     0.068 N 
ENDROOT
BRANCH   1   4
HETATM    4  C13 LIG X 999      44.068 127.677  22.834  1.00  0.00     0.301 A 
HETATM    5  N2  LIG X 999      42.776 127.858  23.141  1.00  0.00    -0.236 N 
HETATM    6  N1  LIG X 999      42.570 129.163  23.203  1.00  0.00    -0.149 NA
HETATM    7  H11 LIG X 999      42.050 127.125  23.301  1.00  0.00     0.193 HD
HETATM    8  C12 LIG X 999      43.766 129.736  22.935  1.00  0.00     0.182 A 
HETATM    9  O3  LIG X 999      44.687 128.824  22.699  1.00  0.00    -0.257 OA
BRANCH   8  10
HETATM   10  C11 LIG X 999      43.997 131.233  22.860  1.00  0.00     0.054 C 
HETATM   11  C3  LIG X 999      45.414 131.541  22.262  1.00  0.00     0.030 C 
HETATM   12  C2  LIG X 999      45.831 132.970  22.540  1.00  0.00    -0.021 C 
HETATM   13  C4  LIG X 999      45.492 131.213  20.756  1.00  0.00     0.027 C 
HETATM   14  C1  LIG X 999      45.476 133.565  23.681  1.00  0.00    -0.004 C 
HETATM   15  C15 LIG X 999      44.564 132.896  24.625  1.00  0.00    -0.003 C 
HETATM   16  C14 LIG X 999      43.907 131.784  24.271  1.00  0.00    -0.008 C 
HETATM   17  C5  LIG X 999      44.385 131.921  19.957  1.00  0.00     0.066 C 
HETATM   18  C9  LIG X 999      43.000 131.558  20.512  1.00  0.00     0.019 C 
HETATM   19  C10 LIG X 999      42.895 131.916  22.002  1.00  0.00     0.024 C 
BRANCH  17  20
HETATM   20  C6  LIG X 999      44.470 131.544  18.538  1.00  0.00    -0.090 C 
HETATM   21  C7  LIG X 999      44.539 131.234  17.375  1.00  0.00     0.005 C 
BRANCH  21  22
HETATM   22  C8  LIG X 999      44.619 130.866  15.991  1.00  0.00     0.258 C 
HETATM   23  O1  LIG X 999      44.444 131.734  15.097  1.00  0.00    -0.637 OA
HETATM   24  O2  LIG X 999      44.887 129.550  15.638  1.00  0.00    -0.637 OA
ENDBRANCH  21  22
ENDBRANCH  17  20
ENDBRANCH   8  10
ENDBRANCH   1   4
TORSDOF 4
