REMARK VINA RESULT:      -6.7      1.357      2.033
REMARK  2 active torsions:
REMARK  status: ('A' for Active; 'I' for Inactive)
REMARK    1  A    between atoms: C1_1  and  N1_2 
REMARK    2  A    between atoms: C2_5  and  C3_7 
ROOT
HETATM    1  N1  LIG X 999      45.876 131.617  15.653  1.00  0.00    -0.082 NA
HETATM    2  N2  LIG X 999      46.612 130.740  15.200  1.00  0.00    -0.163 NA
HETATM    3  N3  LIG X 999      47.347 129.864  14.747  1.00  0.00     0.068 N 
ENDROOT
BRANCH   1   4
HETATM    4  C1  LIG X 999      45.509 131.615  17.032  1.00  0.00     0.196 C 
HETATM    5  C2  LIG X 999      44.220 131.685  17.386  1.00  0.00     0.137 C 
HETATM    6  O1  LIG X 999      43.248 131.730  16.390  1.00  0.00    -0.190 OA
BRANCH   5   7
HETATM    7  C3  LIG X 999      43.787 131.691  18.808  1.00  0.00     0.003 A 
HETATM    8  C4  LIG X 999      42.654 132.436  19.176  1.00  0.00     0.015 A 
HETATM    9  C5  LIG X 999      42.223 132.474  20.505  1.00  0.00     0.013 A 
HETATM   10  C6  LIG X 999      42.924 131.771  21.494  1.00  0.00    -0.026 A 
HETATM   11  C7  LIG X 999      42.499 131.803  22.832  1.00  0.00     0.012 A 
HETATM   12  C11 LIG X 999      44.075 131.029  21.142  1.00  0.00    -0.025 A 
HETATM   13  C8  LIG X 999      43.212 131.104  23.811  1.00  0.00     0.001 A 
HETATM   14  C9  LIG X 999      44.350 130.373  23.463  1.00  0.00     0.001 A 
HETATM   15  C10 LIG X 999      44.783 130.334  22.135  1.00  0.00     0.012 A 
HETATM   16  C12 LIG X 999      44.502 130.996  19.805  1.00  0.00     0.026 A 
ENDBRANCH   5   7
ENDBRANCH   1   4
TORSDOF 2
