REMARK VINA RESULT:      -5.3      3.785      6.505
REMARK  5 active torsions:
REMARK  status: ('A' for Active; 'I' for Inactive)
REMARK    1  A    between atoms: C1_1  and  N1_2 
REMARK    2  A    between atoms: C2_5  and  O1_6 
REMARK    3  A    between atoms: C2_5  and  C5_12 
REMARK    4  A    between atoms: O1_6  and  C3_7 
REMARK    5  A    between atoms: C3_7  and  C4_9 
ROOT
HETATM    1  N1  LIG X 999      45.742 131.392  19.345  1.00  0.00    -0.082 NA
HETATM    2  N2  LIG X 999      45.285 131.371  18.203  1.00  0.00    -0.163 NA
HETATM    3  N3  LIG X 999      44.828 131.350  17.061  1.00  0.00     0.068 N 
ENDROOT
BRANCH   1   4
HETATM    4  C1  LIG X 999      45.677 130.232  20.174  1.00  0.00     0.193 C 
HETATM    5  C2  LIG X 999      44.988 130.257  21.320  1.00  0.00     0.101 C 
BRANCH   5   6
HETATM    6  O1  LIG X 999      44.300 131.428  21.674  1.00  0.00    -0.324 OA
BRANCH   6   7
HETATM    7  C3  LIG X 999      42.876 131.589  21.636  1.00  0.00     0.273 C 
HETATM    8 CL1  LIG X 999      42.181 132.023  23.227  1.00  0.00    -0.090 Cl
BRANCH   7   9
HETATM    9  C4  LIG X 999      42.431 132.567  20.537  1.00  0.00     0.309 C 
HETATM   10  F1  LIG X 999      41.326 133.279  20.963  1.00  0.00    -0.229 F 
HETATM   11 CL2  LIG X 999      42.043 131.751  18.995  1.00  0.00    -0.086 Cl
ENDBRANCH   7   9
ENDBRANCH   6   7
ENDBRANCH   5   6
BRANCH   5  12
HETATM   12  C5  LIG X 999      44.897 129.045  22.166  1.00  0.00    -0.000 A 
HETATM   13  C6  LIG X 999      44.191 129.097  23.378  1.00  0.00     0.015 A 
HETATM   14  C7  LIG X 999      44.093 127.966  24.193  1.00  0.00     0.013 A 
HETATM   15  C8  LIG X 999      44.698 126.763  23.805  1.00  0.00    -0.026 A 
HETATM   16  C9  LIG X 999      44.608 125.621  24.617  1.00  0.00     0.012 A 
HETATM   17  C13 LIG X 999      45.409 126.698  22.582  1.00  0.00    -0.025 A 
HETATM   18  C10 LIG X 999      45.217 124.428  24.220  1.00  0.00     0.001 A 
HETATM   19  C11 LIG X 999      45.919 124.364  23.012  1.00  0.00     0.001 A 
HETATM   20  C12 LIG X 999      46.016 125.493  22.194  1.00  0.00     0.012 A 
HETATM   21  C14 LIG X 999      45.501 127.839  21.769  1.00  0.00     0.026 A 
ENDBRANCH   5  12
ENDBRANCH   1   4
TORSDOF 5
