REMARK VINA RESULT:      -9.3      0.739      1.796
REMARK  2 active torsions:
REMARK  status: ('A' for Active; 'I' for Inactive)
REMARK    1  A    between atoms: C6_6  and  C7_7 
REMARK    2  A    between atoms: C8_11  and  N3_12 
ROOT
HETATM    1  N3  LIG X 999      47.200 131.431  13.851  1.00  0.00    -0.025 NA
HETATM    2  N4  LIG X 999      47.835 130.399  13.633  1.00  0.00    -0.158 NA
HETATM    3  N5  LIG X 999      48.470 129.369  13.414  1.00  0.00     0.068 N 
ENDROOT
BRANCH   1   4
HETATM    4  C8  LIG X 999      45.988 131.409  14.607  1.00  0.00     0.302 A 
HETATM    5  N2  LIG X 999      44.762 131.223  14.090  1.00  0.00    -0.236 N 
HETATM    6  N1  LIG X 999      43.906 131.267  15.097  1.00  0.00    -0.145 NA
HETATM    7  H5  LIG X 999      44.504 131.069  13.091  1.00  0.00     0.193 HD
HETATM    8  C7  LIG X 999      44.653 131.482  16.203  1.00  0.00     0.202 A 
HETATM    9  O1  LIG X 999      45.934 131.570  15.906  1.00  0.00    -0.253 OA
BRANCH   8  10
HETATM   10  C6  LIG X 999      44.106 131.604  17.568  1.00  0.00     0.020 A 
HETATM   11  C5  LIG X 999      44.908 131.320  18.687  1.00  0.00     0.028 A 
HETATM   12  C4  LIG X 999      44.384 131.437  19.984  1.00  0.00    -0.025 A 
HETATM   13  C3  LIG X 999      45.180 131.155  21.105  1.00  0.00     0.012 A 
HETATM   14  C11 LIG X 999      43.040 131.843  20.165  1.00  0.00    -0.026 A 
HETATM   15  C2  LIG X 999      44.647 131.275  22.392  1.00  0.00     0.001 A 
HETATM   16  C1  LIG X 999      43.321 131.676  22.570  1.00  0.00     0.001 A 
HETATM   17  C12 LIG X 999      42.518 131.960  21.463  1.00  0.00     0.012 A 
HETATM   18  C10 LIG X 999      42.244 132.125  19.046  1.00  0.00     0.013 A 
HETATM   19  C9  LIG X 999      42.774 132.006  17.758  1.00  0.00     0.017 A 
ENDBRANCH   8  10
ENDBRANCH   1   4
TORSDOF 2
