REMARK VINA RESULT:      -7.7      0.943      1.386
REMARK  4 active torsions:
REMARK  status: ('A' for Active; 'I' for Inactive)
REMARK    1  A    between atoms: C3_4  and  O1_5 
REMARK    2  A    between atoms: C3_4  and  O2_6 
REMARK    3  A    between atoms: O2_6  and  C4_7 
REMARK    4  A    between atoms: C13_16  and  N2_17 
ROOT
HETATM    1  C4  LIG X 999      44.776 131.051  17.981  1.00  0.00     0.106 A 
HETATM    2  C5  LIG X 999      45.852 130.537  18.722  1.00  0.00     0.040 A 
HETATM    3  C6  LIG X 999      45.845 130.588  20.112  1.00  0.00     0.015 A 
HETATM    4  C7  LIG X 999      44.750 131.126  20.795  1.00  0.00    -0.024 A 
HETATM    5  C8  LIG X 999      44.751 131.157  22.199  1.00  0.00     0.012 A 
HETATM    6  C9  LIG X 999      43.653 131.662  22.892  1.00  0.00     0.001 A 
HETATM    7  C10 LIG X 999      42.541 132.131  22.195  1.00  0.00     0.001 A 
HETATM    8  C11 LIG X 999      42.522 132.108  20.798  1.00  0.00     0.014 A 
HETATM    9  C12 LIG X 999      43.632 131.622  20.070  1.00  0.00     0.003 A 
HETATM   10  C13 LIG X 999      43.657 131.591  18.647  1.00  0.00     0.071 A 
ENDROOT
BRANCH   1  11
HETATM   11  O2  LIG X 999      44.780 131.003  16.579  1.00  0.00    -0.272 OA
BRANCH  11  12
HETATM   12  C3  LIG X 999      45.525 130.103  15.802  1.00  0.00     0.265 C 
HETATM   13  N1  LIG X 999      46.425 130.564  14.963  1.00  0.00    -0.350 N 
HETATM   14  C1  LIG X 999      47.241 129.660  14.142  1.00  0.00     0.153 C 
HETATM   15  C2  LIG X 999      46.619 132.017  14.840  1.00  0.00     0.153 C 
BRANCH  12  16
HETATM   16  O1  LIG X 999      45.314 128.728  15.972  1.00  0.00    -0.327 OA
HETATM   17  H7  LIG X 999      44.601 128.198  15.488  1.00  0.00     0.221 HD
ENDBRANCH  12  16
ENDBRANCH  11  12
ENDBRANCH   1  11
BRANCH  10  18
HETATM   18  N2  LIG X 999      42.578 132.125  17.859  1.00  0.00    -0.396 N 
HETATM   19  H14 LIG X 999      41.721 131.578  17.630  1.00  0.00     0.156 HD
HETATM   20  H15 LIG X 999      42.562 133.131  17.581  1.00  0.00     0.156 HD
ENDBRANCH  10  18
TORSDOF 4
