REMARK VINA RESULT:      -4.5      2.580      5.815
REMARK  4 active torsions:
REMARK  status: ('A' for Active; 'I' for Inactive)
REMARK    1  A    between atoms: O1_2  and  C1_3 
REMARK    2  A    between atoms: C1_3  and  O4_18 
REMARK       I    between atoms: N1_4  and  C2_5 
REMARK    3  A    between atoms: C2_5  and  C3_7 
REMARK    4  A    between atoms: O4_18  and  C13_19 
ROOT
HETATM    1  C3  LIG X 999      43.858 128.979  23.436  1.00  0.00     0.071 A 
HETATM    2  C4  LIG X 999      42.677 128.280  23.758  1.00  0.00     0.123 A 
HETATM    3  O3  LIG X 999      41.537 128.961  24.173  1.00  0.00    -0.191 OA
HETATM    4  C5  LIG X 999      42.643 126.884  23.684  1.00  0.00     0.053 A 
HETATM    5  C6  LIG X 999      43.786 126.165  23.309  1.00  0.00    -0.023 A 
HETATM    6  C7  LIG X 999      43.759 124.763  23.235  1.00  0.00     0.012 A 
HETATM    7  C8  LIG X 999      44.907 124.057  22.864  1.00  0.00     0.001 A 
HETATM    8  C9  LIG X 999      46.088 124.742  22.567  1.00  0.00     0.001 A 
HETATM    9  C10 LIG X 999      46.128 126.137  22.638  1.00  0.00     0.012 A 
HETATM   10  C11 LIG X 999      44.982 126.858  23.009  1.00  0.00    -0.025 A 
HETATM   11  C12 LIG X 999      45.011 128.259  23.080  1.00  0.00     0.032 A 
ENDROOT
BRANCH   1  12
HETATM   12  C2  LIG X 999      43.918 130.458  23.503  1.00  0.00     0.283 C 
HETATM   13  N1  LIG X 999      43.780 131.287  22.339  1.00  0.00    -0.162 NA
HETATM   14  C1  LIG X 999      44.220 131.003  21.148  1.00  0.00     0.289 C 
HETATM   15  O2  LIG X 999      44.059 131.014  24.625  1.00  0.00    -0.265 OA
BRANCH  14  16
HETATM   16  O1  LIG X 999      44.963 129.847  20.922  1.00  0.00    -0.325 OA
HETATM   17  H1  LIG X 999      44.651 128.955  21.282  1.00  0.00     0.221 HD
ENDBRANCH  14  16
BRANCH  14  18
HETATM   18  O4  LIG X 999      43.983 131.870  20.070  1.00  0.00    -0.294 OA
BRANCH  18  19
HETATM   19  C13 LIG X 999      42.911 131.751  19.129  1.00  0.00     0.224 C 
HETATM   20 CL1  LIG X 999      43.516 131.773  17.447  1.00  0.00    -0.095 Cl
HETATM   21  C14 LIG X 999      41.855 132.834  19.347  1.00  0.00     0.057 C 
ENDBRANCH  18  19
ENDBRANCH  14  18
ENDBRANCH   1  12
TORSDOF 4
