REMARK VINA RESULT:      -5.0      2.940      5.009
REMARK  4 active torsions:
REMARK  status: ('A' for Active; 'I' for Inactive)
REMARK    1  A    between atoms: C3_3  and  O1_4 
REMARK    2  A    between atoms: O1_4  and  C4_5 
REMARK    3  A    between atoms: C9_12  and  N2_13 
REMARK    4  A    between atoms: C11_17  and  C12_18 
ROOT
HETATM    1  C1  LIG X 999      48.671 123.139  20.733  1.00  0.00     0.014 C 
HETATM    2  C2  LIG X 999      48.009 123.960  21.316  1.00  0.00    -0.091 C 
HETATM    3  C3  LIG X 999      47.205 124.957  22.022  1.00  0.00     0.268 C 
ENDROOT
BRANCH   3   4
HETATM    4  O1  LIG X 999      46.073 124.318  22.604  1.00  0.00    -0.339 OA
BRANCH   4   5
HETATM    5  C4  LIG X 999      44.833 124.938  22.831  1.00  0.00     0.085 A 
HETATM    6  C5  LIG X 999      44.751 126.322  23.179  1.00  0.00     0.052 A 
HETATM    7  C6  LIG X 999      43.499 126.924  23.392  1.00  0.00     0.008 A 
HETATM    8  C7  LIG X 999      42.388 126.128  23.253  1.00  0.00     0.018 A 
HETATM    9  C15 LIG X 999      43.253 128.336  23.794  1.00  0.00     0.059 A 
HETATM   10  C8  LIG X 999      41.112 126.524  23.483  1.00  0.00     0.046 A 
HETATM   11  C10 LIG X 999      42.410 124.805  22.939  1.00  0.00     0.042 A 
HETATM   12  N1  LIG X 999      40.276 125.478  23.338  1.00  0.00    -0.337 N 
HETATM   13  C13 LIG X 999      40.809 127.906  23.895  1.00  0.00     0.033 A 
HETATM   14  H5  LIG X 999      39.243 125.480  23.487  1.00  0.00     0.167 HD
HETATM   15  C9  LIG X 999      41.066 124.416  23.009  1.00  0.00     0.176 A 
HETATM   16  C14 LIG X 999      41.837 128.773  24.038  1.00  0.00     0.034 A 
HETATM   17  C11 LIG X 999      43.643 124.158  22.699  1.00  0.00     0.050 A 
HETATM   18  N5  LIG X 999      44.238 129.164  23.935  1.00  0.00    -0.300 NA
HETATM   19  H9  LIG X 999      44.087 130.157  24.219  1.00  0.00     0.187 HD
BRANCH  15  20
HETATM   20  N2  LIG X 999      40.573 123.084  22.856  1.00  0.00    -0.053 NA
HETATM   21  N3  LIG X 999      39.508 122.733  23.364  1.00  0.00    -0.160 NA
HETATM   22  N4  LIG X 999      38.444 122.382  23.870  1.00  0.00     0.068 N 
ENDBRANCH  15  20
BRANCH  17  23
HETATM   23  C12 LIG X 999      43.747 122.736  22.308  1.00  0.00     0.273 C 
HETATM   24  O2  LIG X 999      43.939 122.391  21.114  1.00  0.00    -0.301 OA
ENDBRANCH  17  23
ENDBRANCH   4   5
ENDBRANCH   3   4
TORSDOF 4
