REMARK VINA RESULT:      -7.5      1.375      2.849
REMARK  1 active torsions:
REMARK  status: ('A' for Active; 'I' for Inactive)
REMARK    1  A    between atoms: C2_2  and  N1_3 
ROOT
HETATM    1  N1  LIG X 999      44.607 131.685  15.271  1.00  0.00    -0.073 NA
HETATM    2  N2  LIG X 999      45.372 131.340  14.369  1.00  0.00    -0.162 NA
HETATM    3  N3  LIG X 999      46.134 130.996  13.467  1.00  0.00     0.068 N 
ENDROOT
BRANCH   1   4
HETATM    4  C2  LIG X 999      44.832 131.336  16.643  1.00  0.00     0.094 A 
HETATM    5  C1  LIG X 999      45.948 130.574  17.040  1.00  0.00     0.035 A 
HETATM    6  C10 LIG X 999      46.144 130.247  18.385  1.00  0.00     0.014 A 
HETATM    7  C9  LIG X 999      45.228 130.677  19.354  1.00  0.00    -0.025 A 
HETATM    8  C4  LIG X 999      44.098 131.449  18.962  1.00  0.00    -0.023 A 
HETATM    9  C8  LIG X 999      45.416 130.352  20.713  1.00  0.00     0.021 A 
HETATM   10  C3  LIG X 999      43.914 131.768  17.608  1.00  0.00     0.046 A 
HETATM   11  C5  LIG X 999      43.174 131.881  19.932  1.00  0.00     0.021 A 
HETATM   12  C6  LIG X 999      43.400 131.543  21.267  1.00  0.00    -0.024 A 
HETATM   13  C7  LIG X 999      44.481 130.805  21.643  1.00  0.00    -0.024 A 
HETATM   14  C14 LIG X 999      42.558 131.867  22.440  1.00  0.00     0.276 C 
HETATM   15  C11 LIG X 999      44.464 130.566  23.103  1.00  0.00     0.276 C 
HETATM   16  N4  LIG X 999      43.325 131.382  23.632  1.00  0.00    -0.067 N 
HETATM   17  C12 LIG X 999      43.843 132.536  24.405  1.00  0.00     0.272 C 
HETATM   18  C13 LIG X 999      42.460 130.562  24.512  1.00  0.00     0.272 C 
ENDBRANCH   1   4
TORSDOF 1
