REMARK VINA RESULT:      -4.7      7.257      8.825
REMARK  1 active torsions:
REMARK  status: ('A' for Active; 'I' for Inactive)
REMARK    1  A    between atoms: C13_15  and  N2_16 
ROOT
HETATM    1  N1  LIG X 999      42.885 130.456  23.690  1.00  0.00    -0.191 NA
HETATM    2  C1  LIG X 999      42.747 129.308  23.713  1.00  0.00     0.109 C 
HETATM    3  C2  LIG X 999      42.575 127.880  23.740  1.00  0.00     0.113 A 
HETATM    4  S1  LIG X 999      43.814 126.783  23.448  1.00  0.00    -0.076 SA
HETATM    5  C3  LIG X 999      42.827 125.428  23.519  1.00  0.00     0.019 A 
HETATM    6  C4  LIG X 999      43.216 124.113  23.296  1.00  0.00     0.021 A 
HETATM    7  C5  LIG X 999      42.249 123.108  23.365  1.00  0.00     0.013 A 
HETATM    8  C6  LIG X 999      40.920 123.418  23.717  1.00  0.00    -0.025 A 
HETATM    9  C7  LIG X 999      39.979 122.384  23.843  1.00  0.00     0.012 A 
HETATM   10  C8  LIG X 999      38.683 122.661  24.276  1.00  0.00     0.001 A 
HETATM   11  C9  LIG X 999      38.322 123.963  24.616  1.00  0.00     0.001 A 
HETATM   12  C10 LIG X 999      39.242 125.008  24.488  1.00  0.00     0.013 A 
HETATM   13  C11 LIG X 999      40.536 124.768  23.982  1.00  0.00    -0.012 A 
HETATM   14  C12 LIG X 999      41.508 125.789  23.800  1.00  0.00     0.020 A 
HETATM   15  C13 LIG X 999      41.360 127.201  23.869  1.00  0.00     0.066 A 
ENDROOT
BRANCH  15  16
HETATM   16  N2  LIG X 999      40.109 127.897  23.851  1.00  0.00    -0.397 N 
HETATM   17  H7  LIG X 999      39.917 128.619  23.124  1.00  0.00     0.156 HD
HETATM   18  H8  LIG X 999      39.291 127.525  24.384  1.00  0.00     0.156 HD
ENDBRANCH  15  16
TORSDOF 1
