REMARK VINA RESULT:      -7.5      1.623      2.854
REMARK  3 active torsions:
REMARK  status: ('A' for Active; 'I' for Inactive)
REMARK    1  A    between atoms: N1_1  and  C1_2 
REMARK    2  A    between atoms: C1_2  and  C2_3 
REMARK    3  A    between atoms: C2_3  and  C3_5 
ROOT
HETATM    1  C3  LIG X 999      44.667 131.214  16.649  1.00  0.00     0.012 A 
HETATM    2  C4  LIG X 999      45.758 130.674  17.355  1.00  0.00     0.016 A 
HETATM    3  C5  LIG X 999      45.763 130.646  18.752  1.00  0.00     0.013 A 
HETATM    4  C6  LIG X 999      44.678 131.159  19.473  1.00  0.00    -0.026 A 
HETATM    5  C7  LIG X 999      44.676 131.135  20.877  1.00  0.00     0.012 A 
HETATM    6  C8  LIG X 999      43.588 131.653  21.585  1.00  0.00     0.001 A 
HETATM    7  C9  LIG X 999      42.499 132.198  20.901  1.00  0.00     0.001 A 
HETATM    8  C10 LIG X 999      42.489 132.229  19.503  1.00  0.00     0.012 A 
HETATM    9  C11 LIG X 999      43.576 131.710  18.779  1.00  0.00    -0.025 A 
HETATM   10  C12 LIG X 999      43.577 131.735  17.376  1.00  0.00     0.027 A 
ENDROOT
BRANCH   1  11
HETATM   11  C2  LIG X 999      44.685 131.235  15.161  1.00  0.00     0.187 C 
HETATM   12  O1  LIG X 999      43.709 131.736  14.539  1.00  0.00    -0.290 OA
BRANCH  11  13
HETATM   13  C1  LIG X 999      45.825 130.636  14.377  1.00  0.00     0.350 C 
BRANCH  13  14
HETATM   14  N1  LIG X 999      46.858 131.632  14.103  1.00  0.00     0.085 N 
HETATM   15  H1  LIG X 999      46.701 132.440  14.749  1.00  0.00     0.313 HD
HETATM   16  H2  LIG X 999      46.712 131.997  13.132  1.00  0.00     0.313 HD
ENDBRANCH  13  14
ENDBRANCH  11  13
ENDBRANCH   1  11
TORSDOF 3
