REMARK VINA RESULT:      -7.1      2.773      7.140
REMARK  7 active torsions:
REMARK  status: ('A' for Active; 'I' for Inactive)
REMARK    1  A    between atoms: N1_2  and  C2_3 
REMARK    2  A    between atoms: C2_3  and  C4_5 
REMARK    3  A    between atoms: C4_5  and  C5_6 
REMARK    4  A    between atoms: C5_6  and  C6_7 
REMARK    5  A    between atoms: C6_7  and  C7_8 
REMARK    6  A    between atoms: C7_8  and  N2_9 
REMARK    7  A    between atoms: N2_9  and  C8_10 
ROOT
HETATM    1  C8  LIG X 999      43.424 131.698  22.229  1.00  0.00     0.101 C 
HETATM    2  C9  LIG X 999      44.628 131.089  21.861  1.00  0.00     0.056 C 
HETATM    3  C10 LIG X 999      44.939 130.883  20.510  1.00  0.00    -0.045 C 
HETATM    4  C11 LIG X 999      46.100 129.960  20.229  1.00  0.00     0.049 C 
HETATM    5  C12 LIG X 999      44.079 131.423  19.503  1.00  0.00     0.008 C 
HETATM    6  C13 LIG X 999      42.807 131.896  19.934  1.00  0.00     0.045 C 
HETATM    7  C14 LIG X 999      41.813 132.208  18.998  1.00  0.00     0.031 C 
HETATM    8  C15 LIG X 999      42.055 132.083  17.637  1.00  0.00     0.014 C 
HETATM    9  C16 LIG X 999      43.332 131.752  17.177  1.00  0.00    -0.025 C 
HETATM   10  C17 LIG X 999      43.581 131.743  15.794  1.00  0.00     0.012 C 
HETATM   11  C18 LIG X 999      44.873 131.549  15.314  1.00  0.00     0.001 C 
HETATM   12  C19 LIG X 999      45.931 131.405  16.207  1.00  0.00     0.001 C 
HETATM   13  C20 LIG X 999      45.695 131.397  17.584  1.00  0.00     0.013 C 
HETATM   14  C21 LIG X 999      44.381 131.483  18.102  1.00  0.00    -0.013 C 
HETATM   15  N3  LIG X 999      42.529 132.034  21.263  1.00  0.00    -0.342 N 
HETATM   16  H28 LIG X 999      41.604 132.422  21.556  1.00  0.00     0.167 HD
ENDROOT
BRANCH   1  17
HETATM   17  N2  LIG X 999      43.077 131.912  23.612  1.00  0.00    -0.376 N 
HETATM   18  H17 LIG X 999      43.393 132.798  24.068  1.00  0.00     0.161 HD
BRANCH  17  19
HETATM   19  C7  LIG X 999      42.367 130.947  24.456  1.00  0.00     0.121 C 
BRANCH  19  20
HETATM   20  C6  LIG X 999      42.319 129.557  23.807  1.00  0.00     0.020 C 
BRANCH  20  21
HETATM   21  C5  LIG X 999      43.138 128.526  24.596  1.00  0.00     0.004 C 
BRANCH  21  22
HETATM   22  C4  LIG X 999      44.610 128.541  24.156  1.00  0.00     0.035 C 
BRANCH  22  23
HETATM   23  C2  LIG X 999      45.129 127.127  23.842  1.00  0.00     0.216 C 
HETATM   24  C3  LIG X 999      45.378 126.985  22.329  1.00  0.00     0.042 C 
BRANCH  23  25
HETATM   25  N1  LIG X 999      46.357 126.872  24.619  1.00  0.00     0.083 N 
HETATM   26  C1  LIG X 999      47.116 125.732  24.099  1.00  0.00     0.307 C 
HETATM   27  H4  LIG X 999      46.975 127.718  24.613  1.00  0.00     0.315 HD
ENDBRANCH  23  25
ENDBRANCH  22  23
ENDBRANCH  21  22
ENDBRANCH  20  21
ENDBRANCH  19  20
ENDBRANCH  17  19
ENDBRANCH   1  17
TORSDOF 7
