REMARK VINA RESULT:      -8.3      0.000      0.000
REMARK  5 active torsions:
REMARK  status: ('A' for Active; 'I' for Inactive)
REMARK    1  A    between atoms: C3_3  and  O1_4 
REMARK    2  A    between atoms: O1_4  and  C4_5 
REMARK    3  A    between atoms: C5_6  and  C6_7 
REMARK    4  A    between atoms: C6_7  and  O2_8 
REMARK    5  A    between atoms: C10_13  and  N1_14 
ROOT
HETATM    1  C1  LIG X 999      48.511 129.503  13.366  1.00  0.00     0.014 C 
HETATM    2  C2  LIG X 999      47.593 129.471  14.147  1.00  0.00    -0.091 C 
HETATM    3  C3  LIG X 999      46.480 129.434  15.096  1.00  0.00     0.268 C 
ENDROOT
BRANCH   3   4
HETATM    4  O1  LIG X 999      46.409 130.681  15.782  1.00  0.00    -0.339 OA
BRANCH   4   5
HETATM    5  C4  LIG X 999      45.561 130.948  16.869  1.00  0.00     0.079 A 
HETATM    6  C5  LIG X 999      44.257 131.419  16.612  1.00  0.00    -0.001 A 
HETATM    7  C7  LIG X 999      43.399 131.721  17.681  1.00  0.00     0.024 A 
HETATM    8  C8  LIG X 999      43.815 131.535  19.005  1.00  0.00    -0.023 A 
HETATM    9  C9  LIG X 999      42.953 131.829  20.074  1.00  0.00     0.046 A 
HETATM   10  C13 LIG X 999      45.116 131.047  19.267  1.00  0.00    -0.023 A 
HETATM   11  C10 LIG X 999      43.377 131.639  21.402  1.00  0.00     0.094 A 
HETATM   12  C11 LIG X 999      44.667 131.154  21.651  1.00  0.00     0.035 A 
HETATM   13  C12 LIG X 999      45.532 130.861  20.593  1.00  0.00     0.014 A 
HETATM   14  C14 LIG X 999      45.979 130.759  18.201  1.00  0.00     0.049 A 
BRANCH   6  15
HETATM   15  C6  LIG X 999      43.794 131.653  15.196  1.00  0.00     0.205 C 
BRANCH  15  16
HETATM   16  O2  LIG X 999      44.764 132.376  14.487  1.00  0.00    -0.396 OA
HETATM   17  H6  LIG X 999      45.563 132.428  15.073  1.00  0.00     0.209 HD
ENDBRANCH  15  16
ENDBRANCH   6  15
BRANCH  11  18
HETATM   18  N1  LIG X 999      42.523 131.928  22.517  1.00  0.00    -0.073 NA
HETATM   19  N2  LIG X 999      42.563 131.279  23.564  1.00  0.00    -0.162 NA
HETATM   20  N3  LIG X 999      42.601 130.632  24.609  1.00  0.00     0.068 N 
ENDBRANCH  11  18
ENDBRANCH   4   5
ENDBRANCH   3   4
TORSDOF 5
