REMARK VINA RESULT:      -6.1      2.452      6.981
REMARK  5 active torsions:
REMARK  status: ('A' for Active; 'I' for Inactive)
REMARK    1  A    between atoms: N1_1  and  C1_2 
REMARK    2  A    between atoms: C1_2  and  C2_3 
REMARK    3  A    between atoms: C2_3  and  C3_4 
REMARK    4  A    between atoms: C3_4  and  O1_5 
REMARK    5  A    between atoms: O1_5  and  C4_6 
ROOT
HETATM    1  C4  LIG X 999      44.163 131.566  19.002  1.00  0.00     0.069 A 
HETATM    2  C5  LIG X 999      42.996 132.315  19.190  1.00  0.00     0.037 A 
HETATM    3  C6  LIG X 999      42.399 132.404  20.450  1.00  0.00     0.015 A 
HETATM    4  C7  LIG X 999      42.965 131.739  21.546  1.00  0.00    -0.026 A 
HETATM    5  C8  LIG X 999      42.375 131.820  22.817  1.00  0.00     0.012 A 
HETATM    6  C9  LIG X 999      42.949 131.153  23.902  1.00  0.00     0.001 A 
HETATM    7  C10 LIG X 999      44.114 130.401  23.728  1.00  0.00     0.001 A 
HETATM    8  C11 LIG X 999      44.712 130.311  22.468  1.00  0.00     0.012 A 
HETATM    9  C12 LIG X 999      44.145 130.977  21.370  1.00  0.00    -0.023 A 
HETATM   10  C13 LIG X 999      44.738 130.894  20.099  1.00  0.00     0.049 A 
ENDROOT
BRANCH   1  11
HETATM   11  O1  LIG X 999      44.718 131.515  17.715  1.00  0.00    -0.351 OA
BRANCH  11  12
HETATM   12  C3  LIG X 999      45.669 130.545  17.282  1.00  0.00     0.177 C 
BRANCH  12  13
HETATM   13  C2  LIG X 999      45.360 130.105  15.849  1.00  0.00     0.054 C 
BRANCH  13  14
HETATM   14  C1  LIG X 999      45.198 131.282  14.870  1.00  0.00     0.231 C 
BRANCH  14  15
HETATM   15  N1  LIG X 999      46.042 132.423  15.231  1.00  0.00    -0.079 N 
HETATM   16  H1  LIG X 999      46.634 132.192  16.062  1.00  0.00     0.274 HD
HETATM   17  H2  LIG X 999      46.668 132.649  14.425  1.00  0.00     0.274 HD
HETATM   18  H3  LIG X 999      45.453 133.261  15.434  1.00  0.00     0.274 HD
ENDBRANCH  14  15
ENDBRANCH  13  14
ENDBRANCH  12  13
ENDBRANCH  11  12
ENDBRANCH   1  11
TORSDOF 5
