MODEL 1
REMARK VINA RESULT:      -6.7      0.000      0.000
REMARK  4 active torsions:
REMARK  status: ('A' for Active; 'I' for Inactive)
REMARK    1  A    between atoms: C1_1  and  C2_6 
REMARK    2  A    between atoms: N1_2  and  N2_3 
REMARK    3  A    between atoms: C2_6  and  C3_8 
REMARK    4  A    between atoms: C11_16  and  N4_17 
ROOT
HETATM    1  N4  LIG X 999      45.415 129.051  20.958  1.00  0.00    -0.105 NA
HETATM    2  N5  LIG X 999      45.230 128.497  22.042  1.00  0.00    -0.167 NA
HETATM    3  N6  LIG X 999      45.045 127.944  23.125  1.00  0.00     0.068 N 
ENDROOT
BRANCH   1   4
HETATM    4  C11 LIG X 999      45.663 130.488  20.872  1.00  0.00     0.179 C 
HETATM    5  C10 LIG X 999      44.381 131.224  21.198  1.00  0.00    -0.024 A 
HETATM    6  C5  LIG X 999      43.559 131.777  20.184  1.00  0.00    -0.049 A 
HETATM    7  C9  LIG X 999      43.951 131.276  22.536  1.00  0.00     0.010 A 
HETATM    8  C4  LIG X 999      44.002 131.822  18.740  1.00  0.00     0.051 C 
HETATM    9  C6  LIG X 999      42.353 132.403  20.539  1.00  0.00     0.007 A 
HETATM   10  C3  LIG X 999      45.096 130.790  18.424  1.00  0.00     0.068 C 
HETATM   11  C12 LIG X 999      46.208 130.864  19.482  1.00  0.00     0.048 C 
HETATM   12  C7  LIG X 999      41.945 132.452  21.873  1.00  0.00     0.001 A 
HETATM   13  C8  LIG X 999      42.742 131.889  22.870  1.00  0.00     0.001 A 
BRANCH  10  14
HETATM   14  C2  LIG X 999      45.651 131.025  17.040  1.00  0.00     0.172 C 
HETATM   15  O1  LIG X 999      45.528 132.156  16.496  1.00  0.00    -0.291 OA
BRANCH  14  16
HETATM   16  C1  LIG X 999      46.307 129.932  16.306  1.00  0.00     0.190 C 
HETATM   17  N1  LIG X 999      46.915 130.167  15.186  1.00  0.00    -0.165 NA
BRANCH  17  18
HETATM   18  N2  LIG X 999      47.548 129.148  14.462  1.00  0.00    -0.177 N 
HETATM   19  H2  LIG X 999      47.381 128.141  14.691  1.00  0.00     0.214 HD
HETATM   20  N3  LIG X 999      48.336 129.446  13.513  1.00  0.00    -0.031 N 
ENDBRANCH  17  18
ENDBRANCH  14  16
ENDBRANCH  10  14
ENDBRANCH   1   4
TORSDOF 4
ENDMDL
MODEL 2
REMARK VINA RESULT:      -6.6      3.024      7.157
REMARK  4 active torsions:
REMARK  status: ('A' for Active; 'I' for Inactive)
REMARK    1  A    between atoms: C1_1  and  C2_6 
REMARK    2  A    between atoms: N1_2  and  N2_3 
REMARK    3  A    between atoms: C2_6  and  C3_8 
REMARK    4  A    between atoms: C11_16  and  N4_17 
ROOT
HETATM    1  N4  LIG X 999      43.635 131.709  15.685  1.00  0.00    -0.105 NA
HETATM    2  N5  LIG X 999      43.270 131.680  14.509  1.00  0.00    -0.167 NA
HETATM    3  N6  LIG X 999      42.906 131.650  13.335  1.00  0.00     0.068 N 
ENDROOT
BRANCH   1   4
HETATM    4  C11 LIG X 999      44.985 132.131  16.050  1.00  0.00     0.179 C 
HETATM    5  C10 LIG X 999      45.982 131.217  15.371  1.00  0.00    -0.024 A 
HETATM    6  C5  LIG X 999      46.625 130.163  16.068  1.00  0.00    -0.049 A 
HETATM    7  C9  LIG X 999      46.202 131.362  13.990  1.00  0.00     0.010 A 
HETATM    8  C4  LIG X 999      46.490 130.003  17.564  1.00  0.00     0.051 C 
HETATM    9  C6  LIG X 999      47.500 129.311  15.376  1.00  0.00     0.007 A 
HETATM   10  C3  LIG X 999      45.242 130.703  18.125  1.00  0.00     0.068 C 
HETATM   11  C12 LIG X 999      45.157 132.138  17.580  1.00  0.00     0.048 C 
HETATM   12  C7  LIG X 999      47.713 129.474  14.005  1.00  0.00     0.001 A 
HETATM   13  C8  LIG X 999      47.064 130.497  13.314  1.00  0.00     0.001 A 
BRANCH  10  14
HETATM   14  C2  LIG X 999      45.274 130.700  19.633  1.00  0.00     0.172 C 
HETATM   15  O1  LIG X 999      46.022 129.889  20.246  1.00  0.00    -0.291 OA
BRANCH  14  16
HETATM   16  C1  LIG X 999      44.412 131.614  20.399  1.00  0.00     0.190 C 
HETATM   17  N1  LIG X 999      43.133 131.418  20.452  1.00  0.00    -0.165 NA
BRANCH  17  18
HETATM   18  N2  LIG X 999      42.284 132.271  21.172  1.00  0.00    -0.177 N 
HETATM   19  H2  LIG X 999      42.190 132.186  22.210  1.00  0.00     0.214 HD
HETATM   20  N3  LIG X 999      41.620 133.162  20.559  1.00  0.00    -0.031 N 
ENDBRANCH  17  18
ENDBRANCH  14  16
ENDBRANCH  10  14
ENDBRANCH   1   4
TORSDOF 4
ENDMDL
MODEL 3
REMARK VINA RESULT:      -6.6      1.505      2.097
REMARK  4 active torsions:
REMARK  status: ('A' for Active; 'I' for Inactive)
REMARK    1  A    between atoms: C1_1  and  C2_6 
REMARK    2  A    between atoms: N1_2  and  N2_3 
REMARK    3  A    between atoms: C2_6  and  C3_8 
REMARK    4  A    between atoms: C11_16  and  N4_17 
ROOT
HETATM    1  N4  LIG X 999      45.747 130.079  19.104  1.00  0.00    -0.105 NA
HETATM    2  N5  LIG X 999      45.601 129.753  20.283  1.00  0.00    -0.167 NA
HETATM    3  N6  LIG X 999      45.453 129.428  21.460  1.00  0.00     0.068 N 
ENDROOT
BRANCH   1   4
HETATM    4  C11 LIG X 999      45.517 131.452  18.662  1.00  0.00     0.179 C 
HETATM    5  C10 LIG X 999      44.118 131.865  19.065  1.00  0.00    -0.024 A 
HETATM    6  C5  LIG X 999      43.047 131.880  18.137  1.00  0.00    -0.049 A 
HETATM    7  C9  LIG X 999      43.860 132.151  20.418  1.00  0.00     0.010 A 
HETATM    8  C4  LIG X 999      43.273 131.659  16.660  1.00  0.00     0.051 C 
HETATM    9  C6  LIG X 999      41.757 132.220  18.578  1.00  0.00     0.007 A 
HETATM   10  C3  LIG X 999      44.590 130.923  16.367  1.00  0.00     0.068 C 
HETATM   11  C12 LIG X 999      45.742 131.579  17.144  1.00  0.00     0.048 C 
HETATM   12  C7  LIG X 999      41.520 132.508  19.923  1.00  0.00     0.001 A 
HETATM   13  C8  LIG X 999      42.569 132.472  20.842  1.00  0.00     0.001 A 
BRANCH  10  14
HETATM   14  C2  LIG X 999      44.870 130.924  14.884  1.00  0.00     0.172 C 
HETATM   15  O1  LIG X 999      43.957 131.234  14.071  1.00  0.00    -0.291 OA
BRANCH  14  16
HETATM   16  C1  LIG X 999      46.194 130.532  14.376  1.00  0.00     0.190 C 
HETATM   17  N1  LIG X 999      46.656 129.342  14.599  1.00  0.00    -0.165 NA
BRANCH  17  18
HETATM   18  N2  LIG X 999      47.914 128.939  14.129  1.00  0.00    -0.177 N 
HETATM   19  H2  LIG X 999      48.377 128.078  14.503  1.00  0.00     0.214 HD
HETATM   20  N3  LIG X 999      48.502 129.623  13.238  1.00  0.00    -0.031 N 
ENDBRANCH  17  18
ENDBRANCH  14  16
ENDBRANCH  10  14
ENDBRANCH   1   4
TORSDOF 4
ENDMDL
MODEL 4
REMARK VINA RESULT:      -6.5      3.170      6.667
REMARK  4 active torsions:
REMARK  status: ('A' for Active; 'I' for Inactive)
REMARK    1  A    between atoms: C1_1  and  C2_6 
REMARK    2  A    between atoms: N1_2  and  N2_3 
REMARK    3  A    between atoms: C2_6  and  C3_8 
REMARK    4  A    between atoms: C11_16  and  N4_17 
ROOT
HETATM    1  N4  LIG X 999      43.146 131.873  16.983  1.00  0.00    -0.105 NA
HETATM    2  N5  LIG X 999      42.319 132.036  17.882  1.00  0.00    -0.167 NA
HETATM    3  N6  LIG X 999      41.494 132.200  18.778  1.00  0.00     0.068 N 
ENDROOT
BRANCH   1   4
HETATM    4  C11 LIG X 999      44.550 132.227  17.171  1.00  0.00     0.179 C 
HETATM    5  C10 LIG X 999      45.395 131.384  16.240  1.00  0.00    -0.024 A 
HETATM    6  C5  LIG X 999      46.104 130.246  16.700  1.00  0.00    -0.049 A 
HETATM    7  C9  LIG X 999      45.398 131.688  14.868  1.00  0.00     0.010 A 
HETATM    8  C4  LIG X 999      46.203 129.912  18.170  1.00  0.00     0.051 C 
HETATM    9  C6  LIG X 999      46.829 129.468  15.783  1.00  0.00     0.007 A 
HETATM   10  C3  LIG X 999      45.084 130.561  19.001  1.00  0.00     0.068 C 
HETATM   11  C12 LIG X 999      44.963 132.051  18.644  1.00  0.00     0.048 C 
HETATM   12  C7  LIG X 999      46.827 129.788  14.424  1.00  0.00     0.001 A 
HETATM   13  C8  LIG X 999      46.113 130.896  13.967  1.00  0.00     0.001 A 
BRANCH  10  14
HETATM   14  C2  LIG X 999      45.354 130.379  20.474  1.00  0.00     0.172 C 
HETATM   15  O1  LIG X 999      46.185 129.511  20.859  1.00  0.00    -0.291 OA
BRANCH  14  16
HETATM   16  C1  LIG X 999      44.630 131.185  21.470  1.00  0.00     0.190 C 
HETATM   17  N1  LIG X 999      43.345 131.078  21.590  1.00  0.00    -0.165 NA
BRANCH  17  18
HETATM   18  N2  LIG X 999      42.625 131.832  22.528  1.00  0.00    -0.177 N 
HETATM   19  H2  LIG X 999      41.790 132.393  22.241  1.00  0.00     0.214 HD
HETATM   20  N3  LIG X 999      42.989 131.837  23.743  1.00  0.00    -0.031 N 
ENDBRANCH  17  18
ENDBRANCH  14  16
ENDBRANCH  10  14
ENDBRANCH   1   4
TORSDOF 4
ENDMDL
MODEL 5
REMARK VINA RESULT:      -5.9      1.064      1.213
REMARK  4 active torsions:
REMARK  status: ('A' for Active; 'I' for Inactive)
REMARK    1  A    between atoms: C1_1  and  C2_6 
REMARK    2  A    between atoms: N1_2  and  N2_3 
REMARK    3  A    between atoms: C2_6  and  C3_8 
REMARK    4  A    between atoms: C11_16  and  N4_17 
ROOT
HETATM    1  N4  LIG X 999      45.751 129.342  20.568  1.00  0.00    -0.105 NA
HETATM    2  N5  LIG X 999      45.387 128.734  21.576  1.00  0.00    -0.167 NA
HETATM    3  N6  LIG X 999      45.024 128.128  22.582  1.00  0.00     0.068 N 
ENDROOT
BRANCH   1   4
HETATM    4  C11 LIG X 999      45.763 130.801  20.525  1.00  0.00     0.179 C 
HETATM    5  C10 LIG X 999      44.565 131.321  21.291  1.00  0.00    -0.024 A 
HETATM    6  C5  LIG X 999      43.396 131.776  20.630  1.00  0.00    -0.049 A 
HETATM    7  C9  LIG X 999      44.582 131.262  22.695  1.00  0.00     0.010 A 
HETATM    8  C4  LIG X 999      43.344 131.936  19.129  1.00  0.00     0.051 C 
HETATM    9  C6  LIG X 999      42.294 132.198  21.391  1.00  0.00     0.007 A 
HETATM   10  C3  LIG X 999      44.408 131.095  18.407  1.00  0.00     0.068 C 
HETATM   11  C12 LIG X 999      45.779 131.303  19.069  1.00  0.00     0.048 C 
HETATM   12  C7  LIG X 999      42.330 132.139  22.786  1.00  0.00     0.001 A 
HETATM   13  C8  LIG X 999      43.472 131.671  23.437  1.00  0.00     0.001 A 
BRANCH  10  14
HETATM   14  C2  LIG X 999      44.456 131.457  16.943  1.00  0.00     0.172 C 
HETATM   15  O1  LIG X 999      43.393 131.760  16.334  1.00  0.00    -0.291 OA
BRANCH  14  16
HETATM   16  C1  LIG X 999      45.731 131.427  16.209  1.00  0.00     0.190 C 
HETATM   17  N1  LIG X 999      45.763 131.691  14.941  1.00  0.00    -0.165 NA
BRANCH  17  18
HETATM   18  N2  LIG X 999      46.961 131.670  14.213  1.00  0.00    -0.177 N 
HETATM   19  H2  LIG X 999      47.492 132.552  14.024  1.00  0.00     0.214 HD
HETATM   20  N3  LIG X 999      47.412 130.569  13.775  1.00  0.00    -0.031 N 
ENDBRANCH  17  18
ENDBRANCH  14  16
ENDBRANCH  10  14
ENDBRANCH   1   4
TORSDOF 4
ENDMDL
MODEL 6
REMARK VINA RESULT:      -5.9      3.548      6.391
REMARK  4 active torsions:
REMARK  status: ('A' for Active; 'I' for Inactive)
REMARK    1  A    between atoms: C1_1  and  C2_6 
REMARK    2  A    between atoms: N1_2  and  N2_3 
REMARK    3  A    between atoms: C2_6  and  C3_8 
REMARK    4  A    between atoms: C11_16  and  N4_17 
ROOT
HETATM    1  N4  LIG X 999      43.212 131.739  16.923  1.00  0.00    -0.105 NA
HETATM    2  N5  LIG X 999      42.415 131.961  17.836  1.00  0.00    -0.167 NA
HETATM    3  N6  LIG X 999      41.619 132.182  18.746  1.00  0.00     0.068 N 
ENDROOT
BRANCH   1   4
HETATM    4  C11 LIG X 999      44.600 132.186  17.004  1.00  0.00     0.179 C 
HETATM    5  C10 LIG X 999      45.435 131.360  16.049  1.00  0.00    -0.024 A 
HETATM    6  C5  LIG X 999      46.242 130.286  16.499  1.00  0.00    -0.049 A 
HETATM    7  C9  LIG X 999      45.330 131.610  14.669  1.00  0.00     0.010 A 
HETATM    8  C4  LIG X 999      46.457 130.017  17.970  1.00  0.00     0.051 C 
HETATM    9  C6  LIG X 999      46.955 129.519  15.563  1.00  0.00     0.007 A 
HETATM   10  C3  LIG X 999      45.356 130.628  18.851  1.00  0.00     0.068 C 
HETATM   11  C12 LIG X 999      45.118 132.093  18.452  1.00  0.00     0.048 C 
HETATM   12  C7  LIG X 999      46.844 129.785  14.197  1.00  0.00     0.001 A 
HETATM   13  C8  LIG X 999      46.033 130.828  13.751  1.00  0.00     0.001 A 
BRANCH  10  14
HETATM   14  C2  LIG X 999      45.732 130.520  20.309  1.00  0.00     0.172 C 
HETATM   15  O1  LIG X 999      45.895 129.385  20.834  1.00  0.00    -0.291 OA
BRANCH  14  16
HETATM   16  C1  LIG X 999      45.877 131.731  21.132  1.00  0.00     0.190 C 
HETATM   17  N1  LIG X 999      47.020 132.335  21.213  1.00  0.00    -0.165 NA
BRANCH  17  18
HETATM   18  N2  LIG X 999      47.192 133.490  21.990  1.00  0.00    -0.177 N 
HETATM   19  H2  LIG X 999      46.406 133.874  22.563  1.00  0.00     0.214 HD
HETATM   20  N3  LIG X 999      48.314 134.080  22.001  1.00  0.00    -0.031 N 
ENDBRANCH  17  18
ENDBRANCH  14  16
ENDBRANCH  10  14
ENDBRANCH   1   4
TORSDOF 4
ENDMDL
MODEL 7
REMARK VINA RESULT:      -5.6      2.766      3.346
REMARK  4 active torsions:
REMARK  status: ('A' for Active; 'I' for Inactive)
REMARK    1  A    between atoms: C1_1  and  C2_6 
REMARK    2  A    between atoms: N1_2  and  N2_3 
REMARK    3  A    between atoms: C2_6  and  C3_8 
REMARK    4  A    between atoms: C11_16  and  N4_17 
ROOT
HETATM    1  N4  LIG X 999      41.955 132.756  18.877  1.00  0.00    -0.105 NA
HETATM    2  N5  LIG X 999      41.444 133.219  19.897  1.00  0.00    -0.167 NA
HETATM    3  N6  LIG X 999      40.933 133.681  20.916  1.00  0.00     0.068 N 
ENDROOT
BRANCH   1   4
HETATM    4  C11 LIG X 999      42.503 131.402  18.850  1.00  0.00     0.179 C 
HETATM    5  C10 LIG X 999      43.610 131.304  19.878  1.00  0.00    -0.024 A 
HETATM    6  C5  LIG X 999      44.977 131.363  19.511  1.00  0.00    -0.049 A 
HETATM    7  C9  LIG X 999      43.265 131.245  21.240  1.00  0.00     0.010 A 
HETATM    8  C4  LIG X 999      45.412 131.348  18.064  1.00  0.00     0.051 C 
HETATM    9  C6  LIG X 999      45.963 131.321  20.511  1.00  0.00     0.007 A 
HETATM   10  C3  LIG X 999      44.296 131.790  17.106  1.00  0.00     0.068 C 
HETATM   11  C12 LIG X 999      42.995 131.042  17.436  1.00  0.00     0.048 C 
HETATM   12  C7  LIG X 999      45.603 131.257  21.859  1.00  0.00     0.001 A 
HETATM   13  C8  LIG X 999      44.257 131.219  22.222  1.00  0.00     0.001 A 
BRANCH  10  14
HETATM   14  C2  LIG X 999      44.709 131.548  15.674  1.00  0.00     0.172 C 
HETATM   15  O1  LIG X 999      43.917 131.834  14.734  1.00  0.00    -0.291 OA
BRANCH  14  16
HETATM   16  C1  LIG X 999      46.016 130.947  15.367  1.00  0.00     0.190 C 
HETATM   17  N1  LIG X 999      46.085 129.792  14.785  1.00  0.00    -0.165 NA
BRANCH  17  18
HETATM   18  N2  LIG X 999      47.316 129.192  14.480  1.00  0.00    -0.177 N 
HETATM   19  H2  LIG X 999      47.612 128.303  14.946  1.00  0.00     0.214 HD
HETATM   20  N3  LIG X 999      48.084 129.731  13.627  1.00  0.00    -0.031 N 
ENDBRANCH  17  18
ENDBRANCH  14  16
ENDBRANCH  10  14
ENDBRANCH   1   4
TORSDOF 4
ENDMDL
MODEL 8
REMARK VINA RESULT:      -5.3      4.585      6.183
REMARK  4 active torsions:
REMARK  status: ('A' for Active; 'I' for Inactive)
REMARK    1  A    between atoms: C1_1  and  C2_6 
REMARK    2  A    between atoms: N1_2  and  N2_3 
REMARK    3  A    between atoms: C2_6  and  C3_8 
REMARK    4  A    between atoms: C11_16  and  N4_17 
ROOT
HETATM    1  N4  LIG X 999      44.988 126.868  22.362  1.00  0.00    -0.105 NA
HETATM    2  N5  LIG X 999      46.023 126.217  22.210  1.00  0.00    -0.167 NA
HETATM    3  N6  LIG X 999      47.055 125.567  22.058  1.00  0.00     0.068 N 
ENDROOT
BRANCH   1   4
HETATM    4  C11 LIG X 999      44.518 127.245  23.692  1.00  0.00     0.179 C 
HETATM    5  C10 LIG X 999      43.121 126.696  23.889  1.00  0.00    -0.024 A 
HETATM    6  C5  LIG X 999      41.972 127.515  23.760  1.00  0.00    -0.049 A 
HETATM    7  C9  LIG X 999      42.961 125.317  24.113  1.00  0.00     0.010 A 
HETATM    8  C4  LIG X 999      42.078 129.013  23.597  1.00  0.00     0.051 C 
HETATM    9  C6  LIG X 999      40.697 126.942  23.900  1.00  0.00     0.007 A 
HETATM   10  C3  LIG X 999      43.452 129.455  23.067  1.00  0.00     0.068 C 
HETATM   11  C12 LIG X 999      44.568 128.773  23.874  1.00  0.00     0.048 C 
HETATM   12  C7  LIG X 999      40.556 125.572  24.129  1.00  0.00     0.001 A 
HETATM   13  C8  LIG X 999      41.686 124.761  24.235  1.00  0.00     0.001 A 
BRANCH  10  14
HETATM   14  C2  LIG X 999      43.579 130.957  23.132  1.00  0.00     0.172 C 
HETATM   15  O1  LIG X 999      44.300 131.490  24.020  1.00  0.00    -0.291 OA
BRANCH  14  16
HETATM   16  C1  LIG X 999      42.842 131.809  22.186  1.00  0.00     0.190 C 
HETATM   17  N1  LIG X 999      43.013 131.671  20.910  1.00  0.00    -0.165 NA
BRANCH  17  18
HETATM   18  N2  LIG X 999      42.325 132.468  19.983  1.00  0.00    -0.177 N 
HETATM   19  H2  LIG X 999      41.932 133.397  20.259  1.00  0.00     0.214 HD
HETATM   20  N3  LIG X 999      42.177 132.061  18.790  1.00  0.00    -0.031 N 
ENDBRANCH  17  18
ENDBRANCH  14  16
ENDBRANCH  10  14
ENDBRANCH   1   4
TORSDOF 4
ENDMDL
MODEL 9
REMARK VINA RESULT:      -5.2      5.324      7.103
REMARK  4 active torsions:
REMARK  status: ('A' for Active; 'I' for Inactive)
REMARK    1  A    between atoms: C1_1  and  C2_6 
REMARK    2  A    between atoms: N1_2  and  N2_3 
REMARK    3  A    between atoms: C2_6  and  C3_8 
REMARK    4  A    between atoms: C11_16  and  N4_17 
ROOT
HETATM    1  N4  LIG X 999      43.284 125.315  22.547  1.00  0.00    -0.105 NA
HETATM    2  N5  LIG X 999      43.900 124.263  22.372  1.00  0.00    -0.167 NA
HETATM    3  N6  LIG X 999      44.514 123.212  22.196  1.00  0.00     0.068 N 
ENDROOT
BRANCH   1   4
HETATM    4  C11 LIG X 999      42.872 125.739  23.883  1.00  0.00     0.179 C 
HETATM    5  C10 LIG X 999      41.360 125.800  23.929  1.00  0.00    -0.024 A 
HETATM    6  C5  LIG X 999      40.659 127.028  23.831  1.00  0.00    -0.049 A 
HETATM    7  C9  LIG X 999      40.635 124.597  23.977  1.00  0.00     0.010 A 
HETATM    8  C4  LIG X 999      41.378 128.357  23.855  1.00  0.00     0.051 C 
HETATM    9  C6  LIG X 999      39.255 127.023  23.826  1.00  0.00     0.007 A 
HETATM   10  C3  LIG X 999      42.860 128.235  23.464  1.00  0.00     0.068 C 
HETATM   11  C12 LIG X 999      43.516 127.088  24.249  1.00  0.00     0.048 C 
HETATM   12  C7  LIG X 999      38.550 125.819  23.881  1.00  0.00     0.001 A 
HETATM   13  C8  LIG X 999      39.239 124.608  23.956  1.00  0.00     0.001 A 
BRANCH  10  14
HETATM   14  C2  LIG X 999      43.576 129.540  23.715  1.00  0.00     0.172 C 
HETATM   15  O1  LIG X 999      44.610 129.561  24.437  1.00  0.00    -0.291 OA
BRANCH  14  16
HETATM   16  C1  LIG X 999      43.056 130.795  23.152  1.00  0.00     0.190 C 
HETATM   17  N1  LIG X 999      43.032 130.977  21.869  1.00  0.00    -0.165 NA
BRANCH  17  18
HETATM   18  N2  LIG X 999      42.544 132.163  21.301  1.00  0.00    -0.177 N 
HETATM   19  H2  LIG X 999      42.171 132.934  21.901  1.00  0.00     0.214 HD
HETATM   20  N3  LIG X 999      42.554 132.307  20.040  1.00  0.00    -0.031 N 
ENDBRANCH  17  18
ENDBRANCH  14  16
ENDBRANCH  10  14
ENDBRANCH   1   4
TORSDOF 4
ENDMDL
