REMARK VINA RESULT:      -3.2      4.704      7.119
REMARK  4 active torsions:
REMARK  status: ('A' for Active; 'I' for Inactive)
REMARK    1  A    between atoms: C5_5  and  C6_6 
REMARK    2  A    between atoms: C7_7  and  C8_8 
REMARK    3  A    between atoms: C11_13  and  C12_14 
REMARK    4  A    between atoms: C13_18  and  N3_19 
ROOT
HETATM    1  N3  LIG X 999      45.913 130.531  19.389  1.00  0.00    -0.025 NA
HETATM    2  N4  LIG X 999      45.224 130.934  18.453  1.00  0.00    -0.158 NA
HETATM    3  N5  LIG X 999      44.535 131.338  17.517  1.00  0.00     0.068 N 
ENDROOT
BRANCH   1   4
HETATM    4  C13 LIG X 999      45.358 130.394  20.695  1.00  0.00     0.301 A 
HETATM    5  N2  LIG X 999      45.227 131.406  21.565  1.00  0.00    -0.236 N 
HETATM    6  N1  LIG X 999      44.681 130.907  22.662  1.00  0.00    -0.149 NA
HETATM    7  H11 LIG X 999      45.499 132.404  21.427  1.00  0.00     0.193 HD
HETATM    8  C12 LIG X 999      44.490 129.592  22.411  1.00  0.00     0.182 A 
HETATM    9  O3  LIG X 999      44.915 129.271  21.205  1.00  0.00    -0.257 OA
BRANCH   8  10
HETATM   10  C11 LIG X 999      43.918 128.607  23.412  1.00  0.00     0.054 C 
HETATM   11  C3  LIG X 999      43.523 127.266  22.700  1.00  0.00     0.030 C 
HETATM   12  C2  LIG X 999      42.600 126.433  23.565  1.00  0.00    -0.021 C 
HETATM   13  C4  LIG X 999      44.762 126.459  22.256  1.00  0.00     0.027 C 
HETATM   14  C1  LIG X 999      41.702 127.025  24.356  1.00  0.00    -0.004 C 
HETATM   15  C15 LIG X 999      41.682 128.490  24.503  1.00  0.00    -0.003 C 
HETATM   16  C14 LIG X 999      42.683 129.241  24.027  1.00  0.00    -0.008 C 
HETATM   17  C5  LIG X 999      45.730 126.206  23.424  1.00  0.00     0.066 C 
HETATM   18  C9  LIG X 999      46.159 127.531  24.068  1.00  0.00     0.019 C 
HETATM   19  C10 LIG X 999      44.937 128.327  24.552  1.00  0.00     0.024 C 
BRANCH  17  20
HETATM   20  C6  LIG X 999      46.913 125.475  22.946  1.00  0.00    -0.090 C 
HETATM   21  C7  LIG X 999      47.883 124.875  22.554  1.00  0.00     0.005 C 
BRANCH  21  22
HETATM   22  C8  LIG X 999      49.036 124.162  22.085  1.00  0.00     0.258 C 
HETATM   23  O1  LIG X 999      49.106 123.799  20.883  1.00  0.00    -0.637 OA
HETATM   24  O2  LIG X 999      50.074 123.870  22.960  1.00  0.00    -0.637 OA
ENDBRANCH  21  22
ENDBRANCH  17  20
ENDBRANCH   8  10
ENDBRANCH   1   4
TORSDOF 4
