REMARK VINA RESULT:      -4.6      2.556      6.018
REMARK  5 active torsions:
REMARK  status: ('A' for Active; 'I' for Inactive)
REMARK    1  A    between atoms: C3_3  and  N1_4 
REMARK    2  A    between atoms: N1_4  and  C6_7 
REMARK    3  A    between atoms: C6_7  and  C7_8 
REMARK    4  A    between atoms: C9_10  and  C10_11 
REMARK    5  A    between atoms: C11_14  and  N4_15 
ROOT
HETATM    1  C1  LIG X 999      48.977 125.565  22.302  1.00  0.00     0.013 C 
HETATM    2  C2  LIG X 999      47.997 125.966  22.879  1.00  0.00    -0.089 C 
HETATM    3  C3  LIG X 999      46.799 126.456  23.588  1.00  0.00     0.329 C 
ENDROOT
BRANCH   3   4
HETATM    4  N1  LIG X 999      45.567 125.662  23.294  1.00  0.00    -0.061 N 
HETATM    5  C4  LIG X 999      45.847 124.216  23.486  1.00  0.00     0.273 C 
HETATM    6  C5  LIG X 999      45.213 125.863  21.866  1.00  0.00     0.273 C 
BRANCH   4   7
HETATM    7  C6  LIG X 999      44.411 126.039  24.174  1.00  0.00     0.275 C 
BRANCH   7   8
HETATM    8  C7  LIG X 999      43.893 127.449  23.960  1.00  0.00    -0.035 C 
HETATM    9  C8  LIG X 999      44.686 128.516  24.193  1.00  0.00     0.001 C 
HETATM   10  C9  LIG X 999      44.232 129.906  23.801  1.00  0.00     0.054 C 
HETATM   11  C12 LIG X 999      44.977 130.985  24.625  1.00  0.00     0.023 C 
HETATM   12  C16 LIG X 999      42.712 130.026  24.120  1.00  0.00     0.028 C 
HETATM   13  C13 LIG X 999      44.444 132.398  24.310  1.00  0.00     0.002 C 
HETATM   14  C14 LIG X 999      42.924 132.500  24.523  1.00  0.00     0.001 C 
HETATM   15  C15 LIG X 999      42.160 131.412  23.751  1.00  0.00     0.010 C 
HETATM   16  C17 LIG X 999      41.943 128.881  23.511  1.00  0.00    -0.020 C 
HETATM   17  C18 LIG X 999      42.490 127.659  23.503  1.00  0.00     0.005 C 
BRANCH  10  18
HETATM   18  C10 LIG X 999      44.555 130.070  22.322  1.00  0.00     0.184 A 
HETATM   19  N2  LIG X 999      45.429 129.308  21.631  1.00  0.00    -0.124 NA
HETATM   20  N3  LIG X 999      45.476 129.799  20.402  1.00  0.00    -0.099 NA
HETATM   21  C11 LIG X 999      44.635 130.847  20.396  1.00  0.00     0.326 A 
HETATM   22  O1  LIG X 999      44.069 131.027  21.565  1.00  0.00    -0.255 OA
BRANCH  21  23
HETATM   23  N4  LIG X 999      44.398 131.662  19.252  1.00  0.00    -0.023 NA
HETATM   24  N5  LIG X 999      44.862 131.355  18.154  1.00  0.00    -0.158 NA
HETATM   25  N6  LIG X 999      45.329 131.048  17.057  1.00  0.00     0.068 N 
ENDBRANCH  21  23
ENDBRANCH  10  18
ENDBRANCH   7   8
ENDBRANCH   4   7
ENDBRANCH   3   4
TORSDOF 5
