REMARK VINA RESULT:      -6.9      3.353      6.622
REMARK  3 active torsions:
REMARK  status: ('A' for Active; 'I' for Inactive)
REMARK    1  A    between atoms: C3_3  and  S1_4 
REMARK    2  A    between atoms: S1_4  and  C4_7 
REMARK    3  A    between atoms: C13_16  and  N1_17 
ROOT
HETATM    1  C1  LIG X 999      43.344 131.751  23.978  1.00  0.00     0.013 C 
HETATM    2  C2  LIG X 999      43.292 131.526  22.794  1.00  0.00    -0.102 C 
HETATM    3  C3  LIG X 999      43.234 131.255  21.355  1.00  0.00     0.238 C 
ENDROOT
BRANCH   3   4
HETATM    4  S1  LIG X 999      44.880 131.041  20.705  1.00  0.00     0.185 S 
HETATM    5  O1  LIG X 999      45.412 129.701  21.129  1.00  0.00    -0.222 OA
HETATM    6  O2  LIG X 999      45.784 132.111  21.252  1.00  0.00    -0.222 OA
BRANCH   4   7
HETATM    7  C4  LIG X 999      44.843 131.131  18.946  1.00  0.00     0.060 A 
HETATM    8  C5  LIG X 999      43.864 131.897  18.304  1.00  0.00     0.024 A 
HETATM    9  C6  LIG X 999      43.848 131.993  16.912  1.00  0.00     0.011 A 
HETATM   10  C7  LIG X 999      44.817 131.333  16.138  1.00  0.00    -0.019 A 
HETATM   11  C8  LIG X 999      45.806 130.552  16.784  1.00  0.00    -0.048 A 
HETATM   12  C13 LIG X 999      44.724 131.408  14.625  1.00  0.00     0.251 C 
HETATM   13  C9  LIG X 999      45.816 130.472  18.186  1.00  0.00     0.031 A 
HETATM   14  C10 LIG X 999      46.934 129.904  16.016  1.00  0.00     0.039 C 
HETATM   15  C11 LIG X 999      46.634 129.760  14.521  1.00  0.00     0.007 C 
HETATM   16  C12 LIG X 999      46.070 131.068  13.961  1.00  0.00     0.040 C 
BRANCH  12  17
HETATM   17  N1  LIG X 999      43.682 130.493  14.150  1.00  0.00     0.087 N 
HETATM   18  H14 LIG X 999      42.762 130.803  14.540  1.00  0.00     0.313 HD
HETATM   19  H15 LIG X 999      43.597 130.595  13.113  1.00  0.00     0.313 HD
ENDBRANCH  12  17
ENDBRANCH   4   7
ENDBRANCH   3   4
TORSDOF 3
