REMARK VINA RESULT:      -8.9      0.000      0.000
REMARK  7 active torsions:
REMARK  status: ('A' for Active; 'I' for Inactive)
REMARK    1  A    between atoms: O1_2  and  C1_3 
REMARK    2  A    between atoms: C1_3  and  C14_20 
REMARK    3  A    between atoms: N1_4  and  C2_5 
REMARK    4  A    between atoms: C2_5  and  O2_6 
REMARK    5  A    between atoms: O2_6  and  C3_7 
REMARK    6  A    between atoms: C3_7  and  O4_9 
REMARK    7  A    between atoms: O4_9  and  C4_10 
ROOT
HETATM    1  C3  LIG X 999      45.031 131.373  19.794  1.00  0.00     0.413 C 
HETATM    2  O3  LIG X 999      46.001 131.611  20.565  1.00  0.00    -0.229 OA
ENDROOT
BRANCH   1   3
HETATM    3  O2  LIG X 999      43.829 132.070  19.936  1.00  0.00    -0.276 OA
BRANCH   3   4
HETATM    4  C2  LIG X 999      42.742 131.578  20.714  1.00  0.00     0.332 C 
BRANCH   4   5
HETATM    5  N1  LIG X 999      42.836 132.090  22.078  1.00  0.00    -0.238 NA
HETATM    6  C1  LIG X 999      43.101 131.417  23.165  1.00  0.00     0.190 C 
BRANCH   6   7
HETATM    7  O1  LIG X 999      43.132 132.102  24.376  1.00  0.00    -0.343 OA
HETATM    8  H1  LIG X 999      43.613 131.721  25.183  1.00  0.00     0.219 HD
ENDBRANCH   6   7
BRANCH   6   9
HETATM    9  C14 LIG X 999      43.369 129.957  23.191  1.00  0.00     0.130 A 
HETATM   10  N2  LIG X 999      44.501 129.356  22.771  1.00  0.00    -0.169 NA
HETATM   11  N3  LIG X 999      44.351 128.055  22.946  1.00  0.00    -0.285 N 
HETATM   12  C15 LIG X 999      45.387 127.072  22.659  1.00  0.00     0.179 C 
HETATM   13  C16 LIG X 999      43.151 127.800  23.498  1.00  0.00     0.114 A 
HETATM   14  C17 LIG X 999      42.489 128.998  23.664  1.00  0.00     0.056 A 
ENDBRANCH   6   9
ENDBRANCH   4   5
ENDBRANCH   3   4
ENDBRANCH   1   3
BRANCH   1  15
HETATM   15  O4  LIG X 999      45.149 130.437  18.762  1.00  0.00    -0.256 OA
BRANCH  15  16
HETATM   16  C4  LIG X 999      45.636 130.713  17.476  1.00  0.00     0.082 A 
HETATM   17  C5  LIG X 999      45.301 131.936  16.885  1.00  0.00     0.038 A 
HETATM   18  C6  LIG X 999      45.749 132.255  15.600  1.00  0.00     0.015 A 
HETATM   19  C7  LIG X 999      46.532 131.342  14.881  1.00  0.00    -0.026 A 
HETATM   20  C8  LIG X 999      46.986 131.650  13.589  1.00  0.00     0.012 A 
HETATM   21  C12 LIG X 999      46.862 130.094  15.460  1.00  0.00    -0.023 A 
HETATM   22  C9  LIG X 999      47.758 130.726  12.878  1.00  0.00     0.001 A 
HETATM   23  C10 LIG X 999      48.080 129.492  13.449  1.00  0.00     0.001 A 
HETATM   24  C11 LIG X 999      47.635 129.174  14.735  1.00  0.00     0.012 A 
HETATM   25  C13 LIG X 999      46.408 129.785  16.752  1.00  0.00     0.049 A 
ENDBRANCH  15  16
ENDBRANCH   1  15
TORSDOF 7
