REMARK VINA RESULT:      -6.5      2.355      4.485
REMARK  4 active torsions:
REMARK  status: ('A' for Active; 'I' for Inactive)
REMARK    1  A    between atoms: C3_3  and  O1_4 
REMARK    2  A    between atoms: O1_4  and  C4_5 
REMARK    3  A    between atoms: C4_5  and  O2_6 
REMARK    4  A    between atoms: C5_8  and  C6_9 
ROOT
HETATM    1  C1  LIG X 999      44.503 131.885  24.534  1.00  0.00     0.014 C 
HETATM    2  C2  LIG X 999      43.489 132.013  23.895  1.00  0.00    -0.091 C 
HETATM    3  C3  LIG X 999      42.260 132.165  23.115  1.00  0.00     0.270 C 
ENDROOT
BRANCH   3   4
HETATM    4  O1  LIG X 999      42.535 131.866  21.754  1.00  0.00    -0.319 OA
BRANCH   4   5
HETATM    5  C4  LIG X 999      42.053 132.625  20.677  1.00  0.00     0.179 C 
HETATM    6  C5  LIG X 999      42.683 132.585  19.500  1.00  0.00     0.075 C 
BRANCH   5   7
HETATM    7  O2  LIG X 999      40.925 133.437  20.808  1.00  0.00    -0.341 OA
HETATM    8  H4  LIG X 999      39.990 133.060  20.892  1.00  0.00     0.220 HD
ENDBRANCH   5   7
BRANCH   6   9
HETATM    9  C6  LIG X 999      43.909 131.787  19.278  1.00  0.00    -0.021 A 
HETATM   10  C7  LIG X 999      44.680 131.459  20.402  1.00  0.00     0.012 A 
HETATM   11  C8  LIG X 999      45.823 130.668  20.278  1.00  0.00     0.002 A 
HETATM   12  C9  LIG X 999      46.220 130.199  19.027  1.00  0.00     0.012 A 
HETATM   13  C10 LIG X 999      45.490 130.539  17.880  1.00  0.00    -0.025 A 
HETATM   14  C11 LIG X 999      45.912 130.085  16.620  1.00  0.00     0.012 A 
HETATM   15  C15 LIG X 999      44.330 131.353  17.991  1.00  0.00    -0.015 A 
HETATM   16  C12 LIG X 999      45.208 130.447  15.471  1.00  0.00     0.001 A 
HETATM   17  C13 LIG X 999      44.087 131.270  15.565  1.00  0.00     0.001 A 
HETATM   18  C14 LIG X 999      43.652 131.728  16.811  1.00  0.00     0.013 A 
ENDBRANCH   6   9
ENDBRANCH   4   5
ENDBRANCH   3   4
TORSDOF 4
