REMARK VINA RESULT:      -5.8      1.113      1.368
REMARK  3 active torsions:
REMARK  status: ('A' for Active; 'I' for Inactive)
REMARK    1  A    between atoms: C3_3  and  S1_4 
REMARK    2  A    between atoms: S1_4  and  C4_7 
REMARK    3  A    between atoms: C6_9  and  N1_10 
ROOT
HETATM    1  C1  LIG X 999      43.537 131.863  19.956  1.00  0.00     0.013 C 
HETATM    2  C2  LIG X 999      43.203 131.590  21.082  1.00  0.00    -0.102 C 
HETATM    3  C3  LIG X 999      42.800 131.261  22.452  1.00  0.00     0.238 C 
ENDROOT
BRANCH   3   4
HETATM    4  S1  LIG X 999      43.879 130.010  23.135  1.00  0.00     0.186 S 
HETATM    5  O1  LIG X 999      44.434 130.540  24.429  1.00  0.00    -0.222 OA
HETATM    6  O2  LIG X 999      45.005 129.792  22.163  1.00  0.00    -0.222 OA
BRANCH   4   7
HETATM    7  C4  LIG X 999      43.076 128.450  23.439  1.00  0.00     0.073 A 
HETATM    8  C5  LIG X 999      41.743 128.442  23.885  1.00  0.00     0.058 A 
HETATM    9  C6  LIG X 999      41.073 127.239  24.159  1.00  0.00     0.095 A 
HETATM   10  C7  LIG X 999      41.733 126.026  23.979  1.00  0.00     0.046 A 
HETATM   11  C8  LIG X 999      43.055 125.994  23.521  1.00  0.00    -0.021 A 
HETATM   12  C9  LIG X 999      43.699 124.753  23.334  1.00  0.00     0.022 A 
HETATM   13  C13 LIG X 999      43.745 127.213  23.238  1.00  0.00    -0.004 A 
HETATM   14  C10 LIG X 999      45.012 124.742  22.873  1.00  0.00    -0.024 A 
HETATM   15  C11 LIG X 999      45.675 125.894  22.592  1.00  0.00    -0.024 A 
HETATM   16  C17 LIG X 999      45.861 123.567  22.583  1.00  0.00     0.276 C 
HETATM   17  C12 LIG X 999      45.075 127.142  22.755  1.00  0.00     0.023 A 
HETATM   18  C14 LIG X 999      47.033 125.600  22.085  1.00  0.00     0.276 C 
HETATM   19  N4  LIG X 999      47.209 124.121  22.234  1.00  0.00    -0.067 N 
HETATM   20  C15 LIG X 999      48.172 123.831  23.324  1.00  0.00     0.272 C 
HETATM   21  C16 LIG X 999      47.711 123.523  20.976  1.00  0.00     0.272 C 
BRANCH   9  22
HETATM   22  N1  LIG X 999      39.716 127.221  24.624  1.00  0.00    -0.073 NA
HETATM   23  N2  LIG X 999      38.988 126.234  24.501  1.00  0.00    -0.162 NA
HETATM   24  N3  LIG X 999      38.261 125.249  24.378  1.00  0.00     0.068 N 
ENDBRANCH   9  22
ENDBRANCH   4   7
ENDBRANCH   3   4
TORSDOF 3
