REMARK VINA RESULT:      -5.4      7.170      8.760
REMARK  1 active torsions:
REMARK  status: ('A' for Active; 'I' for Inactive)
REMARK    1  A    between atoms: N1_2  and  C1_3 
ROOT
HETATM    1  C1  LIG X 999      41.847 128.555  23.690  1.00  0.00     0.120 C 
HETATM    2  C2  LIG X 999      42.645 127.415  23.799  1.00  0.00     0.057 C 
HETATM    3  C3  LIG X 999      42.067 126.167  24.073  1.00  0.00    -0.045 C 
HETATM    4  C4  LIG X 999      43.021 125.070  24.476  1.00  0.00     0.049 C 
HETATM    5  C5  LIG X 999      40.641 126.046  24.095  1.00  0.00     0.008 C 
HETATM    6  C6  LIG X 999      39.917 124.808  24.147  1.00  0.00    -0.013 C 
HETATM    7  C7  LIG X 999      40.479 123.560  23.784  1.00  0.00     0.013 C 
HETATM    8  C8  LIG X 999      39.748 122.377  23.906  1.00  0.00     0.001 C 
HETATM    9  C9  LIG X 999      38.427 122.408  24.343  1.00  0.00     0.001 C 
HETATM   10  C10 LIG X 999      37.812 123.629  24.605  1.00  0.00     0.012 C 
HETATM   11  C11 LIG X 999      38.531 124.829  24.472  1.00  0.00    -0.025 C 
HETATM   12  C12 LIG X 999      37.858 126.045  24.607  1.00  0.00     0.014 C 
HETATM   13  C13 LIG X 999      38.519 127.241  24.371  1.00  0.00     0.031 C 
HETATM   14  C14 LIG X 999      39.893 127.260  24.107  1.00  0.00     0.045 C 
HETATM   15  N2  LIG X 999      40.507 128.458  23.883  1.00  0.00    -0.341 N 
HETATM   16  H12 LIG X 999      39.935 129.335  23.857  1.00  0.00     0.167 HD
ENDROOT
BRANCH   1  17
HETATM   17  N1  LIG X 999      42.379 129.712  23.448  1.00  0.00    -0.284 NA
HETATM   18  H1  LIG X 999      41.990 130.375  22.740  1.00  0.00     0.188 HD
ENDBRANCH   1  17
TORSDOF 1
