REMARK VINA RESULT:      -7.2      0.000      0.000
REMARK  5 active torsions:
REMARK  status: ('A' for Active; 'I' for Inactive)
REMARK    1  A    between atoms: O1_2  and  C1_3 
REMARK    2  A    between atoms: C1_3  and  C13_17 
REMARK    3  A    between atoms: N1_4  and  C2_5 
REMARK    4  A    between atoms: C3_6  and  O2_7 
REMARK    5  A    between atoms: C13_17  and  C15_19 
ROOT
HETATM    1  C2  LIG X 999      44.551 131.606  17.244  1.00  0.00     0.103 A 
HETATM    2  C3  LIG X 999      43.275 131.914  16.726  1.00  0.00     0.097 A 
HETATM    3  C5  LIG X 999      42.185 132.054  17.605  1.00  0.00     0.040 A 
HETATM    4  C6  LIG X 999      42.349 131.860  18.976  1.00  0.00     0.015 A 
HETATM    5  C7  LIG X 999      43.600 131.515  19.497  1.00  0.00    -0.024 A 
HETATM    6  C8  LIG X 999      43.758 131.303  20.876  1.00  0.00     0.012 A 
HETATM    7  C9  LIG X 999      45.007 130.957  21.396  1.00  0.00     0.001 A 
HETATM    8  C10 LIG X 999      46.107 130.822  20.548  1.00  0.00     0.001 A 
HETATM    9  C11 LIG X 999      45.966 131.031  19.174  1.00  0.00     0.014 A 
HETATM   10  C12 LIG X 999      44.712 131.378  18.629  1.00  0.00     0.006 A 
ENDROOT
BRANCH   1  11
HETATM   11  N1  LIG X 999      45.675 131.452  16.362  1.00  0.00    -0.225 NA
HETATM   12  C1  LIG X 999      46.123 130.312  15.922  1.00  0.00     0.142 C 
BRANCH  12  13
HETATM   13  O1  LIG X 999      45.465 129.123  16.245  1.00  0.00    -0.348 OA
HETATM   14  H1  LIG X 999      44.456 129.078  16.320  1.00  0.00     0.219 HD
ENDBRANCH  12  13
BRANCH  12  15
HETATM   15  C13 LIG X 999      47.342 130.285  15.032  1.00  0.00     0.058 C 
HETATM   16  C14 LIG X 999      47.461 128.912  14.354  1.00  0.00     0.018 C 
BRANCH  15  17
HETATM   17  C15 LIG X 999      47.271 131.439  14.007  1.00  0.00     0.008 C 
HETATM   18  C16 LIG X 999      47.746 131.023  12.615  1.00  0.00     0.006 C 
ENDBRANCH  15  17
ENDBRANCH  12  15
ENDBRANCH   1  11
BRANCH   2  19
HETATM   19  O2  LIG X 999      43.122 132.049  15.337  1.00  0.00    -0.354 OA
HETATM   20  C4  LIG X 999      43.538 131.083  14.377  1.00  0.00     0.210 C 
ENDBRANCH   2  19
TORSDOF 5
