REMARK VINA RESULT:      -6.0      3.333      7.997
REMARK  2 active torsions:
REMARK  status: ('A' for Active; 'I' for Inactive)
REMARK    1  A    between atoms: C9_10  and  N2_11 
REMARK       I    between atoms: N2_11  and  C10_12 
REMARK    2  A    between atoms: C10_12  and  C11_14 
ROOT
HETATM    1  C11 LIG X 999      43.045 130.707  24.264  1.00  0.00     0.282 C 
HETATM    2 CL1  LIG X 999      42.228 132.252  24.609  1.00  0.00    -0.099 Cl
HETATM    3  C12 LIG X 999      42.105 129.600  24.464  1.00  0.00     0.089 C 
HETATM    4  N3  LIG X 999      41.362 128.726  24.622  1.00  0.00    -0.195 NA
ENDROOT
BRANCH   1   5
HETATM    5  C10 LIG X 999      43.561 130.694  22.858  1.00  0.00     0.276 C 
HETATM    6  N2  LIG X 999      43.115 131.699  21.938  1.00  0.00    -0.212 NA
HETATM    7  O1  LIG X 999      44.435 129.852  22.517  1.00  0.00    -0.268 OA
BRANCH   6   8
HETATM    8  C9  LIG X 999      43.307 131.698  20.516  1.00  0.00     0.061 A 
HETATM    9  C8  LIG X 999      42.225 132.040  19.695  1.00  0.00     0.032 A 
HETATM   10  C7  LIG X 999      42.356 132.037  18.303  1.00  0.00     0.014 A 
HETATM   11  C6  LIG X 999      43.571 131.672  17.710  1.00  0.00    -0.025 A 
HETATM   12  C5  LIG X 999      43.713 131.666  16.309  1.00  0.00     0.021 A 
HETATM   13  C14 LIG X 999      44.669 131.297  18.534  1.00  0.00    -0.023 A 
HETATM   14  C4  LIG X 999      44.937 131.280  15.763  1.00  0.00    -0.024 A 
HETATM   15  C3  LIG X 999      45.315 131.221  14.334  1.00  0.00     0.276 C 
HETATM   16  C16 LIG X 999      45.987 130.918  16.550  1.00  0.00    -0.024 A 
HETATM   17  N1  LIG X 999      46.686 130.620  14.304  1.00  0.00    -0.067 N 
HETATM   18  C1  LIG X 999      46.625 129.244  13.754  1.00  0.00     0.272 C 
HETATM   19  C2  LIG X 999      47.595 131.433  13.467  1.00  0.00     0.272 C 
HETATM   20  C17 LIG X 999      47.165 130.582  15.722  1.00  0.00     0.276 C 
HETATM   21  C15 LIG X 999      45.891 130.917  17.943  1.00  0.00     0.021 A 
HETATM   22  C13 LIG X 999      44.525 131.306  19.930  1.00  0.00     0.044 A 
ENDBRANCH   6   8
ENDBRANCH   1   5
TORSDOF 2
