REMARK VINA RESULT:      -4.0      9.372     10.477
REMARK  2 active torsions:
REMARK  status: ('A' for Active; 'I' for Inactive)
REMARK       I    between atoms: N1_1  and  C1_2 
REMARK    1  A    between atoms: C1_2  and  C2_4 
REMARK    2  A    between atoms: C11_13  and  O2_14 
ROOT
HETATM    1  C2  LIG X 999      50.543 123.162  19.792  1.00  0.00     0.116 C 
HETATM    2  C3  LIG X 999      49.053 123.503  19.543  1.00  0.00     0.017 C 
HETATM    3  C4  LIG X 999      48.203 123.334  20.813  1.00  0.00     0.002 C 
HETATM    4  C5  LIG X 999      48.775 124.133  21.995  1.00  0.00     0.012 C 
HETATM    5  C6  LIG X 999      50.240 123.738  22.230  1.00  0.00     0.047 C 
HETATM    6  C7  LIG X 999      50.844 124.397  23.446  1.00  0.00    -0.019 C 
HETATM    7  C8  LIG X 999      52.175 124.396  23.594  1.00  0.00    -0.004 C 
HETATM    8  C9  LIG X 999      53.048 123.885  22.514  1.00  0.00    -0.001 C 
HETATM    9  C10 LIG X 999      52.552 123.649  21.289  1.00  0.00     0.012 C 
HETATM   10  C11 LIG X 999      51.108 124.013  20.965  1.00  0.00     0.095 C 
ENDROOT
BRANCH   1  11
HETATM   11  C1  LIG X 999      51.334 123.350  18.517  1.00  0.00     0.222 C 
HETATM   12  N1  LIG X 999      51.387 124.627  17.880  1.00  0.00    -0.370 N 
HETATM   13  H1  LIG X 999      50.880 125.448  18.279  1.00  0.00     0.159 HD
HETATM   14  H2  LIG X 999      51.931 124.752  16.998  1.00  0.00     0.159 HD
HETATM   15  O1  LIG X 999      51.942 122.375  17.998  1.00  0.00    -0.273 OA
ENDBRANCH   1  11
BRANCH  10  16
HETATM   16  O2  LIG X 999      51.042 125.378  20.601  1.00  0.00    -0.384 OA
HETATM   17  H15 LIG X 999      50.101 125.611  20.392  1.00  0.00     0.211 HD
ENDBRANCH  10  16
TORSDOF 2
