REMARK VINA RESULT:      -6.9      1.819      7.152
REMARK  5 active torsions:
REMARK  status: ('A' for Active; 'I' for Inactive)
REMARK    1  A    between atoms: C3_3  and  O1_4 
REMARK    2  A    between atoms: O1_4  and  C4_5 
REMARK    3  A    between atoms: C4_5  and  O2_6 
REMARK    4  A    between atoms: C5_8  and  C6_9 
REMARK    5  A    between atoms: C11_14  and  O3_15 
ROOT
HETATM    1  C1  LIG X 999      47.608 129.502  14.149  1.00  0.00     0.014 C 
HETATM    2  C2  LIG X 999      46.522 129.486  14.671  1.00  0.00    -0.091 C 
HETATM    3  C3  LIG X 999      45.203 129.469  15.306  1.00  0.00     0.270 C 
ENDROOT
BRANCH   3   4
HETATM    4  O1  LIG X 999      45.246 130.261  16.486  1.00  0.00    -0.319 OA
BRANCH   4   5
HETATM    5  C4  LIG X 999      45.507 131.638  16.492  1.00  0.00     0.179 C 
HETATM    6  C5  LIG X 999      45.194 132.381  17.559  1.00  0.00     0.075 C 
BRANCH   5   7
HETATM    7  O2  LIG X 999      46.068 132.272  15.381  1.00  0.00    -0.341 OA
HETATM    8  H4  LIG X 999      46.582 133.141  15.452  1.00  0.00     0.220 HD
ENDBRANCH   5   7
BRANCH   6   9
HETATM    9  C6  LIG X 999      44.601 131.843  18.803  1.00  0.00    -0.031 A 
HETATM   10  C7  LIG X 999      43.352 132.328  19.222  1.00  0.00     0.012 A 
HETATM   11  C8  LIG X 999      42.763 131.859  20.399  1.00  0.00     0.013 A 
HETATM   12  C9  LIG X 999      43.424 130.907  21.188  1.00  0.00    -0.023 A 
HETATM   13  C10 LIG X 999      42.839 130.430  22.371  1.00  0.00     0.049 A 
HETATM   14  C15 LIG X 999      44.694 130.431  20.791  1.00  0.00    -0.025 A 
HETATM   15  C11 LIG X 999      43.504 129.487  23.163  1.00  0.00     0.069 A 
HETATM   16  C13 LIG X 999      44.770 129.018  22.764  1.00  0.00     0.037 A 
HETATM   17  C14 LIG X 999      45.360 129.489  21.588  1.00  0.00     0.015 A 
HETATM   18  C16 LIG X 999      45.279 130.909  19.609  1.00  0.00     0.024 A 
BRANCH  15  19
HETATM   19  O3  LIG X 999      42.874 129.042  24.336  1.00  0.00    -0.356 OA
HETATM   20  C12 LIG X 999      41.629 128.349  24.367  1.00  0.00     0.210 C 
ENDBRANCH  15  19
ENDBRANCH   6   9
ENDBRANCH   4   5
ENDBRANCH   3   4
TORSDOF 5
