REMARK VINA RESULT:      -7.7      1.585      6.060
REMARK  1 active torsions:
REMARK  status: ('A' for Active; 'I' for Inactive)
REMARK    1  A    between atoms: C3_3  and  N1_4 
ROOT
HETATM    1  N1  LIG X 999      44.804 130.810  22.002  1.00  0.00    -0.072 NA
HETATM    2  N2  LIG X 999      44.591 129.708  22.508  1.00  0.00    -0.162 NA
HETATM    3  N3  LIG X 999      44.378 128.608  23.018  1.00  0.00     0.068 N 
ENDROOT
BRANCH   1   4
HETATM    4  C3  LIG X 999      43.866 131.441  21.119  1.00  0.00     0.104 A 
HETATM    5  C2  LIG X 999      42.764 132.083  21.700  1.00  0.00     0.035 A 
HETATM    6  C1  LIG X 999      41.768 132.655  20.910  1.00  0.00     0.003 A 
HETATM    7  C10 LIG X 999      41.858 132.608  19.521  1.00  0.00     0.012 A 
HETATM    8  C9  LIG X 999      42.966 132.013  18.904  1.00  0.00    -0.023 A 
HETATM    9  C4  LIG X 999      44.003 131.435  19.703  1.00  0.00     0.006 A 
HETATM   10  C8  LIG X 999      43.068 132.008  17.500  1.00  0.00     0.021 A 
HETATM   11  C5  LIG X 999      45.153 130.923  19.056  1.00  0.00     0.024 A 
HETATM   12  C6  LIG X 999      45.209 130.933  17.663  1.00  0.00    -0.023 A 
HETATM   13  C7  LIG X 999      44.199 131.448  16.912  1.00  0.00    -0.024 A 
HETATM   14  C14 LIG X 999      46.316 130.475  16.796  1.00  0.00     0.276 C 
HETATM   15  C11 LIG X 999      44.534 131.379  15.472  1.00  0.00     0.276 C 
HETATM   16  N4  LIG X 999      45.810 130.600  15.393  1.00  0.00    -0.067 N 
HETATM   17  C12 LIG X 999      46.797 131.297  14.539  1.00  0.00     0.272 C 
HETATM   18  C13 LIG X 999      45.547 129.255  14.827  1.00  0.00     0.272 C 
ENDBRANCH   1   4
TORSDOF 1
