REMARK VINA RESULT:      -7.8      0.000      0.000
REMARK  1 active torsions:
REMARK  status: ('A' for Active; 'I' for Inactive)
REMARK    1  A    between atoms: C5_8  and  O1_9 
ROOT
HETATM    1  H1  LIG X 999      47.555 129.580  17.464  1.00  0.00     0.187 HD
HETATM    2  N1  LIG X 999      46.856 129.895  16.758  1.00  0.00    -0.300 NA
HETATM    3  C1  LIG X 999      45.746 130.486  17.073  1.00  0.00     0.059 A 
HETATM    4  C2  LIG X 999      44.799 130.904  15.985  1.00  0.00     0.034 A 
HETATM    5  C3  LIG X 999      43.631 131.522  16.270  1.00  0.00     0.035 A 
HETATM    6  C4  LIG X 999      43.301 131.780  17.682  1.00  0.00     0.071 A 
HETATM    7  N2  LIG X 999      42.204 132.378  18.204  1.00  0.00    -0.224 NA
HETATM    8  C5  LIG X 999      42.417 132.352  19.552  1.00  0.00     0.174 A 
HETATM    9  C6  LIG X 999      43.627 131.749  19.857  1.00  0.00     0.030 A 
HETATM   10  C7  LIG X 999      44.308 131.473  21.042  1.00  0.00     0.017 A 
HETATM   11  C8  LIG X 999      45.562 130.822  20.936  1.00  0.00     0.002 A 
HETATM   12  C9  LIG X 999      46.094 130.469  19.664  1.00  0.00     0.015 A 
HETATM   13  C10 LIG X 999      45.365 130.770  18.491  1.00  0.00     0.005 A 
HETATM   14  C11 LIG X 999      44.153 131.404  18.664  1.00  0.00     0.020 A 
ENDROOT
BRANCH   8  15
HETATM   15  O1  LIG X 999      41.525 132.869  20.485  1.00  0.00    -0.344 OA
HETATM   16  H4  LIG X 999      41.731 133.734  20.969  1.00  0.00     0.219 HD
ENDBRANCH   8  15
TORSDOF 1
