REMARK VINA RESULT:      -6.3      1.230      2.000
REMARK  6 active torsions:
REMARK  status: ('A' for Active; 'I' for Inactive)
REMARK    1  A    between atoms: S1_2  and  C1_3 
REMARK    2  A    between atoms: C1_3  and  N2_15 
REMARK    3  A    between atoms: N1_4  and  C2_5 
REMARK    4  A    between atoms: N2_15  and  C12_17 
REMARK    5  A    between atoms: C12_17  and  C13_18 
REMARK    6  A    between atoms: C13_18  and  C14_19 
ROOT
HETATM    1  C2  LIG X 999      44.696 131.244  16.622  1.00  0.00     0.060 A 
HETATM    2  C3  LIG X 999      45.050 132.448  16.002  1.00  0.00     0.032 A 
HETATM    3  C4  LIG X 999      46.011 132.469  14.989  1.00  0.00     0.014 A 
HETATM    4  C5  LIG X 999      46.650 131.284  14.597  1.00  0.00    -0.026 A 
HETATM    5  C6  LIG X 999      47.618 131.292  13.581  1.00  0.00     0.012 A 
HETATM    6  C7  LIG X 999      48.254 130.105  13.208  1.00  0.00     0.001 A 
HETATM    7  C8  LIG X 999      47.934 128.904  13.847  1.00  0.00     0.001 A 
HETATM    8  C9  LIG X 999      46.973 128.883  14.862  1.00  0.00     0.012 A 
HETATM    9  C10 LIG X 999      46.323 130.066  15.243  1.00  0.00    -0.024 A 
HETATM   10  C11 LIG X 999      45.357 130.058  16.261  1.00  0.00     0.044 A 
ENDROOT
BRANCH   1  11
HETATM   11  N1  LIG X 999      43.738 131.270  17.691  1.00  0.00    -0.225 NA
HETATM   12  C1  LIG X 999      43.944 131.668  18.914  1.00  0.00     0.160 C 
BRANCH  12  13
HETATM   13  S1  LIG X 999      42.536 131.707  20.024  1.00  0.00    -0.105 SA
HETATM   14  H1  LIG X 999      43.115 130.748  20.877  1.00  0.00     0.110 HD
ENDBRANCH  12  13
BRANCH  12  15
HETATM   15  N2  LIG X 999      45.265 131.986  19.393  1.00  0.00    -0.369 N 
HETATM   16  H9  LIG X 999      45.957 132.420  18.743  1.00  0.00     0.161 HD
BRANCH  15  17
HETATM   17  C12 LIG X 999      45.759 131.569  20.702  1.00  0.00     0.122 C 
BRANCH  17  18
HETATM   18  C13 LIG X 999      45.413 130.096  20.953  1.00  0.00     0.030 C 
BRANCH  18  19
HETATM   19  C14 LIG X 999      44.656 129.896  22.269  1.00  0.00     0.088 C 
HETATM   20  S2  LIG X 999      44.730 128.198  22.809  1.00  0.00    -0.098 SA
ENDBRANCH  18  19
ENDBRANCH  17  18
ENDBRANCH  15  17
ENDBRANCH  12  15
ENDBRANCH   1  11
TORSDOF 6
