REMARK VINA RESULT:      -4.7      7.250      8.937
REMARK  1 active torsions:
REMARK  status: ('A' for Active; 'I' for Inactive)
REMARK    1  A    between atoms: C4_4  and  N1_5 
ROOT
HETATM    1  C1  LIG X 999      43.542 122.541  23.189  1.00  0.00     0.049 C 
HETATM    2  C2  LIG X 999      43.376 124.031  23.013  1.00  0.00    -0.045 C 
HETATM    3  C3  LIG X 999      44.515 124.732  22.585  1.00  0.00     0.057 C 
HETATM    4  C4  LIG X 999      44.551 126.122  22.649  1.00  0.00     0.122 C 
HETATM    5  N2  LIG X 999      43.493 126.796  23.159  1.00  0.00    -0.231 NA
HETATM    6  C5  LIG X 999      42.350 126.171  23.544  1.00  0.00     0.070 C 
HETATM    7  C6  LIG X 999      41.338 126.938  24.120  1.00  0.00     0.033 C 
HETATM    8  C7  LIG X 999      40.155 126.344  24.538  1.00  0.00     0.014 C 
HETATM    9  C8  LIG X 999      39.917 124.991  24.286  1.00  0.00    -0.025 C 
HETATM   10  C9  LIG X 999      38.670 124.440  24.623  1.00  0.00     0.012 C 
HETATM   11  C10 LIG X 999      38.359 123.131  24.264  1.00  0.00     0.001 C 
HETATM   12  C11 LIG X 999      39.271 122.377  23.533  1.00  0.00     0.001 C 
HETATM   13  C12 LIG X 999      40.521 122.907  23.203  1.00  0.00     0.013 C 
HETATM   14  C13 LIG X 999      40.910 124.193  23.645  1.00  0.00    -0.013 C 
HETATM   15  C14 LIG X 999      42.202 124.764  23.385  1.00  0.00     0.010 C 
ENDROOT
BRANCH   4  16
HETATM   16  N1  LIG X 999      45.717 126.839  22.241  1.00  0.00    -0.384 N 
HETATM   17  H5  LIG X 999      46.068 127.653  22.794  1.00  0.00     0.157 HD
HETATM   18  H6  LIG X 999      46.237 126.552  21.383  1.00  0.00     0.157 HD
ENDBRANCH   4  16
TORSDOF 1
