REMARK VINA RESULT:      -4.0      4.188      7.324
REMARK  5 active torsions:
REMARK  status: ('A' for Active; 'I' for Inactive)
REMARK    1  A    between atoms: C3_3  and  C4_4 
REMARK    2  A    between atoms: C4_4  and  S1_5 
REMARK    3  A    between atoms: S1_5  and  C5_6 
REMARK    4  A    between atoms: C6_7  and  N1_8 
REMARK    5  A    between atoms: C10_12  and  N2_13 
ROOT
HETATM    1  C1  LIG X 999      51.768 125.504  21.843  1.00  0.00     0.112 C 
HETATM    2  C2  LIG X 999      50.411 125.519  22.389  1.00  0.00    -0.110 C 
HETATM    3  C3  LIG X 999      49.294 125.552  22.839  1.00  0.00    -0.097 C 
ENDROOT
BRANCH   3   4
HETATM    4  C4  LIG X 999      47.937 125.620  23.390  1.00  0.00     0.173 C 
BRANCH   4   5
HETATM    5  S1  LIG X 999      46.708 125.164  22.119  1.00  0.00    -0.115 SA
BRANCH   5   6
HETATM    6  C5  LIG X 999      45.303 125.934  22.970  1.00  0.00     0.038 A 
HETATM    7  C6  LIG X 999      44.589 125.200  23.942  1.00  0.00     0.043 A 
HETATM    8  C7  LIG X 999      43.529 125.801  24.624  1.00  0.00     0.031 A 
HETATM    9  C8  LIG X 999      43.171 127.122  24.376  1.00  0.00     0.017 A 
HETATM   10  C9  LIG X 999      43.861 127.890  23.420  1.00  0.00     0.002 A 
HETATM   11  C10 LIG X 999      43.518 129.251  23.162  1.00  0.00     0.045 A 
HETATM   12  C14 LIG X 999      44.918 127.271  22.676  1.00  0.00    -0.004 A 
HETATM   13  C11 LIG X 999      44.211 129.928  22.149  1.00  0.00     0.003 A 
HETATM   14  C12 LIG X 999      45.190 129.325  21.426  1.00  0.00    -0.021 A 
HETATM   15  C18 LIG X 999      44.042 131.333  21.699  1.00  0.00     0.278 C 
HETATM   16  C13 LIG X 999      45.563 128.007  21.656  1.00  0.00     0.023 A 
HETATM   17  C15 LIG X 999      45.761 130.251  20.425  1.00  0.00     0.276 C 
HETATM   18  N3  LIG X 999      45.121 131.577  20.689  1.00  0.00    -0.067 N 
HETATM   19  C16 LIG X 999      44.551 132.139  19.444  1.00  0.00     0.272 C 
HETATM   20  C17 LIG X 999      46.123 132.526  21.232  1.00  0.00     0.272 C 
BRANCH   7  21
HETATM   21  N1  LIG X 999      44.920 123.838  24.252  1.00  0.00    -0.398 N 
HETATM   22  H6  LIG X 999      44.192 123.187  24.620  1.00  0.00     0.156 HD
HETATM   23  H7  LIG X 999      45.879 123.449  24.121  1.00  0.00     0.156 HD
ENDBRANCH   7  21
BRANCH  11  24
HETATM   24  N2  LIG X 999      42.511 129.950  23.913  1.00  0.00    -0.398 N 
HETATM   25  H10 LIG X 999      42.518 130.983  24.039  1.00  0.00     0.156 HD
HETATM   26  H11 LIG X 999      41.666 129.449  24.267  1.00  0.00     0.156 HD
ENDBRANCH  11  24
ENDBRANCH   5   6
ENDBRANCH   4   5
ENDBRANCH   3   4
TORSDOF 5
