REMARK VINA RESULT:      -3.6      4.910      7.059
REMARK  3 active torsions:
REMARK  status: ('A' for Active; 'I' for Inactive)
REMARK    1  A    between atoms: C2_2  and  N1_3 
REMARK    2  A    between atoms: C3_6  and  O1_7 
REMARK    3  A    between atoms: O1_7  and  C4_8 
REMARK       I    between atoms: C4_8  and  N4_10 
ROOT
HETATM    1  N1  LIG X 999      45.950 130.826  20.146  1.00  0.00    -0.070 NA
HETATM    2  N2  LIG X 999      45.750 130.772  18.931  1.00  0.00    -0.162 NA
HETATM    3  N3  LIG X 999      45.551 130.719  17.718  1.00  0.00     0.068 N 
ENDROOT
BRANCH   1   4
HETATM    4  C2  LIG X 999      45.473 129.820  21.051  1.00  0.00     0.128 A 
HETATM    5  C1  LIG X 999      45.830 128.466  20.895  1.00  0.00     0.049 A 
HETATM    6  C13 LIG X 999      45.356 127.499  21.791  1.00  0.00    -0.023 A 
HETATM    7  C8  LIG X 999      44.516 127.891  22.870  1.00  0.00    -0.022 A 
HETATM    8  C12 LIG X 999      45.714 126.145  21.639  1.00  0.00     0.021 A 
HETATM    9  C7  LIG X 999      44.166 129.238  23.020  1.00  0.00     0.052 A 
HETATM   10  C9  LIG X 999      44.051 126.923  23.782  1.00  0.00     0.021 A 
HETATM   11  C3  LIG X 999      44.626 130.203  22.105  1.00  0.00     0.113 A 
HETATM   12  C10 LIG X 999      44.423 125.591  23.592  1.00  0.00    -0.024 A 
HETATM   13  C11 LIG X 999      45.224 125.216  22.558  1.00  0.00    -0.024 A 
HETATM   14  C17 LIG X 999      44.073 124.424  24.429  1.00  0.00     0.276 C 
HETATM   15  C14 LIG X 999      45.487 123.761  22.605  1.00  0.00     0.276 C 
HETATM   16  N5  LIG X 999      44.619 123.232  23.706  1.00  0.00    -0.067 N 
HETATM   17  C15 LIG X 999      43.508 122.433  23.135  1.00  0.00     0.272 C 
HETATM   18  C16 LIG X 999      45.404 122.377  24.625  1.00  0.00     0.272 C 
BRANCH  11  19
HETATM   19  O1  LIG X 999      44.296 131.561  22.238  1.00  0.00    -0.259 OA
BRANCH  19  20
HETATM   20  C4  LIG X 999      42.994 132.080  22.294  1.00  0.00     0.367 C 
HETATM   21  O2  LIG X 999      42.366 132.113  23.388  1.00  0.00    -0.238 OA
HETATM   22  N4  LIG X 999      42.354 132.524  21.085  1.00  0.00    -0.336 N 
HETATM   23  C5  LIG X 999      43.086 132.452  19.819  1.00  0.00     0.154 C 
HETATM   24  C6  LIG X 999      40.986 133.048  21.134  1.00  0.00     0.154 C 
ENDBRANCH  19  20
ENDBRANCH  11  19
ENDBRANCH   1   4
TORSDOF 3
