REMARK VINA RESULT:      -4.5      2.853      5.494
REMARK  5 active torsions:
REMARK  status: ('A' for Active; 'I' for Inactive)
REMARK    1  A    between atoms: C3_3  and  O1_4 
REMARK    2  A    between atoms: O1_4  and  C4_5 
REMARK    3  A    between atoms: C5_6  and  C6_7 
REMARK    4  A    between atoms: C6_7  and  O2_8 
REMARK    5  A    between atoms: C17_20  and  N1_21 
ROOT
HETATM    1  C1  LIG X 999      42.853 131.757  23.416  1.00  0.00     0.014 C 
HETATM    2  C2  LIG X 999      42.753 130.647  23.874  1.00  0.00    -0.091 C 
HETATM    3  C3  LIG X 999      42.631 129.299  24.428  1.00  0.00     0.268 C 
ENDROOT
BRANCH   3   4
HETATM    4  O1  LIG X 999      42.469 128.367  23.365  1.00  0.00    -0.337 OA
BRANCH   4   5
HETATM    5  C4  LIG X 999      43.235 127.199  23.302  1.00  0.00     0.106 C 
HETATM    6  C5  LIG X 999      44.605 127.276  22.984  1.00  0.00     0.012 C 
HETATM    7  C7  LIG X 999      45.332 126.077  22.766  1.00  0.00    -0.014 C 
HETATM    8  C8  LIG X 999      46.670 126.109  22.304  1.00  0.00     0.013 C 
HETATM    9  C12 LIG X 999      44.698 124.815  22.963  1.00  0.00    -0.012 C 
HETATM   10  C9  LIG X 999      47.331 124.937  21.947  1.00  0.00     0.001 C 
HETATM   11  C10 LIG X 999      46.666 123.720  22.004  1.00  0.00     0.001 C 
HETATM   12  C11 LIG X 999      45.359 123.660  22.482  1.00  0.00     0.013 C 
HETATM   13  C13 LIG X 999      43.391 124.763  23.538  1.00  0.00     0.011 C 
HETATM   14  C14 LIG X 999      42.796 123.589  24.100  1.00  0.00    -0.045 C 
HETATM   15  C18 LIG X 999      42.630 125.961  23.587  1.00  0.00     0.080 C 
HETATM   16  C15 LIG X 999      43.574 122.375  24.549  1.00  0.00     0.049 C 
HETATM   17  C16 LIG X 999      41.430 123.593  24.406  1.00  0.00     0.061 C 
HETATM   18  C17 LIG X 999      40.686 124.770  24.298  1.00  0.00     0.165 C 
HETATM   19  N4  LIG X 999      41.309 125.920  23.940  1.00  0.00    -0.336 N 
HETATM   20  H15 LIG X 999      40.734 126.794  23.947  1.00  0.00     0.168 HD
BRANCH   6  21
HETATM   21  C6  LIG X 999      45.264 128.636  22.838  1.00  0.00     0.206 C 
BRANCH  21  22
HETATM   22  O2  LIG X 999      45.021 129.139  21.553  1.00  0.00    -0.396 OA
HETATM   23  H6  LIG X 999      45.881 129.526  21.240  1.00  0.00     0.209 HD
ENDBRANCH  21  22
ENDBRANCH   6  21
BRANCH  18  24
HETATM   24  N1  LIG X 999      39.288 124.807  24.625  1.00  0.00    -0.054 NA
HETATM   25  N2  LIG X 999      38.564 123.814  24.544  1.00  0.00    -0.160 NA
HETATM   26  N3  LIG X 999      37.839 122.823  24.464  1.00  0.00     0.068 N 
ENDBRANCH  18  24
ENDBRANCH   4   5
ENDBRANCH   3   4
TORSDOF 5
