REMARK VINA RESULT:      -4.0      5.030      8.876
REMARK  4 active torsions:
REMARK  status: ('A' for Active; 'I' for Inactive)
REMARK    1  A    between atoms: C3_3  and  C4_4 
REMARK    2  A    between atoms: C4_4  and  C5_5 
REMARK    3  A    between atoms: C5_5  and  N1_6 
REMARK    4  A    between atoms: N4_15  and  C12_16 
ROOT
HETATM    1  C12 LIG X 999      45.755 126.474  22.582  1.00  0.00     0.055 A 
HETATM    2  C13 LIG X 999      46.055 127.485  21.654  1.00  0.00     0.032 A 
HETATM    3  C14 LIG X 999      45.374 128.704  21.689  1.00  0.00     0.014 A 
HETATM    4  C15 LIG X 999      44.390 128.936  22.661  1.00  0.00    -0.024 A 
HETATM    5  C16 LIG X 999      43.699 130.157  22.703  1.00  0.00     0.034 A 
HETATM    6  C17 LIG X 999      42.724 130.380  23.683  1.00  0.00     0.045 A 
HETATM    7  C18 LIG X 999      42.017 131.634  23.723  1.00  0.00     0.099 C 
HETATM    8  N5  LIG X 999      41.448 132.641  23.756  1.00  0.00    -0.191 NA
HETATM    9  C19 LIG X 999      42.436 129.384  24.625  1.00  0.00     0.023 A 
HETATM   10  C20 LIG X 999      43.119 128.165  24.591  1.00  0.00     0.014 A 
HETATM   11  C21 LIG X 999      44.097 127.930  23.614  1.00  0.00    -0.024 A 
HETATM   12  C22 LIG X 999      44.788 126.710  23.570  1.00  0.00     0.043 A 
ENDROOT
BRANCH   1  13
HETATM   13  N4  LIG X 999      46.466 125.226  22.566  1.00  0.00    -0.241 N 
HETATM   14  C2  LIG X 999      47.716 124.961  23.004  1.00  0.00     0.055 A 
HETATM   15  C1  LIG X 999      48.675 125.951  23.597  1.00  0.00     0.072 C 
HETATM   16  C3  LIG X 999      47.924 123.609  22.794  1.00  0.00     0.078 A 
HETATM   17  N2  LIG X 999      46.809 123.099  22.235  1.00  0.00    -0.162 NA
HETATM   18  N3  LIG X 999      45.950 124.099  22.098  1.00  0.00     0.010 NA
BRANCH  16  19
HETATM   19  C4  LIG X 999      49.101 122.775  23.211  1.00  0.00     0.093 C 
BRANCH  19  20
HETATM   20  C5  LIG X 999      49.944 122.375  21.995  1.00  0.00     0.279 C 
BRANCH  20  21
HETATM   21  N1  LIG X 999      50.010 123.490  21.025  1.00  0.00     0.093 N 
HETATM   22  C6  LIG X 999      49.491 123.120  19.694  1.00  0.00     0.273 C 
HETATM   23  C7  LIG X 999      50.601 123.328  18.679  1.00  0.00     0.036 C 
HETATM   24  C8  LIG X 999      51.536 124.313  19.349  1.00  0.00     0.016 C 
HETATM   25  C9  LIG X 999      52.978 124.185  18.844  1.00  0.00     0.012 C 
HETATM   26  C10 LIG X 999      51.385 123.985  20.837  1.00  0.00     0.222 C 
HETATM   27  C11 LIG X 999      51.613 125.217  21.719  1.00  0.00     0.043 C 
ENDBRANCH  20  21
ENDBRANCH  19  20
ENDBRANCH  16  19
ENDBRANCH   1  13
TORSDOF 4
