REMARK VINA RESULT:      -8.0      2.257      7.183
REMARK  4 active torsions:
REMARK  status: ('A' for Active; 'I' for Inactive)
REMARK       I    between atoms: N1_1  and  C1_2 
REMARK    1  A    between atoms: C1_2  and  C2_4 
REMARK    2  A    between atoms: C11_13  and  O2_14 
REMARK    3  A    between atoms: O2_14  and  C12_15 
REMARK    4  A    between atoms: C12_15  and  C13_17 
ROOT
HETATM    1  C2  LIG X 999      44.544 131.502  17.910  1.00  0.00     0.068 A 
HETATM    2  C3  LIG X 999      43.665 131.971  18.906  1.00  0.00     0.032 A 
HETATM    3  C4  LIG X 999      43.779 131.534  20.232  1.00  0.00    -0.025 A 
HETATM    4  C5  LIG X 999      42.898 132.006  21.220  1.00  0.00     0.012 A 
HETATM    5  C6  LIG X 999      43.025 131.571  22.541  1.00  0.00     0.001 A 
HETATM    6  C7  LIG X 999      44.031 130.666  22.888  1.00  0.00     0.001 A 
HETATM    7  C8  LIG X 999      44.913 130.190  21.915  1.00  0.00     0.012 A 
HETATM    8  C9  LIG X 999      44.793 130.617  20.583  1.00  0.00    -0.023 A 
HETATM    9  C10 LIG X 999      45.672 130.147  19.600  1.00  0.00     0.050 A 
HETATM   10  C11 LIG X 999      45.549 130.568  18.263  1.00  0.00     0.096 A 
ENDROOT
BRANCH  10  11
HETATM   11  O2  LIG X 999      46.450 130.111  17.287  1.00  0.00    -0.274 OA
BRANCH  11  12
HETATM   12  C12 LIG X 999      46.095 129.501  16.075  1.00  0.00     0.298 C 
HETATM   13  O3  LIG X 999      45.119 128.703  16.024  1.00  0.00    -0.259 OA
BRANCH  12  14
HETATM   14  C13 LIG X 999      46.834 129.847  14.841  1.00  0.00     0.039 A 
HETATM   15  C14 LIG X 999      47.956 129.093  14.451  1.00  0.00     0.017 A 
HETATM   16  C15 LIG X 999      48.656 129.418  13.284  1.00  0.00     0.001 A 
HETATM   17  C16 LIG X 999      48.244 130.494  12.496  1.00  0.00     0.000 A 
HETATM   18  C17 LIG X 999      47.131 131.249  12.873  1.00  0.00     0.001 A 
HETATM   19  C18 LIG X 999      46.428 130.929  14.038  1.00  0.00     0.017 A 
ENDBRANCH  12  14
ENDBRANCH  11  12
ENDBRANCH  10  11
BRANCH   1  20
HETATM   20  C1  LIG X 999      44.379 131.995  16.514  1.00  0.00     0.273 C 
HETATM   21  N1  LIG X 999      45.382 132.790  15.885  1.00  0.00    -0.263 NA
HETATM   22  H1  LIG X 999      45.263 133.132  14.905  1.00  0.00     0.190 HD
HETATM   23  O1  LIG X 999      43.341 131.704  15.860  1.00  0.00    -0.266 OA
ENDBRANCH   1  20
TORSDOF 4
