REMARK VINA RESULT:      -6.3      2.072      6.595
REMARK  1 active torsions:
REMARK  status: ('A' for Active; 'I' for Inactive)
REMARK    1  A    between atoms: C9_10  and  N2_11 
ROOT
HETATM    1  C1  LIG X 999      45.413 132.196  20.936  1.00  0.00     0.272 C 
HETATM    2  N1  LIG X 999      44.537 131.549  19.930  1.00  0.00    -0.067 N 
HETATM    3  C2  LIG X 999      43.198 131.333  20.524  1.00  0.00     0.272 C 
HETATM    4  C3  LIG X 999      45.136 130.247  19.491  1.00  0.00     0.276 C 
HETATM    5  C4  LIG X 999      45.600 130.470  18.104  1.00  0.00    -0.024 A 
HETATM    6  C5  LIG X 999      46.318 129.593  17.291  1.00  0.00     0.021 A 
HETATM    7  C6  LIG X 999      46.641 130.000  15.981  1.00  0.00    -0.025 A 
HETATM    8  C7  LIG X 999      47.364 129.154  15.129  1.00  0.00     0.014 A 
HETATM    9  C8  LIG X 999      47.678 129.565  13.831  1.00  0.00     0.030 A 
HETATM   10  C9  LIG X 999      47.275 130.826  13.367  1.00  0.00     0.026 A 
HETATM   11  C10 LIG X 999      46.550 131.680  14.210  1.00  0.00     0.041 A 
HETATM   12  C11 LIG X 999      46.230 131.281  15.516  1.00  0.00    -0.023 A 
HETATM   13  C12 LIG X 999      45.499 132.134  16.368  1.00  0.00     0.021 A 
HETATM   14  C13 LIG X 999      45.206 131.696  17.660  1.00  0.00    -0.024 A 
HETATM   15  C14 LIG X 999      44.441 132.407  18.706  1.00  0.00     0.276 C 
ENDROOT
BRANCH  10  16
HETATM   16  N2  LIG X 999      47.601 131.238  12.037  1.00  0.00    -0.399 N 
HETATM   17  H12 LIG X 999      46.918 131.780  11.462  1.00  0.00     0.156 HD
HETATM   18  H13 LIG X 999      48.527 131.002  11.615  1.00  0.00     0.156 HD
ENDBRANCH  10  16
TORSDOF 1
