REMARK VINA RESULT:      -7.8      1.336      5.770
REMARK  1 active torsions:
REMARK  status: ('A' for Active; 'I' for Inactive)
REMARK    1  A    between atoms: C10_11  and  N2_12 
ROOT
HETATM    1  C1  LIG X 999      43.410 129.993  22.379  1.00  0.00     0.272 C 
HETATM    2  N1  LIG X 999      44.104 131.161  21.785  1.00  0.00    -0.067 N 
HETATM    3  C2  LIG X 999      44.453 132.114  22.862  1.00  0.00     0.272 C 
HETATM    4  C3  LIG X 999      43.224 131.814  20.764  1.00  0.00     0.276 C 
HETATM    5  C4  LIG X 999      43.835 131.502  19.454  1.00  0.00    -0.024 A 
HETATM    6  C5  LIG X 999      43.343 131.808  18.189  1.00  0.00     0.021 A 
HETATM    7  C6  LIG X 999      44.103 131.444  17.059  1.00  0.00    -0.023 A 
HETATM    8  C7  LIG X 999      43.628 131.751  15.777  1.00  0.00     0.012 A 
HETATM    9  C8  LIG X 999      44.374 131.409  14.652  1.00  0.00     0.003 A 
HETATM   10  C9  LIG X 999      45.595 130.750  14.791  1.00  0.00     0.030 A 
HETATM   11  C10 LIG X 999      46.098 130.416  16.058  1.00  0.00     0.036 A 
HETATM   12  C11 LIG X 999      45.357 130.773  17.218  1.00  0.00     0.001 A 
HETATM   13  C12 LIG X 999      45.819 130.503  18.531  1.00  0.00     0.024 A 
HETATM   14  C13 LIG X 999      45.030 130.876  19.619  1.00  0.00    -0.023 A 
HETATM   15  C14 LIG X 999      45.333 130.711  21.057  1.00  0.00     0.276 C 
ENDROOT
BRANCH  11  16
HETATM   16  N2  LIG X 999      47.349 129.713  16.124  1.00  0.00    -0.398 N 
HETATM   17  H13 LIG X 999      47.794 129.412  17.016  1.00  0.00     0.156 HD
HETATM   18  H14 LIG X 999      47.827 129.409  15.246  1.00  0.00     0.156 HD
ENDBRANCH  11  16
TORSDOF 1
