REMARK VINA RESULT:      -4.8      6.303      7.833
REMARK  1 active torsions:
REMARK  status: ('A' for Active; 'I' for Inactive)
REMARK    1  A    between atoms: N1_2  and  C1_3 
ROOT
HETATM    1  C1  LIG X 999      40.747 125.038  23.090  1.00  0.00     0.120 C 
HETATM    2  C2  LIG X 999      41.179 123.900  22.409  1.00  0.00     0.057 C 
HETATM    3  C3  LIG X 999      42.524 123.764  22.034  1.00  0.00    -0.045 C 
HETATM    4  C4  LIG X 999      42.828 122.666  21.044  1.00  0.00     0.049 C 
HETATM    5  C5  LIG X 999      43.477 124.733  22.483  1.00  0.00     0.008 C 
HETATM    6  C6  LIG X 999      44.902 124.610  22.362  1.00  0.00    -0.013 C 
HETATM    7  C7  LIG X 999      45.563 123.375  22.158  1.00  0.00     0.013 C 
HETATM    8  C8  LIG X 999      46.948 123.317  21.990  1.00  0.00     0.001 C 
HETATM    9  C9  LIG X 999      47.715 124.475  22.071  1.00  0.00     0.001 C 
HETATM   10  C10 LIG X 999      47.108 125.689  22.377  1.00  0.00     0.012 C 
HETATM   11  C11 LIG X 999      45.717 125.760  22.563  1.00  0.00    -0.025 C 
HETATM   12  C12 LIG X 999      45.148 126.957  23.002  1.00  0.00     0.014 C 
HETATM   13  C13 LIG X 999      43.795 127.022  23.300  1.00  0.00     0.031 C 
HETATM   14  C14 LIG X 999      42.956 125.929  23.059  1.00  0.00     0.045 C 
HETATM   15  N2  LIG X 999      41.629 126.034  23.363  1.00  0.00    -0.341 N 
HETATM   16  H12 LIG X 999      41.271 126.905  23.821  1.00  0.00     0.167 HD
ENDROOT
BRANCH   1  17
HETATM   17  N1  LIG X 999      39.503 125.172  23.428  1.00  0.00    -0.284 NA
HETATM   18  H1  LIG X 999      39.149 125.998  23.963  1.00  0.00     0.188 HD
ENDBRANCH   1  17
TORSDOF 1
