REMARK VINA RESULT:      -4.2      3.283      5.976
REMARK  5 active torsions:
REMARK  status: ('A' for Active; 'I' for Inactive)
REMARK    1  A    between atoms: C3_3  and  N1_4 
REMARK    2  A    between atoms: N1_4  and  C6_7 
REMARK    3  A    between atoms: C6_7  and  C7_8 
REMARK    4  A    between atoms: C9_10  and  C10_11 
REMARK    5  A    between atoms: C11_14  and  N4_15 
ROOT
HETATM    1  C1  LIG X 999      44.824 131.329  18.753  1.00  0.00     0.013 C 
HETATM    2  C2  LIG X 999      44.897 131.512  19.942  1.00  0.00    -0.089 C 
HETATM    3  C3  LIG X 999      44.988 131.736  21.398  1.00  0.00     0.329 C 
ENDROOT
BRANCH   3   4
HETATM    4  N1  LIG X 999      44.487 130.585  22.210  1.00  0.00    -0.061 N 
HETATM    5  C4  LIG X 999      43.054 130.344  21.903  1.00  0.00     0.273 C 
HETATM    6  C5  LIG X 999      44.581 130.953  23.646  1.00  0.00     0.273 C 
BRANCH   4   7
HETATM    7  C6  LIG X 999      45.245 129.318  21.947  1.00  0.00     0.275 C 
BRANCH   7   8
HETATM    8  C7  LIG X 999      44.669 128.089  22.626  1.00  0.00    -0.035 C 
HETATM    9  C8  LIG X 999      44.503 126.939  21.942  1.00  0.00     0.001 C 
HETATM   10  C9  LIG X 999      44.108 125.669  22.665  1.00  0.00     0.054 C 
HETATM   11  C12 LIG X 999      43.442 124.663  21.694  1.00  0.00     0.023 C 
HETATM   12  C16 LIG X 999      43.063 126.040  23.759  1.00  0.00     0.028 C 
HETATM   13  C13 LIG X 999      42.939 123.410  22.442  1.00  0.00     0.002 C 
HETATM   14  C14 LIG X 999      41.985 123.773  23.593  1.00  0.00     0.001 C 
HETATM   15  C15 LIG X 999      42.603 124.805  24.551  1.00  0.00     0.010 C 
HETATM   16  C17 LIG X 999      43.570 127.165  24.625  1.00  0.00    -0.020 C 
HETATM   17  C18 LIG X 999      44.271 128.157  24.062  1.00  0.00     0.005 C 
BRANCH  10  18
HETATM   18  C10 LIG X 999      45.389 125.072  23.229  1.00  0.00     0.184 A 
HETATM   19  N2  LIG X 999      45.600 124.777  24.529  1.00  0.00    -0.124 NA
HETATM   20  N3  LIG X 999      46.846 124.337  24.625  1.00  0.00    -0.099 NA
HETATM   21  C11 LIG X 999      47.348 124.392  23.379  1.00  0.00     0.326 A 
HETATM   22  O1  LIG X 999      46.470 124.844  22.517  1.00  0.00    -0.255 OA
BRANCH  21  23
HETATM   23  N4  LIG X 999      48.679 124.007  23.048  1.00  0.00    -0.023 NA
HETATM   24  N5  LIG X 999      48.953 123.593  21.921  1.00  0.00    -0.158 NA
HETATM   25  N6  LIG X 999      49.224 123.179  20.794  1.00  0.00     0.068 N 
ENDBRANCH  21  23
ENDBRANCH  10  18
ENDBRANCH   7   8
ENDBRANCH   4   7
ENDBRANCH   3   4
TORSDOF 5
