REMARK VINA RESULT:      -5.8      1.999      2.425
REMARK  2 active torsions:
REMARK  status: ('A' for Active; 'I' for Inactive)
REMARK    1  A    between atoms: C2_5  and  C3_6 
REMARK    2  A    between atoms: N3_18  and  C13_19 
ROOT
HETATM    1  H1  LIG X 999      41.933 132.354  17.142  1.00  0.00     0.190 HD
HETATM    2  N1  LIG X 999      42.865 131.923  16.947  1.00  0.00    -0.260 NA
HETATM    3  C1  LIG X 999      43.719 131.734  17.899  1.00  0.00     0.268 A 
HETATM    4  O1  LIG X 999      43.507 132.064  19.153  1.00  0.00    -0.257 OA
HETATM    5  C2  LIG X 999      44.613 131.726  19.788  1.00  0.00     0.177 A 
HETATM    6  N2  LIG X 999      45.512 131.197  18.930  1.00  0.00    -0.269 N 
HETATM    7  H9  LIG X 999      46.458 130.819  19.157  1.00  0.00     0.190 HD
HETATM    8  N3  LIG X 999      44.945 131.196  17.734  1.00  0.00    -0.212 N 
ENDROOT
BRANCH   5   9
HETATM    9  C3  LIG X 999      44.854 131.933  21.235  1.00  0.00     0.028 A 
HETATM   10  C4  LIG X 999      45.891 132.805  21.609  1.00  0.00     0.017 A 
HETATM   11  C5  LIG X 999      46.129 133.102  22.950  1.00  0.00     0.002 A 
HETATM   12  C6  LIG X 999      45.340 132.533  23.946  1.00  0.00     0.012 A 
HETATM   13  C7  LIG X 999      44.311 131.643  23.610  1.00  0.00    -0.025 A 
HETATM   14  C8  LIG X 999      43.536 131.059  24.624  1.00  0.00     0.012 A 
HETATM   15  C12 LIG X 999      44.064 131.320  22.246  1.00  0.00    -0.011 A 
HETATM   16  C9  LIG X 999      42.532 130.145  24.304  1.00  0.00     0.001 A 
HETATM   17  C10 LIG X 999      42.300 129.797  22.975  1.00  0.00     0.001 A 
HETATM   18  C11 LIG X 999      43.061 130.370  21.953  1.00  0.00     0.013 A 
ENDBRANCH   5   9
BRANCH   8  19
HETATM   19  C13 LIG X 999      45.553 130.695  16.530  1.00  0.00     0.105 A 
HETATM   20  C14 LIG X 999      45.541 129.320  16.244  1.00  0.00     0.054 A 
HETATM   21  C15 LIG X 999      46.150 128.852  15.078  1.00  0.00     0.122 A 
HETATM   22  N4  LIG X 999      46.748 129.723  14.223  1.00  0.00    -0.230 NA
HETATM   23  C16 LIG X 999      46.777 131.059  14.471  1.00  0.00     0.251 A 
HETATM   24  F1  LIG X 999      47.380 131.894  13.590  1.00  0.00    -0.181 F 
HETATM   25  C17 LIG X 999      46.183 131.571  15.629  1.00  0.00     0.202 A 
HETATM   26  F2  LIG X 999      46.189 132.910  15.850  1.00  0.00    -0.199 F 
ENDBRANCH   8  19
TORSDOF 2
