REMARK VINA RESULT:      -6.0      4.922      7.133
REMARK  3 active torsions:
REMARK  status: ('A' for Active; 'I' for Inactive)
REMARK    1  A    between atoms: N1_1  and  C1_2 
REMARK    2  A    between atoms: C1_2  and  C2_3 
REMARK    3  A    between atoms: C2_3  and  C3_5 
ROOT
HETATM    1  C3  LIG X 999      43.613 131.214  21.987  1.00  0.00     0.012 A 
HETATM    2  C4  LIG X 999      44.953 130.801  21.865  1.00  0.00     0.016 A 
HETATM    3  C5  LIG X 999      45.574 130.744  20.615  1.00  0.00     0.013 A 
HETATM    4  C6  LIG X 999      44.868 131.098  19.459  1.00  0.00    -0.026 A 
HETATM    5  C7  LIG X 999      45.484 131.044  18.198  1.00  0.00     0.012 A 
HETATM    6  C8  LIG X 999      44.768 131.398  17.052  1.00  0.00     0.001 A 
HETATM    7  C9  LIG X 999      43.436 131.805  17.154  1.00  0.00     0.001 A 
HETATM    8  C10 LIG X 999      42.810 131.863  18.402  1.00  0.00     0.012 A 
HETATM    9  C11 LIG X 999      43.519 131.512  19.563  1.00  0.00    -0.025 A 
HETATM   10  C12 LIG X 999      42.902 131.566  20.822  1.00  0.00     0.027 A 
ENDROOT
BRANCH   1  11
HETATM   11  C2  LIG X 999      42.973 131.264  23.329  1.00  0.00     0.187 C 
HETATM   12  O1  LIG X 999      42.687 132.384  23.836  1.00  0.00    -0.290 OA
BRANCH  11  13
HETATM   13  C1  LIG X 999      42.691 130.010  24.118  1.00  0.00     0.350 C 
BRANCH  13  14
HETATM   14  N1  LIG X 999      41.682 129.187  23.457  1.00  0.00     0.085 N 
HETATM   15  H1  LIG X 999      42.139 128.290  23.171  1.00  0.00     0.313 HD
HETATM   16  H2  LIG X 999      41.395 129.668  22.573  1.00  0.00     0.313 HD
ENDBRANCH  13  14
ENDBRANCH  11  13
ENDBRANCH   1  11
TORSDOF 3
