REMARK VINA RESULT:      -7.0      1.449      2.206
REMARK  2 active torsions:
REMARK  status: ('A' for Active; 'I' for Inactive)
REMARK    1  A    between atoms: C1_2  and  C2_4 
REMARK    2  A    between atoms: C3_5  and  C4_6 
ROOT
HETATM    1  C4  LIG X 999      43.968 131.716  18.467  1.00  0.00     0.019 A 
HETATM    2  C5  LIG X 999      42.655 132.187  18.595  1.00  0.00     0.021 A 
HETATM    3  C6  LIG X 999      42.070 132.306  19.859  1.00  0.00     0.013 A 
HETATM    4  C7  LIG X 999      42.795 131.956  21.008  1.00  0.00    -0.026 A 
HETATM    5  C8  LIG X 999      42.218 132.071  22.282  1.00  0.00     0.012 A 
HETATM    6  C9  LIG X 999      42.951 131.718  23.419  1.00  0.00     0.001 A 
HETATM    7  C10 LIG X 999      44.262 131.248  23.293  1.00  0.00     0.001 A 
HETATM    8  C11 LIG X 999      44.849 131.128  22.030  1.00  0.00     0.012 A 
HETATM    9  C12 LIG X 999      44.123 131.479  20.879  1.00  0.00    -0.025 A 
HETATM   10  C13 LIG X 999      44.701 131.363  19.606  1.00  0.00     0.032 A 
ENDROOT
BRANCH   1  11
HETATM   11  C3  LIG X 999      44.563 131.595  17.161  1.00  0.00    -0.056 C 
HETATM   12  C2  LIG X 999      45.061 131.494  16.068  1.00  0.00     0.010 C 
BRANCH  12  13
HETATM   13  C1  LIG X 999      45.653 131.373  14.766  1.00  0.00     0.258 C 
HETATM   14  O1  LIG X 999      44.962 130.966  13.796  1.00  0.00    -0.637 OA
HETATM   15  O2  LIG X 999      46.988 131.703  14.577  1.00  0.00    -0.637 OA
ENDBRANCH  12  13
ENDBRANCH   1  11
TORSDOF 2
