REMARK VINA RESULT:      -8.6      0.000      0.000
REMARK  2 active torsions:
REMARK  status: ('A' for Active; 'I' for Inactive)
REMARK    1  A    between atoms: C3_3  and  S1_4 
REMARK    2  A    between atoms: S1_4  and  C4_5 
ROOT
HETATM    1  C1  LIG X 999      47.612 131.036  12.985  1.00  0.00     0.013 C 
HETATM    2  C2  LIG X 999      46.767 130.624  13.740  1.00  0.00    -0.107 C 
HETATM    3  C3  LIG X 999      45.738 130.124  14.655  1.00  0.00     0.172 C 
ENDROOT
BRANCH   3   4
HETATM    4  S1  LIG X 999      44.485 131.413  14.964  1.00  0.00    -0.118 SA
BRANCH   4   5
HETATM    5  C4  LIG X 999      44.581 131.297  16.754  1.00  0.00     0.002 A 
HETATM    6  C5  LIG X 999      45.709 130.728  17.357  1.00  0.00     0.019 A 
HETATM    7  C6  LIG X 999      45.792 130.635  18.749  1.00  0.00     0.013 A 
HETATM    8  C7  LIG X 999      44.747 131.115  19.551  1.00  0.00    -0.026 A 
HETATM    9  C8  LIG X 999      44.818 131.025  20.950  1.00  0.00     0.012 A 
HETATM   10  C12 LIG X 999      43.607 131.699  18.944  1.00  0.00    -0.025 A 
HETATM   11  C9  LIG X 999      43.769 131.508  21.739  1.00  0.00     0.001 A 
HETATM   12  C10 LIG X 999      42.645 132.083  21.138  1.00  0.00     0.001 A 
HETATM   13  C11 LIG X 999      42.562 132.179  19.746  1.00  0.00     0.012 A 
HETATM   14  C13 LIG X 999      43.537 131.788  17.545  1.00  0.00     0.030 A 
ENDBRANCH   4   5
ENDBRANCH   3   4
TORSDOF 2
