REMARK VINA RESULT:      -6.6      1.524      3.204
REMARK  1 active torsions:
REMARK  status: ('A' for Active; 'I' for Inactive)
REMARK    1  A    between atoms: C2_5  and  C3_6 
ROOT
HETATM    1  C3  LIG X 999      43.832 131.777  18.947  1.00  0.00     0.028 A 
HETATM    2  C4  LIG X 999      42.760 132.644  18.682  1.00  0.00     0.017 A 
HETATM    3  C5  LIG X 999      41.823 132.946  19.669  1.00  0.00     0.002 A 
HETATM    4  C6  LIG X 999      41.943 132.393  20.943  1.00  0.00     0.012 A 
HETATM    5  C7  LIG X 999      43.020 131.552  21.250  1.00  0.00    -0.025 A 
HETATM    6  C8  LIG X 999      43.150 131.025  22.545  1.00  0.00     0.012 A 
HETATM    7  C9  LIG X 999      44.242 130.222  22.873  1.00  0.00     0.001 A 
HETATM    8  C10 LIG X 999      45.221 129.949  21.917  1.00  0.00     0.001 A 
HETATM    9  C11 LIG X 999      45.105 130.460  20.622  1.00  0.00     0.013 A 
HETATM   10  C12 LIG X 999      43.991 131.247  20.256  1.00  0.00    -0.011 A 
ENDROOT
BRANCH   1  11
HETATM   11  C2  LIG X 999      44.734 131.444  17.825  1.00  0.00     0.177 A 
HETATM   12  O1  LIG X 999      45.475 130.356  17.770  1.00  0.00    -0.258 OA
HETATM   13  C1  LIG X 999      46.150 130.469  16.648  1.00  0.00     0.260 A 
HETATM   14  N1  LIG X 999      47.000 129.594  16.218  1.00  0.00    -0.261 NA
HETATM   15  N3  LIG X 999      45.855 131.609  16.004  1.00  0.00    -0.262 N 
HETATM   16  H1  LIG X 999      47.194 128.724  16.762  1.00  0.00     0.190 HD
HETATM   17  N2  LIG X 999      44.961 132.231  16.751  1.00  0.00    -0.276 N 
HETATM   18  H10 LIG X 999      46.250 131.964  15.104  1.00  0.00     0.190 HD
HETATM   19  H9  LIG X 999      44.557 133.171  16.545  1.00  0.00     0.189 HD
ENDBRANCH   1  11
TORSDOF 1
