REMARK VINA RESULT:      -5.4      5.351      7.293
REMARK  1 active torsions:
REMARK  status: ('A' for Active; 'I' for Inactive)
REMARK    1  A    between atoms: C3_3  and  N1_4 
ROOT
HETATM    1  N1  LIG X 999      45.028 131.203  21.224  1.00  0.00    -0.072 NA
HETATM    2  N2  LIG X 999      44.605 131.448  20.093  1.00  0.00    -0.162 NA
HETATM    3  N3  LIG X 999      44.185 131.697  18.964  1.00  0.00     0.068 N 
ENDROOT
BRANCH   1   4
HETATM    4  C3  LIG X 999      44.173 130.723  22.272  1.00  0.00     0.104 A 
HETATM    5  C2  LIG X 999      43.309 131.646  22.872  1.00  0.00     0.035 A 
HETATM    6  C1  LIG X 999      42.395 131.244  23.846  1.00  0.00     0.003 A 
HETATM    7  C10 LIG X 999      42.334 129.912  24.248  1.00  0.00     0.012 A 
HETATM    8  C9  LIG X 999      43.214 128.969  23.701  1.00  0.00    -0.023 A 
HETATM    9  C4  LIG X 999      44.167 129.371  22.712  1.00  0.00     0.006 A 
HETATM   10  C8  LIG X 999      43.170 127.632  24.141  1.00  0.00     0.021 A 
HETATM   11  C5  LIG X 999      45.099 128.415  22.240  1.00  0.00     0.024 A 
HETATM   12  C6  LIG X 999      45.025 127.104  22.711  1.00  0.00    -0.023 A 
HETATM   13  C7  LIG X 999      44.090 126.725  23.621  1.00  0.00    -0.024 A 
HETATM   14  C14 LIG X 999      45.881 125.958  22.337  1.00  0.00     0.276 C 
HETATM   15  C11 LIG X 999      44.226 125.288  23.940  1.00  0.00     0.276 C 
HETATM   16  N4  LIG X 999      45.464 124.831  23.231  1.00  0.00    -0.067 N 
HETATM   17  C12 LIG X 999      45.192 123.610  22.440  1.00  0.00     0.272 C 
HETATM   18  C13 LIG X 999      46.535 124.541  24.215  1.00  0.00     0.272 C 
ENDBRANCH   1   4
TORSDOF 1
