REMARK VINA RESULT:      -6.8      2.461      5.902
REMARK  3 active torsions:
REMARK  status: ('A' for Active; 'I' for Inactive)
REMARK    1  A    between atoms: C3_3  and  O1_4 
REMARK    2  A    between atoms: O1_4  and  C4_5 
REMARK    3  A    between atoms: C5_7  and  C6_8 
ROOT
HETATM    1  C1  LIG X 999      43.782 129.239  22.880  1.00  0.00     0.014 C 
HETATM    2  C2  LIG X 999      43.380 130.352  22.651  1.00  0.00    -0.091 C 
HETATM    3  C3  LIG X 999      42.895 131.704  22.373  1.00  0.00     0.270 C 
ENDROOT
BRANCH   3   4
HETATM    4  O1  LIG X 999      43.359 132.113  21.093  1.00  0.00    -0.317 OA
BRANCH   4   5
HETATM    5  C4  LIG X 999      42.489 132.451  20.053  1.00  0.00     0.217 C 
HETATM    6  O2  LIG X 999      41.293 133.109  20.330  1.00  0.00    -0.164 OA
HETATM    7  C5  LIG X 999      42.778 132.131  18.788  1.00  0.00     0.079 C 
BRANCH   7   8
HETATM    8  C6  LIG X 999      44.029 131.442  18.389  1.00  0.00    -0.020 A 
HETATM    9  C7  LIG X 999      44.900 130.969  19.387  1.00  0.00     0.012 A 
HETATM   10  C8  LIG X 999      46.108 130.357  19.052  1.00  0.00     0.002 A 
HETATM   11  C9  LIG X 999      46.478 130.216  17.717  1.00  0.00     0.012 A 
HETATM   12  C10 LIG X 999      45.639 130.686  16.698  1.00  0.00    -0.025 A 
HETATM   13  C11 LIG X 999      46.019 130.541  15.355  1.00  0.00     0.012 A 
HETATM   14  C15 LIG X 999      44.402 131.306  17.024  1.00  0.00    -0.015 A 
HETATM   15  C12 LIG X 999      45.185 130.997  14.333  1.00  0.00     0.001 A 
HETATM   16  C13 LIG X 999      43.964 131.595  14.642  1.00  0.00     0.001 A 
HETATM   17  C14 LIG X 999      43.569 131.749  15.973  1.00  0.00     0.013 A 
ENDBRANCH   7   8
ENDBRANCH   4   5
ENDBRANCH   3   4
TORSDOF 3
