REMARK VINA RESULT:      -5.9      2.847      4.417
REMARK  4 active torsions:
REMARK  status: ('A' for Active; 'I' for Inactive)
REMARK    1  A    between atoms: C2_2  and  C3_3 
REMARK    2  A    between atoms: C3_3  and  C5_5 
REMARK       I    between atoms: C5_5  and  N1_7 
REMARK    3  A    between atoms: N1_7  and  C6_8 
REMARK    4  A    between atoms: C7_9  and  O2_10 
ROOT
HETATM    1  C6  LIG X 999      43.632 130.938  21.347  1.00  0.00     0.104 A 
HETATM    2  C7  LIG X 999      42.754 131.987  21.700  1.00  0.00     0.098 A 
HETATM    3  C9  LIG X 999      42.320 132.110  23.032  1.00  0.00     0.040 A 
HETATM    4  C10 LIG X 999      42.720 131.187  23.998  1.00  0.00     0.015 A 
HETATM    5  C11 LIG X 999      43.554 130.119  23.653  1.00  0.00    -0.024 A 
HETATM    6  C12 LIG X 999      43.940 129.181  24.625  1.00  0.00     0.012 A 
HETATM    7  C13 LIG X 999      44.772 128.115  24.280  1.00  0.00     0.001 A 
HETATM    8  C14 LIG X 999      45.227 127.975  22.969  1.00  0.00     0.001 A 
HETATM    9  C15 LIG X 999      44.854 128.901  21.992  1.00  0.00     0.014 A 
HETATM   10  C16 LIG X 999      44.011 129.984  22.318  1.00  0.00     0.006 A 
ENDROOT
BRANCH   1  11
HETATM   11  N1  LIG X 999      44.093 130.792  19.994  1.00  0.00    -0.210 NA
HETATM   12  C5  LIG X 999      45.022 131.663  19.337  1.00  0.00     0.247 C 
HETATM   13  O1  LIG X 999      45.682 132.509  20.000  1.00  0.00    -0.271 OA
BRANCH  12  14
HETATM   14  C3  LIG X 999      45.266 131.522  17.858  1.00  0.00     0.076 C 
HETATM   15  C4  LIG X 999      45.901 130.160  17.565  1.00  0.00     0.020 C 
BRANCH  14  16
HETATM   16  C2  LIG X 999      43.963 131.699  17.051  1.00  0.00     0.009 C 
HETATM   17  C1  LIG X 999      44.141 131.342  15.575  1.00  0.00     0.006 C 
ENDBRANCH  14  16
ENDBRANCH  12  14
ENDBRANCH   1  11
BRANCH   2  18
HETATM   18  O2  LIG X 999      42.309 132.867  20.700  1.00  0.00    -0.354 OA
HETATM   19  C8  LIG X 999      41.570 132.480  19.546  1.00  0.00     0.210 C 
ENDBRANCH   2  18
TORSDOF 4
