REMARK VINA RESULT:      -5.8      1.913      2.907
REMARK  1 active torsions:
REMARK  status: ('A' for Active; 'I' for Inactive)
REMARK    1  A    between atoms: C5_8  and  O1_9 
ROOT
HETATM    1  H1  LIG X 999      44.455 131.326  16.244  1.00  0.00     0.187 HD
HETATM    2  N1  LIG X 999      43.562 131.743  16.586  1.00  0.00    -0.300 NA
HETATM    3  C1  LIG X 999      43.268 131.856  17.843  1.00  0.00     0.059 A 
HETATM    4  C2  LIG X 999      41.957 132.472  18.240  1.00  0.00     0.034 A 
HETATM    5  C3  LIG X 999      41.610 132.609  19.540  1.00  0.00     0.035 A 
HETATM    6  C4  LIG X 999      42.553 132.138  20.569  1.00  0.00     0.071 A 
HETATM    7  N2  LIG X 999      42.426 132.170  21.917  1.00  0.00    -0.224 NA
HETATM    8  C5  LIG X 999      43.583 131.609  22.376  1.00  0.00     0.174 A 
HETATM    9  C6  LIG X 999      44.410 131.237  21.329  1.00  0.00     0.030 A 
HETATM   10  C7  LIG X 999      45.668 130.640  21.243  1.00  0.00     0.017 A 
HETATM   11  C8  LIG X 999      46.195 130.417  19.947  1.00  0.00     0.002 A 
HETATM   12  C9  LIG X 999      45.462 130.792  18.787  1.00  0.00     0.015 A 
HETATM   13  C10 LIG X 999      44.189 131.394  18.926  1.00  0.00     0.005 A 
HETATM   14  C11 LIG X 999      43.735 131.583  20.214  1.00  0.00     0.020 A 
ENDROOT
BRANCH   8  15
HETATM   15  O1  LIG X 999      43.877 131.440  23.724  1.00  0.00    -0.344 OA
HETATM   16  H4  LIG X 999      44.027 130.515  24.106  1.00  0.00     0.219 HD
ENDBRANCH   8  15
TORSDOF 1
