REMARK VINA RESULT:      -7.4      2.291      4.167
REMARK  5 active torsions:
REMARK  status: ('A' for Active; 'I' for Inactive)
REMARK    1  A    between atoms: C2_2  and  C3_3 
REMARK    2  A    between atoms: C2_2  and  N1_13 
REMARK    3  A    between atoms: C14_15  and  C15_16 
REMARK    4  A    between atoms: C15_16  and  C16_17 
REMARK       I    between atoms: C16_17  and  N2_19 
REMARK    5  A    between atoms: N2_19  and  C17_20 
ROOT
HETATM    1  N1  LIG X 999      44.100 129.987  22.545  1.00  0.00    -0.274 N 
HETATM    2  C13 LIG X 999      43.346 129.236  23.370  1.00  0.00     0.137 A 
HETATM    3  C14 LIG X 999      43.910 127.980  23.363  1.00  0.00     0.078 A 
HETATM    4  N4  LIG X 999      44.967 127.989  22.526  1.00  0.00    -0.163 NA
HETATM    5  N5  LIG X 999      45.059 129.221  22.047  1.00  0.00     0.005 NA
ENDROOT
BRANCH   1   6
HETATM    6  C2  LIG X 999      43.889 131.385  22.160  1.00  0.00     0.134 C 
HETATM    7  C1  LIG X 999      42.678 131.983  22.890  1.00  0.00     0.039 C 
BRANCH   6   8
HETATM    8  C3  LIG X 999      43.792 131.507  20.649  1.00  0.00    -0.033 A 
HETATM    9  C4  LIG X 999      42.592 131.884  20.017  1.00  0.00     0.010 A 
HETATM   10  C5  LIG X 999      42.510 131.951  18.623  1.00  0.00     0.013 A 
HETATM   11  C6  LIG X 999      43.622 131.631  17.833  1.00  0.00    -0.026 A 
HETATM   12  C7  LIG X 999      43.548 131.696  16.432  1.00  0.00     0.012 A 
HETATM   13  C11 LIG X 999      44.829 131.230  18.455  1.00  0.00    -0.025 A 
HETATM   14  C8  LIG X 999      44.663 131.364  15.656  1.00  0.00     0.001 A 
HETATM   15  C9  LIG X 999      45.854 130.966  16.269  1.00  0.00     0.001 A 
HETATM   16  C10 LIG X 999      45.941 130.899  17.663  1.00  0.00     0.012 A 
HETATM   17  C12 LIG X 999      44.903 131.166  19.855  1.00  0.00     0.021 A 
ENDBRANCH   6   8
ENDBRANCH   1   6
BRANCH   3  18
HETATM   18  C15 LIG X 999      43.384 126.761  24.051  1.00  0.00     0.167 C 
BRANCH  18  19
HETATM   19  C16 LIG X 999      44.040 125.541  23.490  1.00  0.00     0.251 C 
HETATM   20  O1  LIG X 999      43.455 124.875  22.594  1.00  0.00    -0.271 OA
HETATM   21  N2  LIG X 999      45.327 125.147  23.982  1.00  0.00    -0.189 NA
BRANCH  21  22
HETATM   22  C17 LIG X 999      46.206 124.187  23.383  1.00  0.00     0.173 A 
HETATM   23  N3  LIG X 999      46.646 124.223  22.104  1.00  0.00    -0.344 N 
HETATM   24  C18 LIG X 999      47.518 123.215  21.834  1.00  0.00     0.097 A 
HETATM   25  H15 LIG X 999      46.389 124.946  21.397  1.00  0.00     0.167 HD
HETATM   26  C19 LIG X 999      47.795 122.378  22.911  1.00  0.00     0.070 A 
HETATM   27  S1  LIG X 999      46.917 122.928  24.239  1.00  0.00    -0.062 SA
ENDBRANCH  21  22
ENDBRANCH  18  19
ENDBRANCH   3  18
TORSDOF 5
