REMARK VINA RESULT:      -7.2      3.701      7.377
REMARK  2 active torsions:
REMARK  status: ('A' for Active; 'I' for Inactive)
REMARK    1  A    between atoms: C2_5  and  C3_6 
REMARK    2  A    between atoms: N3_17  and  C13_18 
ROOT
HETATM    1  H1  LIG X 999      46.404 132.055  22.230  1.00  0.00     0.190 HD
HETATM    2  N1  LIG X 999      46.524 132.243  21.211  1.00  0.00    -0.260 NA
HETATM    3  C1  LIG X 999      45.696 131.811  20.314  1.00  0.00     0.269 A 
HETATM    4  O1  LIG X 999      45.859 132.002  19.029  1.00  0.00    -0.255 OA
HETATM    5  C2  LIG X 999      44.854 131.370  18.459  1.00  0.00     0.203 A 
HETATM    6  N2  LIG X 999      44.049 130.794  19.381  1.00  0.00    -0.137 NA
HETATM    7  N3  LIG X 999      44.587 131.080  20.556  1.00  0.00    -0.189 N 
ENDROOT
BRANCH   5   8
HETATM    8  C3  LIG X 999      44.596 131.327  17.001  1.00  0.00     0.030 A 
HETATM    9  C4  LIG X 999      43.387 131.877  16.538  1.00  0.00     0.017 A 
HETATM   10  C5  LIG X 999      43.105 131.947  15.175  1.00  0.00     0.002 A 
HETATM   11  C6  LIG X 999      44.022 131.467  14.243  1.00  0.00     0.012 A 
HETATM   12  C7  LIG X 999      45.223 130.886  14.669  1.00  0.00    -0.025 A 
HETATM   13  C8  LIG X 999      46.127 130.382  13.719  1.00  0.00     0.012 A 
HETATM   14  C12 LIG X 999      45.519 130.794  16.058  1.00  0.00    -0.011 A 
HETATM   15  C9  LIG X 999      47.309 129.768  14.130  1.00  0.00     0.001 A 
HETATM   16  C10 LIG X 999      47.594 129.639  15.488  1.00  0.00     0.001 A 
HETATM   17  C11 LIG X 999      46.709 130.137  16.447  1.00  0.00     0.013 A 
ENDBRANCH   5   8
BRANCH   7  18
HETATM   18  C13 LIG X 999      44.018 130.680  21.813  1.00  0.00     0.107 A 
HETATM   19  C14 LIG X 999      44.528 129.573  22.509  1.00  0.00     0.054 A 
HETATM   20  C15 LIG X 999      43.978 129.223  23.744  1.00  0.00     0.122 A 
HETATM   21  N4  LIG X 999      42.965 129.959  24.274  1.00  0.00    -0.230 NA
HETATM   22  C16 LIG X 999      42.462 131.047  23.631  1.00  0.00     0.251 A 
HETATM   23  F1  LIG X 999      41.456 131.755  24.196  1.00  0.00    -0.181 F 
HETATM   24  C17 LIG X 999      42.985 131.433  22.393  1.00  0.00     0.203 A 
HETATM   25  F2  LIG X 999      42.476 132.516  21.753  1.00  0.00    -0.199 F 
ENDBRANCH   7  18
TORSDOF 2
