REMARK VINA RESULT:      -5.3      0.000      0.000
REMARK  5 active torsions:
REMARK  status: ('A' for Active; 'I' for Inactive)
REMARK    1  A    between atoms: C3_3  and  O1_4 
REMARK    2  A    between atoms: O1_4  and  C4_5 
REMARK    3  A    between atoms: C5_6  and  C6_7 
REMARK    4  A    between atoms: C12_14  and  N1_15 
REMARK    5  A    between atoms: C15_21  and  N3_22 
ROOT
HETATM    1  C1  LIG X 999      45.457 130.699  20.800  1.00  0.00     0.014 C 
HETATM    2  C2  LIG X 999      44.642 130.494  21.664  1.00  0.00    -0.091 C 
HETATM    3  C3  LIG X 999      43.653 130.244  22.713  1.00  0.00     0.268 C 
ENDROOT
BRANCH   3   4
HETATM    4  O1  LIG X 999      44.169 129.275  23.620  1.00  0.00    -0.339 OA
BRANCH   4   5
HETATM    5  C4  LIG X 999      44.205 127.891  23.384  1.00  0.00     0.085 A 
HETATM    6  C5  LIG X 999      43.023 127.117  23.618  1.00  0.00     0.050 A 
HETATM    7  C7  LIG X 999      43.100 125.735  23.371  1.00  0.00     0.044 A 
HETATM    8  C8  LIG X 999      44.253 125.180  22.930  1.00  0.00     0.021 A 
HETATM    9  C15 LIG X 999      42.177 124.583  23.465  1.00  0.00     0.198 A 
HETATM   10  C9  LIG X 999      44.087 123.846  22.764  1.00  0.00     0.071 A 
HETATM   11  C13 LIG X 999      45.427 125.864  22.684  1.00  0.00     0.006 A 
HETATM   12  C10 LIG X 999      45.140 123.054  22.316  1.00  0.00     0.035 A 
HETATM   13  N2  LIG X 999      42.756 123.465  23.108  1.00  0.00    -0.225 NA
HETATM   14  C11 LIG X 999      46.372 123.690  22.044  1.00  0.00     0.032 A 
HETATM   15  C12 LIG X 999      46.534 125.095  22.223  1.00  0.00     0.037 A 
HETATM   16  C14 LIG X 999      45.400 127.256  22.918  1.00  0.00     0.052 A 
BRANCH   6  17
HETATM   17  C6  LIG X 999      41.762 127.725  24.100  1.00  0.00     0.273 C 
HETATM   18  O2  LIG X 999      40.825 128.015  23.310  1.00  0.00    -0.301 OA
ENDBRANCH   6  17
BRANCH  15  19
HETATM   19  N1  LIG X 999      47.806 125.689  21.932  1.00  0.00    -0.398 N 
HETATM   20  H7  LIG X 999      48.261 125.528  21.007  1.00  0.00     0.156 HD
HETATM   21  H8  LIG X 999      48.316 126.289  22.614  1.00  0.00     0.156 HD
ENDBRANCH  15  19
BRANCH   9  22
HETATM   22  N3  LIG X 999      40.815 124.652  23.890  1.00  0.00    -0.051 NA
HETATM   23  N4  LIG X 999      40.027 123.735  23.657  1.00  0.00    -0.160 NA
HETATM   24  N5  LIG X 999      39.238 122.820  23.424  1.00  0.00     0.068 N 
ENDBRANCH   9  22
ENDBRANCH   4   5
ENDBRANCH   3   4
TORSDOF 5
