REMARK VINA RESULT:      -7.0      1.546      2.100
REMARK  4 active torsions:
REMARK  status: ('A' for Active; 'I' for Inactive)
REMARK    1  A    between atoms: C3_3  and  O1_4 
REMARK    2  A    between atoms: O1_4  and  C4_5 
REMARK    3  A    between atoms: C4_5  and  O2_6 
REMARK    4  A    between atoms: C5_8  and  C6_9 
ROOT
HETATM    1  C1  LIG X 999      47.623 131.020  13.240  1.00  0.00     0.014 C 
HETATM    2  C2  LIG X 999      46.595 131.008  13.869  1.00  0.00    -0.091 C 
HETATM    3  C3  LIG X 999      45.347 130.993  14.633  1.00  0.00     0.270 C 
ENDROOT
BRANCH   3   4
HETATM    4  O1  LIG X 999      45.648 131.086  16.023  1.00  0.00    -0.319 OA
BRANCH   4   5
HETATM    5  C4  LIG X 999      44.721 131.406  17.029  1.00  0.00     0.179 C 
HETATM    6  C5  LIG X 999      45.038 131.372  18.336  1.00  0.00     0.075 C 
BRANCH   5   7
HETATM    7  O2  LIG X 999      43.442 131.792  16.639  1.00  0.00    -0.341 OA
HETATM    8  H4  LIG X 999      42.879 132.391  17.231  1.00  0.00     0.220 HD
ENDBRANCH   5   7
BRANCH   6   9
HETATM    9  C6  LIG X 999      44.070 131.694  19.412  1.00  0.00    -0.021 A 
HETATM   10  C7  LIG X 999      43.057 132.637  19.162  1.00  0.00     0.012 A 
HETATM   11  C8  LIG X 999      42.096 132.930  20.131  1.00  0.00     0.002 A 
HETATM   12  C9  LIG X 999      42.121 132.280  21.362  1.00  0.00     0.012 A 
HETATM   13  C10 LIG X 999      43.111 131.328  21.640  1.00  0.00    -0.025 A 
HETATM   14  C11 LIG X 999      43.127 130.676  22.883  1.00  0.00     0.012 A 
HETATM   15  C15 LIG X 999      44.099 131.023  20.663  1.00  0.00    -0.015 A 
HETATM   16  C12 LIG X 999      44.115 129.734  23.170  1.00  0.00     0.001 A 
HETATM   17  C13 LIG X 999      45.095 129.436  22.224  1.00  0.00     0.001 A 
HETATM   18  C14 LIG X 999      45.094 130.075  20.981  1.00  0.00     0.013 A 
ENDBRANCH   6   9
ENDBRANCH   4   5
ENDBRANCH   3   4
TORSDOF 4
