MODEL 1
REMARK VINA RESULT:      -6.4      0.000      0.000
REMARK  3 active torsions:
REMARK  status: ('A' for Active; 'I' for Inactive)
REMARK    1  A    between atoms: C2_2  and  N1_3 
REMARK    2  A    between atoms: C3_6  and  O1_7 
REMARK    3  A    between atoms: O1_7  and  C4_8 
REMARK       I    between atoms: C4_8  and  N4_10 
ROOT
HETATM    1  N1  LIG X 999      43.437 132.151  15.303  1.00  0.00    -0.070 NA
HETATM    2  N2  LIG X 999      43.647 131.401  14.348  1.00  0.00    -0.162 NA
HETATM    3  N3  LIG X 999      43.855 130.652  13.394  1.00  0.00     0.068 N 
ENDROOT
BRANCH   1   4
HETATM    4  C2  LIG X 999      43.882 131.848  16.633  1.00  0.00     0.128 A 
HETATM    5  C1  LIG X 999      43.008 131.931  17.734  1.00  0.00     0.049 A 
HETATM    6  C13 LIG X 999      43.460 131.628  19.024  1.00  0.00    -0.023 A 
HETATM    7  C8  LIG X 999      44.810 131.227  19.220  1.00  0.00    -0.022 A 
HETATM    8  C12 LIG X 999      42.586 131.707  20.127  1.00  0.00     0.021 A 
HETATM    9  C7  LIG X 999      45.675 131.146  18.122  1.00  0.00     0.052 A 
HETATM   10  C9  LIG X 999      45.264 130.907  20.516  1.00  0.00     0.021 A 
HETATM   11  C3  LIG X 999      45.221 131.471  16.830  1.00  0.00     0.113 A 
HETATM   12  C10 LIG X 999      44.369 131.005  21.581  1.00  0.00    -0.024 A 
HETATM   13  C11 LIG X 999      43.078 131.392  21.394  1.00  0.00    -0.024 A 
HETATM   14  C17 LIG X 999      44.619 130.700  23.007  1.00  0.00     0.276 C 
HETATM   15  C14 LIG X 999      42.341 131.382  22.677  1.00  0.00     0.276 C 
HETATM   16  N5  LIG X 999      43.370 131.099  23.729  1.00  0.00    -0.067 N 
HETATM   17  C15 LIG X 999      43.617 132.317  24.537  1.00  0.00     0.272 C 
HETATM   18  C16 LIG X 999      42.914 130.011  24.624  1.00  0.00     0.272 C 
BRANCH  11  19
HETATM   19  O1  LIG X 999      46.065 131.390  15.711  1.00  0.00    -0.259 OA
BRANCH  19  20
HETATM   20  C4  LIG X 999      46.813 130.263  15.337  1.00  0.00     0.367 C 
HETATM   21  O2  LIG X 999      46.906 129.272  16.113  1.00  0.00    -0.238 OA
HETATM   22  N4  LIG X 999      47.522 130.264  14.086  1.00  0.00    -0.336 N 
HETATM   23  C5  LIG X 999      47.428 131.434  13.211  1.00  0.00     0.154 C 
HETATM   24  C6  LIG X 999      48.322 129.098  13.700  1.00  0.00     0.154 C 
ENDBRANCH  19  20
ENDBRANCH  11  19
ENDBRANCH   1   4
TORSDOF 3
ENDMDL
MODEL 2
REMARK VINA RESULT:      -6.3      2.730      7.791
REMARK  3 active torsions:
REMARK  status: ('A' for Active; 'I' for Inactive)
REMARK    1  A    between atoms: C2_2  and  N1_3 
REMARK    2  A    between atoms: C3_6  and  O1_7 
REMARK    3  A    between atoms: O1_7  and  C4_8 
REMARK       I    between atoms: C4_8  and  N4_10 
ROOT
HETATM    1  N1  LIG X 999      43.019 131.830  22.746  1.00  0.00    -0.070 NA
HETATM    2  N2  LIG X 999      43.532 132.441  23.685  1.00  0.00    -0.162 NA
HETATM    3  N3  LIG X 999      44.044 133.051  24.624  1.00  0.00     0.068 N 
ENDROOT
BRANCH   1   4
HETATM    4  C2  LIG X 999      43.784 131.336  21.637  1.00  0.00     0.128 A 
HETATM    5  C1  LIG X 999      43.711 131.944  20.369  1.00  0.00     0.049 A 
HETATM    6  C13 LIG X 999      44.468 131.449  19.300  1.00  0.00    -0.023 A 
HETATM    7  C8  LIG X 999      45.322 130.330  19.501  1.00  0.00    -0.022 A 
HETATM    8  C12 LIG X 999      44.399 132.058  18.030  1.00  0.00     0.021 A 
HETATM    9  C7  LIG X 999      45.391 129.731  20.765  1.00  0.00     0.052 A 
HETATM   10  C9  LIG X 999      46.097 129.840  18.431  1.00  0.00     0.021 A 
HETATM   11  C3  LIG X 999      44.613 130.219  21.831  1.00  0.00     0.113 A 
HETATM   12  C10 LIG X 999      45.994 130.466  17.188  1.00  0.00    -0.024 A 
HETATM   13  C11 LIG X 999      45.174 131.535  16.995  1.00  0.00    -0.024 A 
HETATM   14  C17 LIG X 999      46.722 130.138  15.944  1.00  0.00     0.276 C 
HETATM   15  C14 LIG X 999      45.276 132.024  15.603  1.00  0.00     0.276 C 
HETATM   16  N5  LIG X 999      46.142 131.029  14.890  1.00  0.00    -0.067 N 
HETATM   17  C15 LIG X 999      45.324 130.232  13.945  1.00  0.00     0.272 C 
HETATM   18  C16 LIG X 999      47.216 131.717  14.137  1.00  0.00     0.272 C 
BRANCH  11  19
HETATM   19  O1  LIG X 999      44.671 129.641  23.109  1.00  0.00    -0.259 OA
BRANCH  19  20
HETATM   20  C4  LIG X 999      44.484 128.280  23.395  1.00  0.00     0.367 C 
HETATM   21  O2  LIG X 999      45.451 127.472  23.316  1.00  0.00    -0.238 OA
HETATM   22  N4  LIG X 999      43.171 127.797  23.727  1.00  0.00    -0.336 N 
HETATM   23  C5  LIG X 999      42.054 128.742  23.786  1.00  0.00     0.154 C 
HETATM   24  C6  LIG X 999      42.967 126.373  24.007  1.00  0.00     0.154 C 
ENDBRANCH  19  20
ENDBRANCH  11  19
ENDBRANCH   1   4
TORSDOF 3
ENDMDL
MODEL 3
REMARK VINA RESULT:      -4.6      4.339      6.873
REMARK  3 active torsions:
REMARK  status: ('A' for Active; 'I' for Inactive)
REMARK    1  A    between atoms: C2_2  and  N1_3 
REMARK    2  A    between atoms: C3_6  and  O1_7 
REMARK    3  A    between atoms: O1_7  and  C4_8 
REMARK       I    between atoms: C4_8  and  N4_10 
ROOT
HETATM    1  N1  LIG X 999      43.633 131.661  23.669  1.00  0.00    -0.070 NA
HETATM    2  N2  LIG X 999      42.616 132.144  23.168  1.00  0.00    -0.162 NA
HETATM    3  N3  LIG X 999      41.601 132.627  22.668  1.00  0.00     0.068 N 
ENDROOT
BRANCH   1   4
HETATM    4  C2  LIG X 999      44.214 130.434  23.205  1.00  0.00     0.128 A 
HETATM    5  C1  LIG X 999      44.363 129.325  24.060  1.00  0.00     0.049 A 
HETATM    6  C13 LIG X 999      44.930 128.135  23.587  1.00  0.00    -0.023 A 
HETATM    7  C8  LIG X 999      45.350 128.046  22.231  1.00  0.00    -0.022 A 
HETATM    8  C12 LIG X 999      45.077 127.023  24.440  1.00  0.00     0.021 A 
HETATM    9  C7  LIG X 999      45.199 129.152  21.386  1.00  0.00     0.052 A 
HETATM   10  C9  LIG X 999      45.906 126.845  21.748  1.00  0.00     0.021 A 
HETATM   11  C3  LIG X 999      44.648 130.352  21.871  1.00  0.00     0.113 A 
HETATM   12  C10 LIG X 999      46.041 125.769  22.627  1.00  0.00    -0.024 A 
HETATM   13  C11 LIG X 999      45.642 125.855  23.925  1.00  0.00    -0.024 A 
HETATM   14  C17 LIG X 999      46.572 124.420  22.335  1.00  0.00     0.276 C 
HETATM   15  C14 LIG X 999      45.868 124.572  24.625  1.00  0.00     0.276 C 
HETATM   16  N5  LIG X 999      46.612 123.709  23.652  1.00  0.00    -0.067 N 
HETATM   17  C15 LIG X 999      48.017 123.541  24.095  1.00  0.00     0.272 C 
HETATM   18  C16 LIG X 999      45.978 122.375  23.545  1.00  0.00     0.272 C 
BRANCH  11  19
HETATM   19  O1  LIG X 999      44.478 131.472  21.042  1.00  0.00    -0.259 OA
BRANCH  19  20
HETATM   20  C4  LIG X 999      44.607 131.477  19.645  1.00  0.00     0.367 C 
HETATM   21  O2  LIG X 999      45.734 131.297  19.107  1.00  0.00    -0.238 OA
HETATM   22  N4  LIG X 999      43.456 131.744  18.825  1.00  0.00    -0.336 N 
HETATM   23  C5  LIG X 999      42.160 131.981  19.466  1.00  0.00     0.154 C 
HETATM   24  C6  LIG X 999      43.589 131.771  17.366  1.00  0.00     0.154 C 
ENDBRANCH  19  20
ENDBRANCH  11  19
ENDBRANCH   1   4
TORSDOF 3
ENDMDL
MODEL 4
REMARK VINA RESULT:      -3.6      4.910      7.059
REMARK  3 active torsions:
REMARK  status: ('A' for Active; 'I' for Inactive)
REMARK    1  A    between atoms: C2_2  and  N1_3 
REMARK    2  A    between atoms: C3_6  and  O1_7 
REMARK    3  A    between atoms: O1_7  and  C4_8 
REMARK       I    between atoms: C4_8  and  N4_10 
ROOT
HETATM    1  N1  LIG X 999      45.950 130.826  20.146  1.00  0.00    -0.070 NA
HETATM    2  N2  LIG X 999      45.750 130.772  18.931  1.00  0.00    -0.162 NA
HETATM    3  N3  LIG X 999      45.551 130.719  17.718  1.00  0.00     0.068 N 
ENDROOT
BRANCH   1   4
HETATM    4  C2  LIG X 999      45.473 129.820  21.051  1.00  0.00     0.128 A 
HETATM    5  C1  LIG X 999      45.830 128.466  20.895  1.00  0.00     0.049 A 
HETATM    6  C13 LIG X 999      45.356 127.499  21.791  1.00  0.00    -0.023 A 
HETATM    7  C8  LIG X 999      44.516 127.891  22.870  1.00  0.00    -0.022 A 
HETATM    8  C12 LIG X 999      45.714 126.145  21.639  1.00  0.00     0.021 A 
HETATM    9  C7  LIG X 999      44.166 129.238  23.020  1.00  0.00     0.052 A 
HETATM   10  C9  LIG X 999      44.051 126.923  23.782  1.00  0.00     0.021 A 
HETATM   11  C3  LIG X 999      44.626 130.203  22.105  1.00  0.00     0.113 A 
HETATM   12  C10 LIG X 999      44.423 125.591  23.592  1.00  0.00    -0.024 A 
HETATM   13  C11 LIG X 999      45.224 125.216  22.558  1.00  0.00    -0.024 A 
HETATM   14  C17 LIG X 999      44.073 124.424  24.429  1.00  0.00     0.276 C 
HETATM   15  C14 LIG X 999      45.487 123.761  22.605  1.00  0.00     0.276 C 
HETATM   16  N5  LIG X 999      44.619 123.232  23.706  1.00  0.00    -0.067 N 
HETATM   17  C15 LIG X 999      43.508 122.433  23.135  1.00  0.00     0.272 C 
HETATM   18  C16 LIG X 999      45.404 122.377  24.625  1.00  0.00     0.272 C 
BRANCH  11  19
HETATM   19  O1  LIG X 999      44.296 131.561  22.238  1.00  0.00    -0.259 OA
BRANCH  19  20
HETATM   20  C4  LIG X 999      42.994 132.080  22.294  1.00  0.00     0.367 C 
HETATM   21  O2  LIG X 999      42.366 132.113  23.388  1.00  0.00    -0.238 OA
HETATM   22  N4  LIG X 999      42.354 132.524  21.085  1.00  0.00    -0.336 N 
HETATM   23  C5  LIG X 999      43.086 132.452  19.819  1.00  0.00     0.154 C 
HETATM   24  C6  LIG X 999      40.986 133.048  21.134  1.00  0.00     0.154 C 
ENDBRANCH  19  20
ENDBRANCH  11  19
ENDBRANCH   1   4
TORSDOF 3
ENDMDL
