MODEL 1
REMARK VINA RESULT:      -6.1      0.000      0.000
REMARK  1 active torsions:
REMARK  status: ('A' for Active; 'I' for Inactive)
REMARK    1  A    between atoms: C12_14  and  N2_15 
ROOT
HETATM    1  C1  LIG X 999      47.241 130.023  14.041  1.00  0.00     0.001 A 
HETATM    2  C2  LIG X 999      47.608 129.824  15.369  1.00  0.00     0.001 A 
HETATM    3  C3  LIG X 999      46.752 130.201  16.406  1.00  0.00     0.013 A 
HETATM    4  C4  LIG X 999      45.497 130.790  16.132  1.00  0.00    -0.012 A 
HETATM    5  C5  LIG X 999      45.135 130.988  14.761  1.00  0.00    -0.025 A 
HETATM    6  C6  LIG X 999      46.012 130.601  13.736  1.00  0.00     0.012 A 
HETATM    7  C7  LIG X 999      43.897 131.570  14.423  1.00  0.00     0.013 A 
HETATM    8  C8  LIG X 999      43.004 131.965  15.417  1.00  0.00     0.021 A 
HETATM    9  C9  LIG X 999      43.357 131.773  16.745  1.00  0.00     0.020 A 
HETATM   10  S1  LIG X 999      42.426 132.177  18.074  1.00  0.00    -0.076 SA
HETATM   11  C10 LIG X 999      43.537 131.637  19.210  1.00  0.00     0.118 A 
HETATM   12  C11 LIG X 999      43.301 131.716  20.627  1.00  0.00     0.109 C 
HETATM   13  N1  LIG X 999      43.105 131.783  21.765  1.00  0.00    -0.191 NA
HETATM   14  C12 LIG X 999      44.672 131.122  18.556  1.00  0.00     0.133 A 
HETATM   15  C13 LIG X 999      44.571 131.199  17.138  1.00  0.00     0.026 A 
ENDROOT
BRANCH  14  16
HETATM   16  N2  LIG X 999      45.812 130.578  19.238  1.00  0.00    -0.070 NA
HETATM   17  N3  LIG X 999      45.732 129.869  20.242  1.00  0.00    -0.162 NA
HETATM   18  N4  LIG X 999      45.663 129.161  21.245  1.00  0.00     0.068 N 
ENDBRANCH  14  16
TORSDOF 1
ENDMDL
MODEL 2
REMARK VINA RESULT:      -5.7      3.020      6.117
REMARK  1 active torsions:
REMARK  status: ('A' for Active; 'I' for Inactive)
REMARK    1  A    between atoms: C12_14  and  N2_15 
ROOT
HETATM    1  C1  LIG X 999      41.871 132.642  21.066  1.00  0.00     0.001 A 
HETATM    2  C2  LIG X 999      41.622 132.887  19.719  1.00  0.00     0.001 A 
HETATM    3  C3  LIG X 999      42.507 132.429  18.739  1.00  0.00     0.013 A 
HETATM    4  C4  LIG X 999      43.670 131.707  19.093  1.00  0.00    -0.012 A 
HETATM    5  C5  LIG X 999      43.911 131.464  20.483  1.00  0.00    -0.025 A 
HETATM    6  C6  LIG X 999      43.007 131.934  21.449  1.00  0.00     0.012 A 
HETATM    7  C7  LIG X 999      45.052 130.751  20.899  1.00  0.00     0.013 A 
HETATM    8  C8  LIG X 999      45.967 130.271  19.965  1.00  0.00     0.021 A 
HETATM    9  C9  LIG X 999      45.733 130.508  18.619  1.00  0.00     0.020 A 
HETATM   10  S1  LIG X 999      46.708 130.014  17.352  1.00  0.00    -0.076 SA
HETATM   11  C10 LIG X 999      45.745 130.678  16.149  1.00  0.00     0.118 A 
HETATM   12  C11 LIG X 999      46.072 130.583  14.751  1.00  0.00     0.109 C 
HETATM   13  N1  LIG X 999      46.340 130.502  13.629  1.00  0.00    -0.191 NA
HETATM   14  C12 LIG X 999      44.626 131.305  16.728  1.00  0.00     0.133 A 
HETATM   15  C13 LIG X 999      44.617 131.208  18.149  1.00  0.00     0.026 A 
ENDROOT
BRANCH  14  16
HETATM   16  N2  LIG X 999      43.602 131.972  15.976  1.00  0.00    -0.070 NA
HETATM   17  N3  LIG X 999      43.343 131.714  14.799  1.00  0.00    -0.162 NA
HETATM   18  N4  LIG X 999      43.076 131.465  13.624  1.00  0.00     0.068 N 
ENDBRANCH  14  16
TORSDOF 1
ENDMDL
MODEL 3
REMARK VINA RESULT:      -5.4      1.692      2.651
REMARK  1 active torsions:
REMARK  status: ('A' for Active; 'I' for Inactive)
REMARK    1  A    between atoms: C12_14  and  N2_15 
ROOT
HETATM    1  C1  LIG X 999      45.634 130.573  16.010  1.00  0.00     0.001 A 
HETATM    2  C2  LIG X 999      46.210 130.184  17.216  1.00  0.00     0.001 A 
HETATM    3  C3  LIG X 999      45.586 130.484  18.430  1.00  0.00     0.013 A 
HETATM    4  C4  LIG X 999      44.359 131.186  18.460  1.00  0.00    -0.012 A 
HETATM    5  C5  LIG X 999      43.780 131.578  17.211  1.00  0.00    -0.025 A 
HETATM    6  C6  LIG X 999      44.426 131.266  16.004  1.00  0.00     0.012 A 
HETATM    7  C7  LIG X 999      42.559 132.279  17.174  1.00  0.00     0.013 A 
HETATM    8  C8  LIG X 999      41.893 132.605  18.354  1.00  0.00     0.021 A 
HETATM    9  C9  LIG X 999      42.456 132.224  19.564  1.00  0.00     0.020 A 
HETATM   10  S1  LIG X 999      41.812 132.520  21.080  1.00  0.00    -0.076 SA
HETATM   11  C10 LIG X 999      43.054 131.768  21.922  1.00  0.00     0.118 A 
HETATM   12  C11 LIG X 999      43.078 131.684  23.358  1.00  0.00     0.109 C 
HETATM   13  N1  LIG X 999      43.092 131.621  24.514  1.00  0.00    -0.191 NA
HETATM   14  C12 LIG X 999      44.006 131.265  21.017  1.00  0.00     0.133 A 
HETATM   15  C13 LIG X 999      43.664 131.527  19.659  1.00  0.00     0.026 A 
ENDROOT
BRANCH  14  16
HETATM   16  N2  LIG X 999      45.195 130.564  21.410  1.00  0.00    -0.070 NA
HETATM   17  N3  LIG X 999      45.193 129.422  21.872  1.00  0.00    -0.162 NA
HETATM   18  N4  LIG X 999      45.201 128.282  22.333  1.00  0.00     0.068 N 
ENDBRANCH  14  16
TORSDOF 1
ENDMDL
MODEL 4
REMARK VINA RESULT:      -5.3      7.953      9.628
REMARK  1 active torsions:
REMARK  status: ('A' for Active; 'I' for Inactive)
REMARK    1  A    between atoms: C12_14  and  N2_15 
ROOT
HETATM    1  C1  LIG X 999      44.465 128.786  23.374  1.00  0.00     0.001 A 
HETATM    2  C2  LIG X 999      43.181 128.806  23.910  1.00  0.00     0.001 A 
HETATM    3  C3  LIG X 999      42.408 127.642  23.945  1.00  0.00     0.013 A 
HETATM    4  C4  LIG X 999      42.912 126.422  23.440  1.00  0.00    -0.012 A 
HETATM    5  C5  LIG X 999      44.234 126.419  22.892  1.00  0.00    -0.025 A 
HETATM    6  C6  LIG X 999      44.992 127.601  22.868  1.00  0.00     0.012 A 
HETATM    7  C7  LIG X 999      44.793 125.234  22.374  1.00  0.00     0.013 A 
HETATM    8  C8  LIG X 999      44.068 124.045  22.383  1.00  0.00     0.021 A 
HETATM    9  C9  LIG X 999      42.786 124.050  22.914  1.00  0.00     0.020 A 
HETATM   10  S1  LIG X 999      41.762 122.731  23.016  1.00  0.00    -0.076 SA
HETATM   11  C10 LIG X 999      40.502 123.570  23.740  1.00  0.00     0.118 A 
HETATM   12  C11 LIG X 999      39.258 122.944  24.102  1.00  0.00     0.109 C 
HETATM   13  N1  LIG X 999      38.260 122.434  24.390  1.00  0.00    -0.191 NA
HETATM   14  C12 LIG X 999      40.869 124.917  23.918  1.00  0.00     0.133 A 
HETATM   15  C13 LIG X 999      42.182 125.195  23.442  1.00  0.00     0.026 A 
ENDROOT
BRANCH  14  16
HETATM   16  N2  LIG X 999      40.017 125.909  24.511  1.00  0.00    -0.070 NA
HETATM   17  N3  LIG X 999      38.976 126.312  23.990  1.00  0.00    -0.162 NA
HETATM   18  N4  LIG X 999      37.935 126.722  23.479  1.00  0.00     0.068 N 
ENDBRANCH  14  16
TORSDOF 1
ENDMDL
MODEL 5
REMARK VINA RESULT:      -4.9      2.053      3.356
REMARK  1 active torsions:
REMARK  status: ('A' for Active; 'I' for Inactive)
REMARK    1  A    between atoms: C12_14  and  N2_15 
ROOT
HETATM    1  C1  LIG X 999      44.149 131.388  13.828  1.00  0.00     0.001 A 
HETATM    2  C2  LIG X 999      43.146 131.907  14.641  1.00  0.00     0.001 A 
HETATM    3  C3  LIG X 999      43.248 131.830  16.032  1.00  0.00     0.013 A 
HETATM    4  C4  LIG X 999      44.371 131.227  16.643  1.00  0.00    -0.012 A 
HETATM    5  C5  LIG X 999      45.394 130.699  15.793  1.00  0.00    -0.025 A 
HETATM    6  C6  LIG X 999      45.268 130.787  14.398  1.00  0.00     0.012 A 
HETATM    7  C7  LIG X 999      46.537 130.086  16.342  1.00  0.00     0.013 A 
HETATM    8  C8  LIG X 999      46.692 129.982  17.723  1.00  0.00     0.021 A 
HETATM    9  C9  LIG X 999      45.699 130.494  18.545  1.00  0.00     0.020 A 
HETATM   10  S1  LIG X 999      45.702 130.467  20.219  1.00  0.00    -0.076 SA
HETATM   11  C10 LIG X 999      44.225 131.246  20.386  1.00  0.00     0.118 A 
HETATM   12  C11 LIG X 999      43.640 131.535  21.669  1.00  0.00     0.109 C 
HETATM   13  N1  LIG X 999      43.176 131.765  22.704  1.00  0.00    -0.191 NA
HETATM   14  C12 LIG X 999      43.698 131.545  19.116  1.00  0.00     0.133 A 
HETATM   15  C13 LIG X 999      44.545 131.113  18.056  1.00  0.00     0.026 A 
ENDROOT
BRANCH  14  16
HETATM   16  N2  LIG X 999      42.444 132.211  18.905  1.00  0.00    -0.070 NA
HETATM   17  N3  LIG X 999      41.854 132.847  19.779  1.00  0.00    -0.162 NA
HETATM   18  N4  LIG X 999      41.256 133.485  20.645  1.00  0.00     0.068 N 
ENDBRANCH  14  16
TORSDOF 1
ENDMDL
MODEL 6
REMARK VINA RESULT:      -4.8      7.966      8.842
REMARK  1 active torsions:
REMARK  status: ('A' for Active; 'I' for Inactive)
REMARK    1  A    between atoms: C12_14  and  N2_15 
ROOT
HETATM    1  C1  LIG X 999      46.276 124.962  22.363  1.00  0.00     0.001 A 
HETATM    2  C2  LIG X 999      45.201 124.079  22.356  1.00  0.00     0.001 A 
HETATM    3  C3  LIG X 999      43.923 124.514  22.718  1.00  0.00     0.013 A 
HETATM    4  C4  LIG X 999      43.695 125.856  23.096  1.00  0.00    -0.012 A 
HETATM    5  C5  LIG X 999      44.812 126.752  23.098  1.00  0.00    -0.025 A 
HETATM    6  C6  LIG X 999      46.086 126.291  22.730  1.00  0.00     0.012 A 
HETATM    7  C7  LIG X 999      44.649 128.102  23.465  1.00  0.00     0.013 A 
HETATM    8  C8  LIG X 999      43.398 128.590  23.835  1.00  0.00     0.021 A 
HETATM    9  C9  LIG X 999      42.316 127.720  23.834  1.00  0.00     0.020 A 
HETATM   10  S1  LIG X 999      40.742 128.114  24.243  1.00  0.00    -0.076 SA
HETATM   11  C10 LIG X 999      40.127 126.574  23.983  1.00  0.00     0.118 A 
HETATM   12  C11 LIG X 999      38.739 126.249  24.178  1.00  0.00     0.109 C 
HETATM   13  N1  LIG X 999      37.621 125.995  24.336  1.00  0.00    -0.191 NA
HETATM   14  C12 LIG X 999      41.159 125.715  23.564  1.00  0.00     0.133 A 
HETATM   15  C13 LIG X 999      42.420 126.372  23.478  1.00  0.00     0.026 A 
ENDROOT
BRANCH  14  16
HETATM   16  N2  LIG X 999      40.971 124.325  23.257  1.00  0.00    -0.070 NA
HETATM   17  N3  LIG X 999      40.292 123.561  23.945  1.00  0.00    -0.162 NA
HETATM   18  N4  LIG X 999      39.617 122.789  24.625  1.00  0.00     0.068 N 
ENDBRANCH  14  16
TORSDOF 1
ENDMDL
MODEL 7
REMARK VINA RESULT:      -4.7      6.328      8.258
REMARK  1 active torsions:
REMARK  status: ('A' for Active; 'I' for Inactive)
REMARK    1  A    between atoms: C12_14  and  N2_15 
ROOT
HETATM    1  C1  LIG X 999      43.627 131.389  22.875  1.00  0.00     0.001 A 
HETATM    2  C2  LIG X 999      44.631 130.628  22.283  1.00  0.00     0.001 A 
HETATM    3  C3  LIG X 999      44.634 129.236  22.406  1.00  0.00     0.013 A 
HETATM    4  C4  LIG X 999      43.619 128.572  23.132  1.00  0.00    -0.012 A 
HETATM    5  C5  LIG X 999      42.594 129.369  23.734  1.00  0.00    -0.025 A 
HETATM    6  C6  LIG X 999      42.613 130.766  23.596  1.00  0.00     0.012 A 
HETATM    7  C7  LIG X 999      41.555 128.765  24.469  1.00  0.00     0.013 A 
HETATM    8  C8  LIG X 999      41.508 127.382  24.625  1.00  0.00     0.021 A 
HETATM    9  C9  LIG X 999      42.503 126.611  24.041  1.00  0.00     0.020 A 
HETATM   10  S1  LIG X 999      42.619 124.943  24.113  1.00  0.00    -0.076 SA
HETATM   11  C10 LIG X 999      44.024 124.848  23.200  1.00  0.00     0.118 A 
HETATM   12  C11 LIG X 999      44.666 123.599  22.890  1.00  0.00     0.109 C 
HETATM   13  N1  LIG X 999      45.177 122.590  22.645  1.00  0.00    -0.191 NA
HETATM   14  C12 LIG X 999      44.429 126.140  22.817  1.00  0.00     0.133 A 
HETATM   15  C13 LIG X 999      43.556 127.156  23.300  1.00  0.00     0.026 A 
ENDROOT
BRANCH  14  16
HETATM   16  N2  LIG X 999      45.597 126.413  22.027  1.00  0.00    -0.070 NA
HETATM   17  N3  LIG X 999      46.716 125.969  22.289  1.00  0.00    -0.162 NA
HETATM   18  N4  LIG X 999      47.837 125.531  22.540  1.00  0.00     0.068 N 
ENDBRANCH  14  16
TORSDOF 1
ENDMDL
MODEL 8
REMARK VINA RESULT:      -4.7      7.598      8.209
REMARK  1 active torsions:
REMARK  status: ('A' for Active; 'I' for Inactive)
REMARK    1  A    between atoms: C12_14  and  N2_15 
ROOT
HETATM    1  C1  LIG X 999      48.383 124.106  21.857  1.00  0.00     0.001 A 
HETATM    2  C2  LIG X 999      48.154 125.393  22.337  1.00  0.00     0.001 A 
HETATM    3  C3  LIG X 999      46.861 125.806  22.669  1.00  0.00     0.013 A 
HETATM    4  C4  LIG X 999      45.762 124.929  22.528  1.00  0.00    -0.012 A 
HETATM    5  C5  LIG X 999      46.015 123.610  22.034  1.00  0.00    -0.025 A 
HETATM    6  C6  LIG X 999      47.323 123.218  21.706  1.00  0.00     0.012 A 
HETATM    7  C7  LIG X 999      44.961 122.690  21.871  1.00  0.00     0.013 A 
HETATM    8  C8  LIG X 999      43.652 123.048  22.186  1.00  0.00     0.021 A 
HETATM    9  C9  LIG X 999      43.408 124.328  22.665  1.00  0.00     0.020 A 
HETATM   10  S1  LIG X 999      41.914 124.944  23.098  1.00  0.00    -0.076 SA
HETATM   11  C10 LIG X 999      42.493 126.457  23.536  1.00  0.00     0.118 A 
HETATM   12  C11 LIG X 999      41.637 127.504  24.024  1.00  0.00     0.109 C 
HETATM   13  N1  LIG X 999      40.942 128.343  24.416  1.00  0.00    -0.191 NA
HETATM   14  C12 LIG X 999      43.886 126.504  23.348  1.00  0.00     0.133 A 
HETATM   15  C13 LIG X 999      44.415 125.281  22.847  1.00  0.00     0.026 A 
ENDROOT
BRANCH  14  16
HETATM   16  N2  LIG X 999      44.694 127.658  23.628  1.00  0.00    -0.070 NA
HETATM   17  N3  LIG X 999      44.682 128.681  22.942  1.00  0.00    -0.162 NA
HETATM   18  N4  LIG X 999      44.678 129.707  22.264  1.00  0.00     0.068 N 
ENDBRANCH  14  16
TORSDOF 1
ENDMDL
MODEL 9
REMARK VINA RESULT:      -4.7      7.018      7.966
REMARK  1 active torsions:
REMARK  status: ('A' for Active; 'I' for Inactive)
REMARK    1  A    between atoms: C12_14  and  N2_15 
ROOT
HETATM    1  C1  LIG X 999      45.277 123.597  22.466  1.00  0.00     0.001 A 
HETATM    2  C2  LIG X 999      45.879 124.841  22.308  1.00  0.00     0.001 A 
HETATM    3  C3  LIG X 999      45.192 126.010  22.646  1.00  0.00     0.013 A 
HETATM    4  C4  LIG X 999      43.874 125.954  23.154  1.00  0.00    -0.012 A 
HETATM    5  C5  LIG X 999      43.269 124.666  23.310  1.00  0.00    -0.025 A 
HETATM    6  C6  LIG X 999      43.980 123.506  22.964  1.00  0.00     0.012 A 
HETATM    7  C7  LIG X 999      41.959 124.544  23.812  1.00  0.00     0.013 A 
HETATM    8  C8  LIG X 999      41.227 125.676  24.165  1.00  0.00     0.021 A 
HETATM    9  C9  LIG X 999      41.814 126.924  24.012  1.00  0.00     0.020 A 
HETATM   10  S1  LIG X 999      41.102 128.393  24.379  1.00  0.00    -0.076 SA
HETATM   11  C10 LIG X 999      42.423 129.321  23.922  1.00  0.00     0.118 A 
HETATM   12  C11 LIG X 999      42.430 130.757  24.007  1.00  0.00     0.109 C 
HETATM   13  N1  LIG X 999      42.429 131.913  24.078  1.00  0.00    -0.191 NA
HETATM   14  C12 LIG X 999      43.459 128.484  23.470  1.00  0.00     0.133 A 
HETATM   15  C13 LIG X 999      43.111 127.103  23.521  1.00  0.00     0.026 A 
ENDROOT
BRANCH  14  16
HETATM   16  N2  LIG X 999      44.731 128.960  23.004  1.00  0.00    -0.070 NA
HETATM   17  N3  LIG X 999      44.860 129.778  22.092  1.00  0.00    -0.162 NA
HETATM   18  N4  LIG X 999      45.000 130.595  21.183  1.00  0.00     0.068 N 
ENDBRANCH  14  16
TORSDOF 1
ENDMDL
