REMARK VINA RESULT:      -7.9      2.953      6.838
REMARK  4 active torsions:
REMARK  status: ('A' for Active; 'I' for Inactive)
REMARK    1  A    between atoms: O1_2  and  C1_3 
REMARK    2  A    between atoms: C1_3  and  C14_17 
REMARK    3  A    between atoms: N1_4  and  C2_5 
REMARK    4  A    between atoms: C2_5  and  C3_6 
ROOT
HETATM    1  C3  LIG X 999      44.971 131.143  19.028  1.00  0.00    -0.033 A 
HETATM    2  C4  LIG X 999      43.758 131.697  18.586  1.00  0.00     0.010 A 
HETATM    3  C5  LIG X 999      43.478 131.798  17.221  1.00  0.00     0.013 A 
HETATM    4  C6  LIG X 999      44.403 131.337  16.275  1.00  0.00    -0.026 A 
HETATM    5  C7  LIG X 999      44.130 131.434  14.901  1.00  0.00     0.012 A 
HETATM    6  C8  LIG X 999      45.059 130.968  13.967  1.00  0.00     0.001 A 
HETATM    7  C9  LIG X 999      46.264 130.403  14.395  1.00  0.00     0.001 A 
HETATM    8  C10 LIG X 999      46.548 130.301  15.760  1.00  0.00     0.012 A 
HETATM    9  C11 LIG X 999      45.624 130.767  16.708  1.00  0.00    -0.025 A 
HETATM   10  C12 LIG X 999      45.897 130.669  18.080  1.00  0.00     0.021 A 
ENDROOT
BRANCH   1  11
HETATM   11  C2  LIG X 999      45.253 131.018  20.509  1.00  0.00     0.139 C 
HETATM   12  C13 LIG X 999      46.491 131.842  20.881  1.00  0.00     0.039 C 
BRANCH  11  13
HETATM   13  N1  LIG X 999      44.087 131.473  21.270  1.00  0.00    -0.261 NA
HETATM   14  C1  LIG X 999      43.815 131.110  22.488  1.00  0.00     0.132 C 
BRANCH  14  15
HETATM   15  O1  LIG X 999      44.637 130.205  23.161  1.00  0.00    -0.348 OA
HETATM   16  H1  LIG X 999      45.605 130.077  22.893  1.00  0.00     0.219 HD
ENDBRANCH  14  15
BRANCH  14  17
HETATM   17  C14 LIG X 999      42.584 131.642  23.158  1.00  0.00     0.081 C 
HETATM   18  C15 LIG X 999      42.875 131.997  24.611  1.00  0.00     0.013 C 
ENDBRANCH  14  17
ENDBRANCH  11  13
ENDBRANCH   1  11
TORSDOF 4
