REMARK VINA RESULT:      -6.9      0.814      1.750
REMARK  7 active torsions:
REMARK  status: ('A' for Active; 'I' for Inactive)
REMARK    1  A    between atoms: S1_2  and  C1_3 
REMARK    2  A    between atoms: C1_3  and  N2_11 
REMARK    3  A    between atoms: N1_4  and  C2_6 
REMARK    4  A    between atoms: C2_6  and  C3_7 
REMARK    5  A    between atoms: C3_7  and  C4_8 
REMARK    6  A    between atoms: C4_8  and  S2_9 
REMARK    7  A    between atoms: N2_11  and  C5_14 
ROOT
HETATM    1  N2  LIG X 999      45.115 130.459  18.664  1.00  0.00     0.006 N 
HETATM    2  H10 LIG X 999      45.871 130.422  19.386  1.00  0.00     0.293 HD
HETATM    3  H11 LIG X 999      44.698 129.500  18.628  1.00  0.00     0.293 HD
ENDROOT
BRANCH   1   4
HETATM    4  C1  LIG X 999      44.093 131.404  19.075  1.00  0.00     0.240 C 
HETATM    5  N1  LIG X 999      44.029 131.910  20.271  1.00  0.00    -0.365 N 
HETATM    6  H2  LIG X 999      43.264 132.570  20.479  1.00  0.00     0.161 HD
BRANCH   4   7
HETATM    7  S1  LIG X 999      42.794 131.829  17.900  1.00  0.00    -0.100 SA
HETATM    8  H1  LIG X 999      41.796 131.802  18.891  1.00  0.00     0.110 HD
ENDBRANCH   4   7
BRANCH   5   9
HETATM    9  C2  LIG X 999      44.986 131.676  21.338  1.00  0.00     0.122 C 
BRANCH   9  10
HETATM   10  C3  LIG X 999      44.567 130.452  22.165  1.00  0.00     0.029 C 
BRANCH  10  11
HETATM   11  C4  LIG X 999      43.077 130.465  22.521  1.00  0.00     0.072 C 
BRANCH  11  12
HETATM   12  S2  LIG X 999      42.725 131.609  23.895  1.00  0.00    -0.182 SA
HETATM   13  H9  LIG X 999      44.084 131.771  24.221  1.00  0.00     0.101 HD
ENDBRANCH  11  12
ENDBRANCH  10  11
ENDBRANCH   9  10
ENDBRANCH   5   9
ENDBRANCH   1   4
BRANCH   1  14
HETATM   14  C5  LIG X 999      45.629 130.756  17.348  1.00  0.00     0.141 A 
HETATM   15  C6  LIG X 999      45.407 132.017  16.766  1.00  0.00     0.038 A 
HETATM   16  C7  LIG X 999      45.896 132.312  15.490  1.00  0.00     0.014 A 
HETATM   17  C8  LIG X 999      46.637 131.355  14.782  1.00  0.00    -0.026 A 
HETATM   18  C9  LIG X 999      47.126 131.638  13.498  1.00  0.00     0.012 A 
HETATM   19  C13 LIG X 999      46.900 130.097  15.371  1.00  0.00    -0.024 A 
HETATM   20  C10 LIG X 999      47.872 130.681  12.804  1.00  0.00     0.001 A 
HETATM   21  C11 LIG X 999      48.134 129.437  13.387  1.00  0.00     0.001 A 
HETATM   22  C12 LIG X 999      47.652 129.144  14.666  1.00  0.00     0.012 A 
HETATM   23  C14 LIG X 999      46.406 129.811  16.652  1.00  0.00     0.049 A 
ENDBRANCH   1  14
TORSDOF 7
