REMARK VINA RESULT:      -5.7      3.504      6.332
REMARK  3 active torsions:
REMARK  status: ('A' for Active; 'I' for Inactive)
REMARK    1  A    between atoms: C3_3  and  S1_4 
REMARK    2  A    between atoms: S1_4  and  C4_7 
REMARK    3  A    between atoms: C13_16  and  N1_17 
ROOT
HETATM    1  C1  LIG X 999      42.583 131.819  23.753  1.00  0.00     0.013 C 
HETATM    2  C2  LIG X 999      42.806 131.765  22.569  1.00  0.00    -0.102 C 
HETATM    3  C3  LIG X 999      43.080 131.701  21.132  1.00  0.00     0.238 C 
ENDROOT
BRANCH   3   4
HETATM    4  S1  LIG X 999      44.794 131.302  20.852  1.00  0.00     0.185 S 
HETATM    5  O1  LIG X 999      45.149 130.064  21.625  1.00  0.00    -0.222 OA
HETATM    6  O2  LIG X 999      45.662 132.432  21.332  1.00  0.00    -0.222 OA
BRANCH   4   7
HETATM    7  C4  LIG X 999      45.070 131.024  19.134  1.00  0.00     0.060 A 
HETATM    8  C5  LIG X 999      46.141 130.227  18.717  1.00  0.00     0.024 A 
HETATM    9  C6  LIG X 999      46.346 129.982  17.358  1.00  0.00     0.011 A 
HETATM   10  C7  LIG X 999      45.478 130.522  16.394  1.00  0.00    -0.019 A 
HETATM   11  C8  LIG X 999      44.396 131.335  16.814  1.00  0.00    -0.048 A 
HETATM   12  C13 LIG X 999      45.776 130.289  14.925  1.00  0.00     0.251 C 
HETATM   13  C9  LIG X 999      44.195 131.564  18.184  1.00  0.00     0.031 A 
HETATM   14  C10 LIG X 999      43.370 131.858  15.835  1.00  0.00     0.039 C 
HETATM   15  C11 LIG X 999      43.866 131.850  14.387  1.00  0.00     0.007 C 
HETATM   16  C12 LIG X 999      44.526 130.509  14.055  1.00  0.00     0.040 C 
BRANCH  12  17
HETATM   17  N1  LIG X 999      46.855 131.182  14.493  1.00  0.00     0.087 N 
HETATM   18  H14 LIG X 999      47.311 131.589  15.342  1.00  0.00     0.313 HD
HETATM   19  H15 LIG X 999      47.593 130.608  14.024  1.00  0.00     0.313 HD
ENDBRANCH  12  17
ENDBRANCH   4   7
ENDBRANCH   3   4
TORSDOF 3
