REMARK VINA RESULT:      -5.7      1.905      3.301
REMARK  1 active torsions:
REMARK  status: ('A' for Active; 'I' for Inactive)
REMARK    1  A    between atoms: N1_1  and  C1_2 
ROOT
HETATM    1  C1  LIG X 999      46.576 130.585  13.758  1.00  0.00     0.103 A 
HETATM    2  C2  LIG X 999      45.347 131.186  14.048  1.00  0.00     0.049 A 
HETATM    3  C3  LIG X 999      44.916 131.275  15.375  1.00  0.00     0.001 A 
HETATM    4  C4  LIG X 999      43.691 131.870  15.700  1.00  0.00     0.015 A 
HETATM    5  C5  LIG X 999      43.279 131.948  17.031  1.00  0.00     0.013 A 
HETATM    6  C6  LIG X 999      44.087 131.431  18.055  1.00  0.00    -0.023 A 
HETATM    7  C7  LIG X 999      43.671 131.511  19.394  1.00  0.00     0.012 A 
HETATM    8  C8  LIG X 999      44.476 130.995  20.412  1.00  0.00     0.001 A 
HETATM    9  C9  LIG X 999      45.700 130.398  20.104  1.00  0.00     0.001 A 
HETATM   10  C10 LIG X 999      46.128 130.312  18.777  1.00  0.00     0.015 A 
HETATM   11  C11 LIG X 999      45.330 130.825  17.739  1.00  0.00     0.009 A 
HETATM   12  C12 LIG X 999      45.742 130.748  16.393  1.00  0.00     0.101 A 
HETATM   13  O1  LIG X 999      46.906 130.183  16.073  1.00  0.00    -0.272 OA
HETATM   14  C13 LIG X 999      47.344 130.084  14.822  1.00  0.00     0.314 A 
HETATM   15  O2  LIG X 999      48.456 129.535  14.602  1.00  0.00    -0.257 OA
ENDROOT
BRANCH   1  16
HETATM   16  N1  LIG X 999      47.027 130.489  12.402  1.00  0.00    -0.394 N 
HETATM   17  H1  LIG X 999      46.855 131.260  11.718  1.00  0.00     0.156 HD
HETATM   18  H2  LIG X 999      47.539 129.642  12.068  1.00  0.00     0.156 HD
ENDBRANCH   1  16
TORSDOF 1
