REMARK VINA RESULT:      -6.3      3.082      6.269
REMARK  3 active torsions:
REMARK  status: ('A' for Active; 'I' for Inactive)
REMARK    1  A    between atoms: C3_3  and  S1_4 
REMARK    2  A    between atoms: S1_4  and  C4_7 
REMARK    3  A    between atoms: C12_15  and  N1_16 
ROOT
HETATM    1  C1  LIG X 999      41.652 129.524  24.222  1.00  0.00     0.013 C 
HETATM    2  C2  LIG X 999      42.200 130.456  23.688  1.00  0.00    -0.102 C 
HETATM    3  C3  LIG X 999      42.867 131.587  23.037  1.00  0.00     0.233 C 
ENDROOT
BRANCH   3   4
HETATM    4  S1  LIG X 999      44.294 131.034  22.113  1.00  0.00     0.159 S 
HETATM    5  O1  LIG X 999      44.747 129.696  22.627  1.00  0.00    -0.227 OA
HETATM    6  O2  LIG X 999      45.399 132.033  22.314  1.00  0.00    -0.227 OA
BRANCH   4   7
HETATM    7  C4  LIG X 999      43.926 130.924  20.357  1.00  0.00     0.116 C 
HETATM    8  C5  LIG X 999      45.191 131.146  19.515  1.00  0.00     0.059 C 
HETATM    9  C6  LIG X 999      44.893 131.256  18.039  1.00  0.00    -0.049 A 
HETATM   10  C7  LIG X 999      45.944 131.071  17.127  1.00  0.00     0.007 A 
HETATM   11  C11 LIG X 999      43.607 131.614  17.561  1.00  0.00    -0.019 A 
HETATM   12  C8  LIG X 999      45.720 131.187  15.754  1.00  0.00     0.001 A 
HETATM   13  C9  LIG X 999      44.446 131.492  15.277  1.00  0.00     0.001 A 
HETATM   14  C10 LIG X 999      43.395 131.695  16.171  1.00  0.00     0.010 A 
HETATM   15  C12 LIG X 999      42.428 131.779  18.506  1.00  0.00     0.252 C 
HETATM   16  C13 LIG X 999      42.864 131.961  19.974  1.00  0.00     0.060 C 
BRANCH  15  17
HETATM   17  N1  LIG X 999      41.586 132.904  18.085  1.00  0.00     0.087 N 
HETATM   18  H12 LIG X 999      40.778 132.987  18.744  1.00  0.00     0.313 HD
HETATM   19  H13 LIG X 999      42.138 133.791  18.145  1.00  0.00     0.313 HD
ENDBRANCH  15  17
ENDBRANCH   4   7
ENDBRANCH   3   4
TORSDOF 3
