REMARK VINA RESULT:      -6.7      1.673      5.853
REMARK  3 active torsions:
REMARK  status: ('A' for Active; 'I' for Inactive)
REMARK    1  A    between atoms: C3_3  and  O1_4 
REMARK    2  A    between atoms: O1_4  and  C4_5 
REMARK    3  A    between atoms: C13_14  and  C14_15 
ROOT
HETATM    1  C1  LIG X 999      44.278 128.854  23.393  1.00  0.00     0.014 C 
HETATM    2  C2  LIG X 999      43.634 129.778  22.966  1.00  0.00    -0.091 C 
HETATM    3  C3  LIG X 999      42.850 130.899  22.446  1.00  0.00     0.268 C 
ENDROOT
BRANCH   3   4
HETATM    4  O1  LIG X 999      43.682 131.704  21.616  1.00  0.00    -0.339 OA
BRANCH   4   5
HETATM    5  C4  LIG X 999      43.668 131.693  20.210  1.00  0.00     0.084 A 
HETATM    6  C5  LIG X 999      42.526 132.094  19.494  1.00  0.00     0.039 A 
HETATM    7  C6  LIG X 999      42.504 132.051  18.105  1.00  0.00     0.015 A 
HETATM    8  C7  LIG X 999      43.627 131.623  17.392  1.00  0.00    -0.025 A 
HETATM    9  C8  LIG X 999      43.590 131.596  15.988  1.00  0.00     0.012 A 
HETATM   10  C12 LIG X 999      44.802 131.226  18.084  1.00  0.00    -0.010 A 
HETATM   11  C9  LIG X 999      44.709 131.195  15.261  1.00  0.00     0.001 A 
HETATM   12  C10 LIG X 999      45.877 130.827  15.925  1.00  0.00     0.001 A 
HETATM   13  C11 LIG X 999      45.931 130.845  17.321  1.00  0.00     0.013 A 
HETATM   14  C13 LIG X 999      44.817 131.253  19.509  1.00  0.00     0.046 A 
BRANCH  14  15
HETATM   15  C14 LIG X 999      46.005 130.792  20.276  1.00  0.00     0.273 C 
HETATM   16  O2  LIG X 999      46.144 129.582  20.597  1.00  0.00    -0.301 OA
ENDBRANCH  14  15
ENDBRANCH   4   5
ENDBRANCH   3   4
TORSDOF 3
