REMARK VINA RESULT:      -5.0      2.606      6.448
REMARK  5 active torsions:
REMARK  status: ('A' for Active; 'I' for Inactive)
REMARK    1  A    between atoms: C3_3  and  C4_4 
REMARK    2  A    between atoms: C4_4  and  S1_5 
REMARK    3  A    between atoms: S1_5  and  C5_6 
REMARK    4  A    between atoms: C6_7  and  N1_8 
REMARK    5  A    between atoms: C10_12  and  N2_13 
ROOT
HETATM    1  C1  LIG X 999      46.119 130.354  16.684  1.00  0.00     0.112 C 
HETATM    2  C2  LIG X 999      45.439 130.731  17.923  1.00  0.00    -0.110 C 
HETATM    3  C3  LIG X 999      44.864 131.026  18.941  1.00  0.00    -0.097 C 
ENDROOT
BRANCH   3   4
HETATM    4  C4  LIG X 999      44.150 131.364  20.176  1.00  0.00     0.173 C 
BRANCH   4   5
HETATM    5  S1  LIG X 999      45.218 131.081  21.630  1.00  0.00    -0.115 SA
BRANCH   5   6
HETATM    6  C5  LIG X 999      44.009 130.063  22.522  1.00  0.00     0.038 A 
HETATM    7  C6  LIG X 999      42.828 130.658  23.017  1.00  0.00     0.043 A 
HETATM    8  C7  LIG X 999      41.916 129.887  23.740  1.00  0.00     0.031 A 
HETATM    9  C8  LIG X 999      42.155 128.540  23.995  1.00  0.00     0.017 A 
HETATM   10  C9  LIG X 999      43.322 127.912  23.523  1.00  0.00     0.002 A 
HETATM   11  C10 LIG X 999      43.590 126.535  23.786  1.00  0.00     0.045 A 
HETATM   12  C14 LIG X 999      44.244 128.679  22.739  1.00  0.00    -0.004 A 
HETATM   13  C11 LIG X 999      44.746 125.968  23.229  1.00  0.00     0.003 A 
HETATM   14  C12 LIG X 999      45.598 126.692  22.458  1.00  0.00    -0.021 A 
HETATM   15  C18 LIG X 999      45.241 124.574  23.356  1.00  0.00     0.278 C 
HETATM   16  C13 LIG X 999      45.377 128.037  22.190  1.00  0.00     0.023 A 
HETATM   17  C15 LIG X 999      46.726 125.860  21.988  1.00  0.00     0.276 C 
HETATM   18  N3  LIG X 999      46.594 124.561  22.715  1.00  0.00    -0.067 N 
HETATM   19  C16 LIG X 999      46.720 123.421  21.778  1.00  0.00     0.272 C 
HETATM   20  C17 LIG X 999      47.647 124.451  23.753  1.00  0.00     0.272 C 
BRANCH   7  21
HETATM   21  N1  LIG X 999      42.534 132.046  22.797  1.00  0.00    -0.398 N 
HETATM   22  H6  LIG X 999      42.192 132.644  23.582  1.00  0.00     0.156 HD
HETATM   23  H7  LIG X 999      42.635 132.501  21.865  1.00  0.00     0.156 HD
ENDBRANCH   7  21
BRANCH  11  24
HETATM   24  N2  LIG X 999      42.738 125.725  24.612  1.00  0.00    -0.398 N 
HETATM   25  H10 LIG X 999      42.488 125.984  25.590  1.00  0.00     0.156 HD
HETATM   26  H11 LIG X 999      42.428 124.781  24.294  1.00  0.00     0.156 HD
ENDBRANCH  11  24
ENDBRANCH   5   6
ENDBRANCH   4   5
ENDBRANCH   3   4
TORSDOF 5
