MODEL 1
REMARK VINA RESULT:      -7.8      0.000      0.000
REMARK  2 active torsions:
REMARK  status: ('A' for Active; 'I' for Inactive)
REMARK    1  A    between atoms: O1_2  and  C2_3 
REMARK    2  A    between atoms: C11_12  and  N1_13 
ROOT
HETATM    1  C2  LIG X 999      45.621 130.940  15.844  1.00  0.00     0.095 A 
HETATM    2  C3  LIG X 999      46.026 130.705  17.173  1.00  0.00     0.051 A 
HETATM    3  C4  LIG X 999      45.162 130.984  18.241  1.00  0.00    -0.023 A 
HETATM    4  C5  LIG X 999      45.567 130.751  19.570  1.00  0.00     0.021 A 
HETATM    5  C6  LIG X 999      44.673 131.039  20.601  1.00  0.00    -0.024 A 
HETATM    6  C7  LIG X 999      43.433 131.543  20.351  1.00  0.00    -0.024 A 
HETATM    7  C8  LIG X 999      42.997 131.795  19.049  1.00  0.00     0.021 A 
HETATM    8  C9  LIG X 999      43.868 131.510  17.979  1.00  0.00    -0.023 A 
HETATM    9  C10 LIG X 999      43.471 131.743  16.657  1.00  0.00     0.044 A 
HETATM   10  C11 LIG X 999      44.337 131.461  15.590  1.00  0.00     0.060 A 
HETATM   11  C12 LIG X 999      42.705 131.784  21.614  1.00  0.00     0.276 C 
HETATM   12  N2  LIG X 999      43.575 131.220  22.696  1.00  0.00    -0.067 N 
HETATM   13  C13 LIG X 999      43.752 132.200  23.791  1.00  0.00     0.272 C 
HETATM   14  C14 LIG X 999      42.963 129.987  23.247  1.00  0.00     0.272 C 
HETATM   15  C15 LIG X 999      44.891 130.896  22.057  1.00  0.00     0.276 C 
ENDROOT
BRANCH  10  16
HETATM   16  N1  LIG X 999      43.903 131.709  14.248  1.00  0.00    -0.397 N 
HETATM   17  H8  LIG X 999      44.571 132.011  13.506  1.00  0.00     0.156 HD
HETATM   18  H9  LIG X 999      42.900 131.591  13.982  1.00  0.00     0.156 HD
ENDBRANCH  10  16
BRANCH   1  19
HETATM   19  O1  LIG X 999      46.467 130.668  14.755  1.00  0.00    -0.354 OA
HETATM   20  C1  LIG X 999      47.107 129.419  14.518  1.00  0.00     0.210 C 
ENDBRANCH   1  19
TORSDOF 2
ENDMDL
MODEL 2
REMARK VINA RESULT:      -7.7      2.504      6.391
REMARK  2 active torsions:
REMARK  status: ('A' for Active; 'I' for Inactive)
REMARK    1  A    between atoms: O1_2  and  C2_3 
REMARK    2  A    between atoms: C11_12  and  N1_13 
ROOT
HETATM    1  C2  LIG X 999      44.079 131.090  22.638  1.00  0.00     0.095 A 
HETATM    2  C3  LIG X 999      44.998 130.680  21.651  1.00  0.00     0.051 A 
HETATM    3  C4  LIG X 999      44.746 130.928  20.295  1.00  0.00    -0.023 A 
HETATM    4  C5  LIG X 999      45.663 130.516  19.308  1.00  0.00     0.021 A 
HETATM    5  C6  LIG X 999      45.374 130.789  17.971  1.00  0.00    -0.024 A 
HETATM    6  C7  LIG X 999      44.231 131.432  17.605  1.00  0.00    -0.024 A 
HETATM    7  C8  LIG X 999      43.294 131.849  18.551  1.00  0.00     0.021 A 
HETATM    8  C9  LIG X 999      43.553 131.600  19.913  1.00  0.00    -0.023 A 
HETATM    9  C10 LIG X 999      42.642 132.005  20.897  1.00  0.00     0.044 A 
HETATM   10  C11 LIG X 999      42.898 131.755  22.253  1.00  0.00     0.060 A 
HETATM   11  C12 LIG X 999      44.158 131.565  16.135  1.00  0.00     0.276 C 
HETATM   12  N2  LIG X 999      45.475 131.072  15.618  1.00  0.00    -0.067 N 
HETATM   13  C13 LIG X 999      45.275 130.094  14.525  1.00  0.00     0.272 C 
HETATM   14  C14 LIG X 999      46.277 132.209  15.108  1.00  0.00     0.272 C 
HETATM   15  C15 LIG X 999      46.173 130.432  16.779  1.00  0.00     0.276 C 
ENDROOT
BRANCH  10  16
HETATM   16  N1  LIG X 999      41.949 132.182  23.237  1.00  0.00    -0.397 N 
HETATM   17  H8  LIG X 999      41.532 133.138  23.214  1.00  0.00     0.156 HD
HETATM   18  H9  LIG X 999      41.654 131.540  24.006  1.00  0.00     0.156 HD
ENDBRANCH  10  16
BRANCH   1  19
HETATM   19  O1  LIG X 999      44.308 130.854  24.004  1.00  0.00    -0.354 OA
HETATM   20  C1  LIG X 999      44.252 129.574  24.624  1.00  0.00     0.210 C 
ENDBRANCH   1  19
TORSDOF 2
ENDMDL
MODEL 3
REMARK VINA RESULT:      -7.3      1.370      2.454
REMARK  2 active torsions:
REMARK  status: ('A' for Active; 'I' for Inactive)
REMARK    1  A    between atoms: O1_2  and  C2_3 
REMARK    2  A    between atoms: C11_12  and  N1_13 
ROOT
HETATM    1  C2  LIG X 999      44.877 131.463  16.315  1.00  0.00     0.095 A 
HETATM    2  C3  LIG X 999      43.978 131.886  17.315  1.00  0.00     0.051 A 
HETATM    3  C4  LIG X 999      44.169 131.508  18.651  1.00  0.00    -0.023 A 
HETATM    4  C5  LIG X 999      43.269 131.929  19.650  1.00  0.00     0.021 A 
HETATM    5  C6  LIG X 999      43.501 131.535  20.968  1.00  0.00    -0.024 A 
HETATM    6  C7  LIG X 999      44.565 130.753  21.302  1.00  0.00    -0.024 A 
HETATM    7  C8  LIG X 999      45.474 130.309  20.341  1.00  0.00     0.021 A 
HETATM    8  C9  LIG X 999      45.280 130.693  18.999  1.00  0.00    -0.023 A 
HETATM    9  C10 LIG X 999      46.169 130.274  18.003  1.00  0.00     0.044 A 
HETATM   10  C11 LIG X 999      45.976 130.653  16.667  1.00  0.00     0.060 A 
HETATM   11  C12 LIG X 999      44.559 130.458  22.750  1.00  0.00     0.276 C 
HETATM   12  N2  LIG X 999      43.449 131.284  23.326  1.00  0.00    -0.067 N 
HETATM   13  C13 LIG X 999      42.571 130.456  24.184  1.00  0.00     0.272 C 
HETATM   14  C14 LIG X 999      44.010 132.392  24.136  1.00  0.00     0.272 C 
HETATM   15  C15 LIG X 999      42.684 131.837  22.163  1.00  0.00     0.276 C 
ENDROOT
BRANCH  10  16
HETATM   16  N1  LIG X 999      46.903 130.211  15.669  1.00  0.00    -0.397 N 
HETATM   17  H8  LIG X 999      46.777 130.454  14.662  1.00  0.00     0.156 HD
HETATM   18  H9  LIG X 999      47.731 129.632  15.931  1.00  0.00     0.156 HD
ENDBRANCH  10  16
BRANCH   1  19
HETATM   19  O1  LIG X 999      44.708 131.826  14.969  1.00  0.00    -0.354 OA
HETATM   20  C1  LIG X 999      43.574 131.493  14.176  1.00  0.00     0.210 C 
ENDBRANCH   1  19
TORSDOF 2
ENDMDL
MODEL 4
REMARK VINA RESULT:      -6.7      2.587      6.743
REMARK  2 active torsions:
REMARK  status: ('A' for Active; 'I' for Inactive)
REMARK    1  A    between atoms: O1_2  and  C2_3 
REMARK    2  A    between atoms: C11_12  and  N1_13 
ROOT
HETATM    1  C2  LIG X 999      43.180 131.421  22.473  1.00  0.00     0.095 A 
HETATM    2  C3  LIG X 999      42.934 131.833  21.148  1.00  0.00     0.051 A 
HETATM    3  C4  LIG X 999      43.792 131.446  20.110  1.00  0.00    -0.023 A 
HETATM    4  C5  LIG X 999      43.547 131.860  18.786  1.00  0.00     0.021 A 
HETATM    5  C6  LIG X 999      44.425 131.447  17.784  1.00  0.00    -0.024 A 
HETATM    6  C7  LIG X 999      45.507 130.667  18.059  1.00  0.00    -0.024 A 
HETATM    7  C8  LIG X 999      45.788 130.242  19.359  1.00  0.00     0.021 A 
HETATM    8  C9  LIG X 999      44.921 130.631  20.398  1.00  0.00    -0.023 A 
HETATM    9  C10 LIG X 999      45.163 130.225  21.716  1.00  0.00     0.044 A 
HETATM   10  C11 LIG X 999      44.301 130.614  22.753  1.00  0.00     0.060 A 
HETATM   11  C12 LIG X 999      46.283 130.401  16.829  1.00  0.00     0.276 C 
HETATM   12  N2  LIG X 999      45.472 130.975  15.708  1.00  0.00    -0.067 N 
HETATM   13  C13 LIG X 999      46.311 131.831  14.840  1.00  0.00     0.272 C 
HETATM   14  C14 LIG X 999      44.892 129.882  14.891  1.00  0.00     0.272 C 
HETATM   15  C15 LIG X 999      44.377 131.776  16.343  1.00  0.00     0.276 C 
ENDROOT
BRANCH  10  16
HETATM   16  N1  LIG X 999      44.572 130.182  24.091  1.00  0.00    -0.397 N 
HETATM   17  H8  LIG X 999      43.974 129.473  24.568  1.00  0.00     0.156 HD
HETATM   18  H9  LIG X 999      45.382 130.573  24.623  1.00  0.00     0.156 HD
ENDBRANCH  10  16
BRANCH   1  19
HETATM   19  O1  LIG X 999      42.336 131.794  23.532  1.00  0.00    -0.354 OA
HETATM   20  C1  LIG X 999      42.723 132.622  24.624  1.00  0.00     0.210 C 
ENDBRANCH   1  19
TORSDOF 2
ENDMDL
