REMARK VINA RESULT:      -8.0      2.638      6.405
REMARK  5 active torsions:
REMARK  status: ('A' for Active; 'I' for Inactive)
REMARK    1  A    between atoms: N1_1  and  C1_2 
REMARK    2  A    between atoms: C1_2  and  C2_3 
REMARK    3  A    between atoms: C2_3  and  C3_4 
REMARK    4  A    between atoms: C3_4  and  O1_5 
REMARK    5  A    between atoms: O1_5  and  C4_6 
ROOT
HETATM    1  C4  LIG X 999      45.262 131.064  16.954  1.00  0.00     0.069 A 
HETATM    2  C5  LIG X 999      43.957 131.553  16.749  1.00  0.00     0.037 A 
HETATM    3  C6  LIG X 999      43.127 131.833  17.837  1.00  0.00     0.015 A 
HETATM    4  C7  LIG X 999      43.585 131.632  19.145  1.00  0.00    -0.026 A 
HETATM    5  C8  LIG X 999      42.759 131.911  20.246  1.00  0.00     0.012 A 
HETATM    6  C9  LIG X 999      43.229 131.705  21.546  1.00  0.00     0.001 A 
HETATM    7  C10 LIG X 999      44.523 131.221  21.758  1.00  0.00     0.001 A 
HETATM    8  C11 LIG X 999      45.355 130.939  20.671  1.00  0.00     0.012 A 
HETATM    9  C12 LIG X 999      44.896 131.141  19.360  1.00  0.00    -0.023 A 
HETATM   10  C13 LIG X 999      45.722 130.862  18.261  1.00  0.00     0.049 A 
ENDROOT
BRANCH   1  11
HETATM   11  O1  LIG X 999      46.130 130.770  15.893  1.00  0.00    -0.351 OA
BRANCH  11  12
HETATM   12  C3  LIG X 999      46.481 131.686  14.858  1.00  0.00     0.177 C 
BRANCH  12  13
HETATM   13  C2  LIG X 999      46.605 130.949  13.522  1.00  0.00     0.056 C 
BRANCH  13  14
HETATM   14  C1  LIG X 999      47.933 130.197  13.367  1.00  0.00     0.269 C 
BRANCH  14  15
HETATM   15  N1  LIG X 999      47.933 128.968  14.156  1.00  0.00     0.078 N 
HETATM   16  H1  LIG X 999      47.195 129.048  14.892  1.00  0.00     0.312 HD
HETATM   17  H2  LIG X 999      47.632 128.187  13.530  1.00  0.00     0.312 HD
ENDBRANCH  14  15
ENDBRANCH  13  14
ENDBRANCH  12  13
ENDBRANCH  11  12
ENDBRANCH   1  11
TORSDOF 5
