REMARK VINA RESULT:      -5.7      2.665      7.734
REMARK  4 active torsions:
REMARK  status: ('A' for Active; 'I' for Inactive)
REMARK    1  A    between atoms: C1_2  and  C2_4 
REMARK    2  A    between atoms: C8_10  and  C9_11 
REMARK       I    between atoms: C9_11  and  N1_13 
REMARK    3  A    between atoms: N1_13  and  S1_14 
REMARK    4  A    between atoms: S1_14  and  C10_17 
ROOT
HETATM    1  C9  LIG X 999      45.544 131.146  17.547  1.00  0.00     0.259 C 
HETATM    2  O3  LIG X 999      45.349 132.388  17.459  1.00  0.00    -0.270 OA
HETATM    3  N1  LIG X 999      45.411 130.489  18.809  1.00  0.00    -0.122 NA
ENDROOT
BRANCH   3   4
HETATM    4  S1  LIG X 999      45.008 131.343  20.259  1.00  0.00     0.286 S 
HETATM    5  O4  LIG X 999      46.200 132.147  20.697  1.00  0.00    -0.198 OA
HETATM    6  O5  LIG X 999      43.861 132.274  19.983  1.00  0.00    -0.198 OA
BRANCH   4   7
HETATM    7  C10 LIG X 999      44.534 130.202  21.513  1.00  0.00     0.082 A 
HETATM    8  C11 LIG X 999      43.511 130.538  22.409  1.00  0.00     0.026 A 
HETATM    9  C12 LIG X 999      43.120 129.639  23.405  1.00  0.00     0.014 A 
HETATM   10  C13 LIG X 999      43.754 128.392  23.519  1.00  0.00    -0.026 A 
HETATM   11  C14 LIG X 999      43.370 127.482  24.516  1.00  0.00     0.012 A 
HETATM   12  C18 LIG X 999      44.794 128.052  22.620  1.00  0.00    -0.025 A 
HETATM   13  C15 LIG X 999      44.014 126.246  24.622  1.00  0.00     0.001 A 
HETATM   14  C16 LIG X 999      45.042 125.910  23.736  1.00  0.00     0.001 A 
HETATM   15  C17 LIG X 999      45.432 126.806  22.737  1.00  0.00     0.012 A 
HETATM   16  C19 LIG X 999      45.177 128.961  21.622  1.00  0.00     0.037 A 
ENDBRANCH   4   7
ENDBRANCH   3   4
BRANCH   1  17
HETATM   17  C8  LIG X 999      45.871 130.322  16.320  1.00  0.00     0.099 C 
HETATM   18  C2  LIG X 999      44.847 130.442  15.151  1.00  0.00     0.104 C 
HETATM   19  C3  LIG X 999      45.739 130.916  13.975  1.00  0.00     0.001 C 
HETATM   20  C4  LIG X 999      46.630 129.739  13.532  1.00  0.00     0.006 C 
HETATM   21  C7  LIG X 999      46.751 131.805  14.663  1.00  0.00     0.011 C 
HETATM   22  C5  LIG X 999      47.641 129.621  14.686  1.00  0.00     0.006 C 
HETATM   23  C6  LIG X 999      47.201 130.745  15.644  1.00  0.00    -0.000 C 
BRANCH  18  24
HETATM   24  C1  LIG X 999      43.679 131.370  15.409  1.00  0.00     0.178 C 
HETATM   25  O1  LIG X 999      43.225 132.072  14.469  1.00  0.00    -0.648 OA
HETATM   26  O2  LIG X 999      43.069 131.427  16.657  1.00  0.00    -0.648 OA
ENDBRANCH  18  24
ENDBRANCH   1  17
TORSDOF 4
