REMARK VINA RESULT:      -5.1      0.000      0.000
REMARK  5 active torsions:
REMARK  status: ('A' for Active; 'I' for Inactive)
REMARK    1  A    between atoms: C3_3  and  N1_4 
REMARK    2  A    between atoms: N1_4  and  C6_7 
REMARK    3  A    between atoms: C6_7  and  C7_8 
REMARK    4  A    between atoms: C9_10  and  C10_11 
REMARK    5  A    between atoms: C11_15  and  N4_16 
ROOT
HETATM    1  C1  LIG X 999      46.950 129.682  14.352  1.00  0.00     0.013 C 
HETATM    2  C2  LIG X 999      46.558 130.629  14.987  1.00  0.00    -0.089 C 
HETATM    3  C3  LIG X 999      46.079 131.789  15.763  1.00  0.00     0.329 C 
ENDROOT
BRANCH   3   4
HETATM    4  N1  LIG X 999      45.261 131.412  16.957  1.00  0.00    -0.061 N 
HETATM    5  C4  LIG X 999      45.737 130.095  17.450  1.00  0.00     0.273 C 
HETATM    6  C5  LIG X 999      43.840 131.252  16.556  1.00  0.00     0.273 C 
BRANCH   4   7
HETATM    7  C6  LIG X 999      45.330 132.434  18.053  1.00  0.00     0.275 C 
BRANCH   7   8
HETATM    8  C7  LIG X 999      44.603 132.042  19.325  1.00  0.00    -0.035 C 
HETATM    9  C8  LIG X 999      45.195 132.185  20.530  1.00  0.00     0.001 C 
HETATM   10  C9  LIG X 999      44.546 131.609  21.771  1.00  0.00     0.054 C 
HETATM   11  C12 LIG X 999      45.062 132.316  23.049  1.00  0.00     0.023 C 
HETATM   12  C16 LIG X 999      43.012 131.858  21.670  1.00  0.00     0.028 C 
HETATM   13  C13 LIG X 999      44.325 131.809  24.306  1.00  0.00     0.002 C 
HETATM   14  C14 LIG X 999      42.800 131.961  24.177  1.00  0.00     0.001 C 
HETATM   15  C15 LIG X 999      42.262 131.306  22.894  1.00  0.00     0.010 C 
HETATM   16  C17 LIG X 999      42.476 131.352  20.353  1.00  0.00    -0.020 C 
HETATM   17  C18 LIG X 999      43.215 131.505  19.247  1.00  0.00     0.005 C 
BRANCH  10  18
HETATM   18  C10 LIG X 999      44.908 130.132  21.804  1.00  0.00     0.182 A 
HETATM   19  N2  LIG X 999      45.745 129.537  20.924  1.00  0.00    -0.149 NA
HETATM   20  N3  LIG X 999      45.749 128.254  21.244  1.00  0.00    -0.236 N 
HETATM   21  H13 LIG X 999      46.298 127.513  20.756  1.00  0.00     0.193 HD
HETATM   22  C11 LIG X 999      44.920 128.106  22.287  1.00  0.00     0.301 A 
HETATM   23  O1  LIG X 999      44.392 129.253  22.639  1.00  0.00    -0.257 OA
BRANCH  22  24
HETATM   24  N4  LIG X 999      44.647 126.858  22.920  1.00  0.00    -0.025 NA
HETATM   25  N5  LIG X 999      45.305 125.855  22.640  1.00  0.00    -0.158 NA
HETATM   26  N6  LIG X 999      45.962 124.853  22.360  1.00  0.00     0.068 N 
ENDBRANCH  22  24
ENDBRANCH  10  18
ENDBRANCH   7   8
ENDBRANCH   4   7
ENDBRANCH   3   4
TORSDOF 5
