REMARK VINA RESULT:      -1.7      2.087      3.918
REMARK  2 active torsions:
REMARK  status: ('A' for Active; 'I' for Inactive)
REMARK    1  A    between atoms: C4_4  and  O1_5 
REMARK    2  A    between atoms: C10_11  and  N1_12 
ROOT
HETATM    1  N1  LIG X 999      41.442 128.079  23.351  1.00  0.00    -0.072 NA
HETATM    2  N2  LIG X 999      40.450 127.549  23.854  1.00  0.00    -0.162 NA
HETATM    3  N3  LIG X 999      39.458 127.021  24.354  1.00  0.00     0.068 N 
ENDROOT
BRANCH   1   4
HETATM    4  C10 LIG X 999      42.713 127.413  23.268  1.00  0.00     0.101 C 
HETATM    5  C9  LIG X 999      42.705 126.044  22.914  1.00  0.00     0.007 C 
HETATM    6  C8  LIG X 999      43.751 125.313  22.387  1.00  0.00    -0.022 C 
HETATM    7  C12 LIG X 999      41.584 125.118  23.223  1.00  0.00     0.278 C 
HETATM    8  C7  LIG X 999      44.815 125.841  21.645  1.00  0.00     0.012 C 
HETATM    9  C15 LIG X 999      43.471 123.859  22.504  1.00  0.00     0.276 C 
HETATM   10  C6  LIG X 999      46.159 125.507  21.865  1.00  0.00     0.037 C 
HETATM   11  C4  LIG X 999      46.715 125.093  23.094  1.00  0.00     0.068 C 
HETATM   12  C3  LIG X 999      46.118 125.344  24.356  1.00  0.00     0.037 C 
HETATM   13  C2  LIG X 999      45.187 126.357  24.625  1.00  0.00     0.003 C 
HETATM   14  C1  LIG X 999      45.121 127.553  23.902  1.00  0.00     0.002 C 
HETATM   15  C11 LIG X 999      43.906 128.136  23.517  1.00  0.00     0.035 C 
HETATM   16  N4  LIG X 999      42.172 123.748  23.230  1.00  0.00    -0.067 N 
HETATM   17  C13 LIG X 999      41.270 122.785  22.559  1.00  0.00     0.272 C 
HETATM   18  C14 LIG X 999      42.407 123.301  24.624  1.00  0.00     0.272 C 
BRANCH  11  19
HETATM   19  O1  LIG X 999      47.932 124.396  23.012  1.00  0.00    -0.356 OA
HETATM   20  C5  LIG X 999      49.121 124.753  23.711  1.00  0.00     0.210 C 
ENDBRANCH  11  19
ENDBRANCH   1   4
TORSDOF 2
