REMARK VINA RESULT:      -8.0      0.000      0.000
REMARK  1 active torsions:
REMARK  status: ('A' for Active; 'I' for Inactive)
REMARK    1  A    between atoms: C11_13  and  N2_14 
ROOT
HETATM    1  N2  LIG X 999      47.539 129.516  14.375  1.00  0.00    -0.053 NA
HETATM    2  N3  LIG X 999      47.786 130.230  13.403  1.00  0.00    -0.160 NA
HETATM    3  N4  LIG X 999      48.035 130.944  12.432  1.00  0.00     0.068 N 
ENDROOT
BRANCH   1   4
HETATM    4  C11 LIG X 999      46.707 129.979  15.440  1.00  0.00     0.175 A 
HETATM    5  C10 LIG X 999      45.495 130.634  15.278  1.00  0.00     0.026 A 
HETATM    6  C5  LIG X 999      45.057 130.884  16.535  1.00  0.00     0.017 A 
HETATM    7  C9  LIG X 999      44.742 131.029  14.173  1.00  0.00     0.016 A 
HETATM    8  C4  LIG X 999      45.960 130.404  17.425  1.00  0.00     0.046 A 
HETATM    9  C6  LIG X 999      43.878 131.526  16.845  1.00  0.00     0.005 A 
HETATM   10  C3  LIG X 999      45.733 130.543  18.872  1.00  0.00     0.033 A 
HETATM   11  N5  LIG X 999      46.996 129.837  16.767  1.00  0.00    -0.337 N 
HETATM   12  C2  LIG X 999      44.603 131.160  19.288  1.00  0.00     0.034 A 
HETATM   13  C1  LIG X 999      43.600 131.693  18.305  1.00  0.00     0.059 A 
HETATM   14  N1  LIG X 999      42.529 132.277  18.744  1.00  0.00    -0.300 NA
HETATM   15  H1  LIG X 999      41.793 132.669  18.119  1.00  0.00     0.187 HD
HETATM   16  H7  LIG X 999      47.837 129.385  17.190  1.00  0.00     0.167 HD
HETATM   17  C7  LIG X 999      43.081 131.945  15.755  1.00  0.00     0.015 A 
HETATM   18  C8  LIG X 999      43.517 131.695  14.424  1.00  0.00     0.002 A 
ENDBRANCH   1   4
TORSDOF 1
