REMARK VINA RESULT:      -7.4      1.732      2.730
REMARK  2 active torsions:
REMARK  status: ('A' for Active; 'I' for Inactive)
REMARK    1  A    between atoms: C2_2  and  N1_3 
REMARK    2  A    between atoms: C3_6  and  O1_7 
ROOT
HETATM    1  N1  LIG X 999      44.892 131.981  15.195  1.00  0.00    -0.070 NA
HETATM    2  N2  LIG X 999      43.932 131.685  14.482  1.00  0.00    -0.162 NA
HETATM    3  N3  LIG X 999      42.974 131.390  13.770  1.00  0.00     0.068 N 
ENDROOT
BRANCH   1   4
HETATM    4  C2  LIG X 999      45.009 131.534  16.555  1.00  0.00     0.127 A 
HETATM    5  C1  LIG X 999      44.122 131.983  17.551  1.00  0.00     0.049 A 
HETATM    6  C11 LIG X 999      44.251 131.536  18.872  1.00  0.00    -0.023 A 
HETATM    7  C6  LIG X 999      45.288 130.622  19.206  1.00  0.00    -0.022 A 
HETATM    8  C10 LIG X 999      43.363 131.983  19.870  1.00  0.00     0.021 A 
HETATM    9  C5  LIG X 999      46.168 130.178  18.211  1.00  0.00     0.051 A 
HETATM   10  C7  LIG X 999      45.420 130.168  20.534  1.00  0.00     0.021 A 
HETATM   11  C3  LIG X 999      46.034 130.631  16.883  1.00  0.00     0.100 A 
HETATM   12  C8  LIG X 999      44.524 130.640  21.494  1.00  0.00    -0.024 A 
HETATM   13  C9  LIG X 999      43.531 131.515  21.174  1.00  0.00    -0.024 A 
HETATM   14  C15 LIG X 999      44.461 130.286  22.929  1.00  0.00     0.276 C 
HETATM   15  C12 LIG X 999      42.711 131.829  22.363  1.00  0.00     0.276 C 
HETATM   16  N4  LIG X 999      43.405 131.170  23.516  1.00  0.00    -0.067 N 
HETATM   17  C13 LIG X 999      44.029 132.195  24.386  1.00  0.00     0.272 C 
HETATM   18  C14 LIG X 999      42.446 130.377  24.319  1.00  0.00     0.272 C 
BRANCH  11  19
HETATM   19  O1  LIG X 999      46.901 130.205  15.863  1.00  0.00    -0.353 OA
HETATM   20  C4  LIG X 999      46.582 129.212  14.893  1.00  0.00     0.210 C 
ENDBRANCH  11  19
ENDBRANCH   1   4
TORSDOF 2
