REMARK VINA RESULT:      -6.3      2.618      6.587
REMARK  5 active torsions:
REMARK  status: ('A' for Active; 'I' for Inactive)
REMARK    1  A    between atoms: C6_6  and  C7_7 
REMARK    2  A    between atoms: C7_7  and  N1_8 
REMARK    3  A    between atoms: N4_11  and  C8_12 
REMARK    4  A    between atoms: C8_12  and  C9_13 
REMARK    5  A    between atoms: C9_13  and  N5_14 
ROOT
HETATM    1  N1  LIG X 999      45.949 129.972  17.187  1.00  0.00    -0.052 NA
HETATM    2  N2  LIG X 999      45.557 129.191  16.319  1.00  0.00    -0.160 NA
HETATM    3  N3  LIG X 999      45.168 128.410  15.451  1.00  0.00     0.068 N 
ENDROOT
BRANCH   1   4
HETATM    4  C7  LIG X 999      45.294 131.226  17.444  1.00  0.00     0.191 C 
HETATM    5  N4  LIG X 999      45.396 132.201  16.588  1.00  0.00    -0.267 NA
BRANCH   4   6
HETATM    6  C6  LIG X 999      44.494 131.443  18.674  1.00  0.00     0.015 A 
HETATM    7  C5  LIG X 999      45.028 131.148  19.940  1.00  0.00     0.027 A 
HETATM    8  C4  LIG X 999      44.271 131.366  21.101  1.00  0.00    -0.025 A 
HETATM    9  C3  LIG X 999      44.798 131.066  22.367  1.00  0.00     0.012 A 
HETATM   10  C12 LIG X 999      42.962 131.896  20.996  1.00  0.00    -0.026 A 
HETATM   11  C2  LIG X 999      44.033 131.287  23.516  1.00  0.00     0.001 A 
HETATM   12  C1  LIG X 999      42.741 131.808  23.411  1.00  0.00     0.001 A 
HETATM   13  C13 LIG X 999      42.205 132.113  22.157  1.00  0.00     0.012 A 
HETATM   14  C11 LIG X 999      42.438 132.204  19.733  1.00  0.00     0.013 A 
HETATM   15  C10 LIG X 999      43.201 131.983  18.583  1.00  0.00     0.016 A 
ENDBRANCH   4   6
BRANCH   5  16
HETATM   16  C8  LIG X 999      46.123 132.144  15.320  1.00  0.00     0.181 C 
BRANCH  16  17
HETATM   17  C9  LIG X 999      45.248 131.558  14.208  1.00  0.00     0.288 C 
BRANCH  17  18
HETATM   18  N5  LIG X 999      43.837 131.582  14.582  1.00  0.00     0.079 N 
HETATM   19  H9  LIG X 999      43.776 131.373  15.605  1.00  0.00     0.312 HD
HETATM   20  H10 LIG X 999      43.355 130.792  14.096  1.00  0.00     0.312 HD
ENDBRANCH  17  18
ENDBRANCH  16  17
ENDBRANCH   5  16
ENDBRANCH   1   4
TORSDOF 5
