REMARK VINA RESULT:      -8.4      0.000      0.000
REMARK  3 active torsions:
REMARK  status: ('A' for Active; 'I' for Inactive)
REMARK    1  A    between atoms: C7_9  and  C8_10 
REMARK    2  A    between atoms: C9_14  and  N4_15 
REMARK    3  A    between atoms: N7_24  and  C14_25 
ROOT
HETATM    1  N4  LIG X 999      47.099 131.512  13.982  1.00  0.00    -0.025 NA
HETATM    2  N5  LIG X 999      47.736 130.501  13.687  1.00  0.00    -0.158 NA
HETATM    3  N6  LIG X 999      48.373 129.492  13.392  1.00  0.00     0.068 N 
ENDROOT
BRANCH   1   4
HETATM    4  C9  LIG X 999      45.860 131.413  14.682  1.00  0.00     0.302 A 
HETATM    5  N3  LIG X 999      44.710 131.013  14.119  1.00  0.00    -0.236 N 
HETATM    6  N2  LIG X 999      43.784 131.045  15.063  1.00  0.00    -0.145 NA
HETATM    7  H4  LIG X 999      44.550 130.729  13.128  1.00  0.00     0.193 HD
HETATM    8  C8  LIG X 999      44.418 131.461  16.182  1.00  0.00     0.203 A 
HETATM    9  O1  LIG X 999      45.693 131.697  15.950  1.00  0.00    -0.253 OA
BRANCH   8  10
HETATM   10  C7  LIG X 999      43.744 131.677  17.478  1.00  0.00     0.032 A 
HETATM   11  C6  LIG X 999      44.341 131.341  18.732  1.00  0.00     0.020 A 
HETATM   12  C1  LIG X 999      45.595 130.561  18.999  1.00  0.00     0.060 A 
HETATM   13  C5  LIG X 999      43.642 131.718  19.866  1.00  0.00     0.019 A 
HETATM   14  N1  LIG X 999      46.254 129.995  18.039  1.00  0.00    -0.299 NA
HETATM   15  C2  LIG X 999      46.025 130.350  20.425  1.00  0.00     0.034 A 
HETATM   16  H1  LIG X 999      47.107 129.421  18.216  1.00  0.00     0.187 HD
HETATM   17  C3  LIG X 999      45.273 130.786  21.456  1.00  0.00     0.033 A 
HETATM   18  C4  LIG X 999      44.018 131.492  21.153  1.00  0.00     0.048 A 
HETATM   19  N7  LIG X 999      43.064 131.964  21.993  1.00  0.00    -0.324 N 
HETATM   20  C13 LIG X 999      42.080 132.465  21.195  1.00  0.00     0.193 A 
HETATM   21  C12 LIG X 999      42.429 132.326  19.863  1.00  0.00     0.032 A 
HETATM   22  O2  LIG X 999      40.893 133.016  21.665  1.00  0.00    -0.171 OA
HETATM   23  C11 LIG X 999      41.789 132.629  18.668  1.00  0.00     0.018 A 
HETATM   24  C10 LIG X 999      42.459 132.304  17.467  1.00  0.00     0.018 A 
BRANCH  19  25
HETATM   25  C14 LIG X 999      43.035 131.853  23.451  1.00  0.00     0.127 C 
HETATM   26  C15 LIG X 999      42.515 130.483  23.868  1.00  0.00     0.027 C 
ENDBRANCH  19  25
ENDBRANCH   8  10
ENDBRANCH   1   4
TORSDOF 3
