REMARK VINA RESULT:      -5.5      4.400      5.636
REMARK  1 active torsions:
REMARK  status: ('A' for Active; 'I' for Inactive)
REMARK    1  A    between atoms: C2_5  and  C3_6 
ROOT
HETATM    1  C3  LIG X 999      43.179 131.717  20.468  1.00  0.00     0.030 A 
HETATM    2  C4  LIG X 999      41.965 132.342  20.117  1.00  0.00     0.017 A 
HETATM    3  C5  LIG X 999      41.636 132.601  18.791  1.00  0.00     0.002 A 
HETATM    4  C6  LIG X 999      42.508 132.247  17.770  1.00  0.00     0.012 A 
HETATM    5  C7  LIG X 999      43.725 131.625  18.067  1.00  0.00    -0.025 A 
HETATM    6  C8  LIG X 999      44.587 131.278  17.013  1.00  0.00     0.012 A 
HETATM    7  C9  LIG X 999      45.805 130.658  17.274  1.00  0.00     0.001 A 
HETATM    8  C10 LIG X 999      46.176 130.379  18.586  1.00  0.00     0.001 A 
HETATM    9  C11 LIG X 999      45.333 130.716  19.649  1.00  0.00     0.013 A 
HETATM   10  C12 LIG X 999      44.086 131.348  19.419  1.00  0.00    -0.011 A 
ENDROOT
BRANCH   1  11
HETATM   11  C2  LIG X 999      43.418 131.493  21.927  1.00  0.00     0.203 A 
HETATM   12  O1  LIG X 999      44.312 130.680  22.451  1.00  0.00    -0.255 OA
HETATM   13  C1  LIG X 999      44.169 130.802  23.746  1.00  0.00     0.262 A 
HETATM   14  N1  LIG X 999      44.870 130.162  24.624  1.00  0.00    -0.260 NA
HETATM   15  N3  LIG X 999      43.202 131.676  24.050  1.00  0.00    -0.238 N 
HETATM   16  H1  LIG X 999      45.614 129.491  24.327  1.00  0.00     0.190 HD
HETATM   17  N2  LIG X 999      42.718 132.120  22.904  1.00  0.00    -0.145 NA
HETATM   18  H9  LIG X 999      42.874 131.966  24.999  1.00  0.00     0.193 HD
ENDBRANCH   1  11
TORSDOF 1
