REMARK VINA RESULT:      -7.8      0.000      0.000
REMARK  1 active torsions:
REMARK  status: ('A' for Active; 'I' for Inactive)
REMARK    1  A    between atoms: C5_8  and  O1_9 
ROOT
HETATM    1  H1  LIG X 999      47.135 129.663  15.792  1.00  0.00     0.187 HD
HETATM    2  N1  LIG X 999      46.845 129.873  16.773  1.00  0.00    -0.300 NA
HETATM    3  C1  LIG X 999      45.732 130.476  17.042  1.00  0.00     0.059 A 
HETATM    4  C2  LIG X 999      44.796 130.905  15.943  1.00  0.00     0.034 A 
HETATM    5  C3  LIG X 999      43.632 131.535  16.224  1.00  0.00     0.035 A 
HETATM    6  C4  LIG X 999      43.297 131.794  17.635  1.00  0.00     0.071 A 
HETATM    7  N2  LIG X 999      42.204 132.400  18.157  1.00  0.00    -0.224 NA
HETATM    8  C5  LIG X 999      42.414 132.368  19.506  1.00  0.00     0.174 A 
HETATM    9  C6  LIG X 999      43.616 131.752  19.813  1.00  0.00     0.030 A 
HETATM   10  C7  LIG X 999      44.296 131.463  20.998  1.00  0.00     0.017 A 
HETATM   11  C8  LIG X 999      45.543 130.799  20.888  1.00  0.00     0.002 A 
HETATM   12  C9  LIG X 999      46.072 130.446  19.615  1.00  0.00     0.015 A 
HETATM   13  C10 LIG X 999      45.343 130.762  18.447  1.00  0.00     0.005 A 
HETATM   14  C11 LIG X 999      44.140 131.407  18.620  1.00  0.00     0.020 A 
ENDROOT
BRANCH   8  15
HETATM   15  O1  LIG X 999      41.525 132.890  20.438  1.00  0.00    -0.344 OA
HETATM   16  H4  LIG X 999      40.671 133.345  20.137  1.00  0.00     0.219 HD
ENDBRANCH   8  15
TORSDOF 1
