MODEL 1
REMARK VINA RESULT:      -8.9      0.000      0.000
REMARK  1 active torsions:
REMARK  status: ('A' for Active; 'I' for Inactive)
REMARK    1  A    between atoms: C2_2  and  N1_3 
ROOT
HETATM    1  N1  LIG X 999      42.433 132.280  19.399  1.00  0.00    -0.073 NA
HETATM    2  N2  LIG X 999      42.445 132.248  20.630  1.00  0.00    -0.162 NA
HETATM    3  N3  LIG X 999      42.455 132.216  21.860  1.00  0.00     0.068 N 
ENDROOT
BRANCH   1   4
HETATM    4  C2  LIG X 999      43.511 131.761  18.608  1.00  0.00     0.094 A 
HETATM    5  C1  LIG X 999      44.654 131.190  19.197  1.00  0.00     0.035 A 
HETATM    6  C11 LIG X 999      45.688 130.692  18.400  1.00  0.00     0.014 A 
HETATM    7  C10 LIG X 999      45.594 130.755  17.003  1.00  0.00    -0.024 A 
HETATM    8  C4  LIG X 999      44.448 131.329  16.403  1.00  0.00    -0.024 A 
HETATM    9  C9  LIG X 999      46.628 130.258  16.192  1.00  0.00     0.034 A 
HETATM   10  C3  LIG X 999      43.415 131.827  17.212  1.00  0.00     0.046 A 
HETATM   11  C5  LIG X 999      44.354 131.393  15.004  1.00  0.00     0.014 A 
HETATM   12  C6  LIG X 999      45.389 130.895  14.207  1.00  0.00     0.023 A 
HETATM   13  C7  LIG X 999      46.524 130.328  14.797  1.00  0.00     0.045 A 
HETATM   14  C8  LIG X 999      47.585 129.816  13.970  1.00  0.00     0.099 C 
HETATM   15  N4  LIG X 999      48.438 129.405  13.305  1.00  0.00    -0.191 NA
ENDBRANCH   1   4
TORSDOF 1
ENDMDL
MODEL 2
REMARK VINA RESULT:      -8.4      1.089      6.360
REMARK  1 active torsions:
REMARK  status: ('A' for Active; 'I' for Inactive)
REMARK    1  A    between atoms: C2_2  and  N1_3 
ROOT
HETATM    1  N1  LIG X 999      47.024 129.738  14.353  1.00  0.00    -0.073 NA
HETATM    2  N2  LIG X 999      47.516 130.373  13.419  1.00  0.00    -0.162 NA
HETATM    3  N3  LIG X 999      48.007 131.004  12.486  1.00  0.00     0.068 N 
ENDROOT
BRANCH   1   4
HETATM    4  C2  LIG X 999      46.038 130.303  15.228  1.00  0.00     0.094 A 
HETATM    5  C1  LIG X 999      44.849 130.872  14.735  1.00  0.00     0.035 A 
HETATM    6  C11 LIG X 999      43.906 131.414  15.612  1.00  0.00     0.014 A 
HETATM    7  C10 LIG X 999      44.136 131.394  16.995  1.00  0.00    -0.024 A 
HETATM    8  C4  LIG X 999      45.329 130.824  17.498  1.00  0.00    -0.024 A 
HETATM    9  C9  LIG X 999      43.195 131.937  17.885  1.00  0.00     0.034 A 
HETATM   10  C3  LIG X 999      46.271 130.282  16.610  1.00  0.00     0.046 A 
HETATM   11  C5  LIG X 999      45.560 130.805  18.883  1.00  0.00     0.014 A 
HETATM   12  C6  LIG X 999      44.617 131.347  19.760  1.00  0.00     0.023 A 
HETATM   13  C7  LIG X 999      43.437 131.913  19.265  1.00  0.00     0.045 A 
HETATM   14  C8  LIG X 999      42.469 132.469  20.175  1.00  0.00     0.099 C 
HETATM   15  N4  LIG X 999      41.691 132.917  20.906  1.00  0.00    -0.191 NA
ENDBRANCH   1   4
TORSDOF 1
ENDMDL
MODEL 3
REMARK VINA RESULT:      -8.3      1.789      6.119
REMARK  1 active torsions:
REMARK  status: ('A' for Active; 'I' for Inactive)
REMARK    1  A    between atoms: C2_2  and  N1_3 
ROOT
HETATM    1  N1  LIG X 999      45.162 131.024  14.292  1.00  0.00    -0.073 NA
HETATM    2  N2  LIG X 999      46.268 131.025  13.751  1.00  0.00    -0.162 NA
HETATM    3  N3  LIG X 999      47.372 131.026  13.209  1.00  0.00     0.068 N 
ENDROOT
BRANCH   1   4
HETATM    4  C2  LIG X 999      45.005 131.076  15.717  1.00  0.00     0.094 A 
HETATM    5  C1  LIG X 999      46.029 130.663  16.591  1.00  0.00     0.035 A 
HETATM    6  C11 LIG X 999      45.847 130.726  17.975  1.00  0.00     0.014 A 
HETATM    7  C10 LIG X 999      44.641 131.202  18.507  1.00  0.00    -0.024 A 
HETATM    8  C4  LIG X 999      43.607 131.619  17.635  1.00  0.00    -0.024 A 
HETATM    9  C9  LIG X 999      44.448 131.269  19.896  1.00  0.00     0.034 A 
HETATM   10  C3  LIG X 999      43.798 131.552  16.246  1.00  0.00     0.046 A 
HETATM   11  C5  LIG X 999      42.399 132.096  18.167  1.00  0.00     0.014 A 
HETATM   12  C6  LIG X 999      42.217 132.158  19.552  1.00  0.00     0.023 A 
HETATM   13  C7  LIG X 999      43.238 131.746  20.416  1.00  0.00     0.045 A 
HETATM   14  C8  LIG X 999      43.044 131.814  21.842  1.00  0.00     0.099 C 
HETATM   15  N4  LIG X 999      42.888 131.868  22.987  1.00  0.00    -0.191 NA
ENDBRANCH   1   4
TORSDOF 1
ENDMDL
MODEL 4
REMARK VINA RESULT:      -8.2      1.181      6.210
REMARK  1 active torsions:
REMARK  status: ('A' for Active; 'I' for Inactive)
REMARK    1  A    between atoms: C2_2  and  N1_3 
ROOT
HETATM    1  N1  LIG X 999      46.200 130.571  13.752  1.00  0.00    -0.073 NA
HETATM    2  N2  LIG X 999      47.264 129.950  13.771  1.00  0.00    -0.162 NA
HETATM    3  N3  LIG X 999      48.327 129.331  13.788  1.00  0.00     0.068 N 
ENDROOT
BRANCH   1   4
HETATM    4  C2  LIG X 999      45.472 130.880  14.949  1.00  0.00     0.094 A 
HETATM    5  C1  LIG X 999      44.191 131.461  14.907  1.00  0.00     0.035 A 
HETATM    6  C11 LIG X 999      43.506 131.750  16.090  1.00  0.00     0.014 A 
HETATM    7  C10 LIG X 999      44.090 131.463  17.332  1.00  0.00    -0.024 A 
HETATM    8  C4  LIG X 999      45.378 130.880  17.381  1.00  0.00    -0.024 A 
HETATM    9  C9  LIG X 999      43.410 131.751  18.527  1.00  0.00     0.034 A 
HETATM   10  C3  LIG X 999      46.059 130.592  16.189  1.00  0.00     0.046 A 
HETATM   11  C5  LIG X 999      45.964 130.592  18.625  1.00  0.00     0.014 A 
HETATM   12  C6  LIG X 999      45.278 130.883  19.808  1.00  0.00     0.023 A 
HETATM   13  C7  LIG X 999      44.004 131.460  19.761  1.00  0.00     0.045 A 
HETATM   14  C8  LIG X 999      43.304 131.756  20.984  1.00  0.00     0.099 C 
HETATM   15  N4  LIG X 999      42.741 131.993  21.967  1.00  0.00    -0.191 NA
ENDBRANCH   1   4
TORSDOF 1
ENDMDL
MODEL 5
REMARK VINA RESULT:      -8.1      0.889      1.252
REMARK  1 active torsions:
REMARK  status: ('A' for Active; 'I' for Inactive)
REMARK    1  A    between atoms: C2_2  and  N1_3 
ROOT
HETATM    1  N1  LIG X 999      42.668 132.183  20.942  1.00  0.00    -0.073 NA
HETATM    2  N2  LIG X 999      42.840 132.014  22.150  1.00  0.00    -0.162 NA
HETATM    3  N3  LIG X 999      43.009 131.846  23.356  1.00  0.00     0.068 N 
ENDROOT
BRANCH   1   4
HETATM    4  C2  LIG X 999      43.595 131.699  19.961  1.00  0.00     0.094 A 
HETATM    5  C1  LIG X 999      44.777 131.028  20.326  1.00  0.00     0.035 A 
HETATM    6  C11 LIG X 999      45.661 130.567  19.346  1.00  0.00     0.014 A 
HETATM    7  C10 LIG X 999      45.377 130.769  17.989  1.00  0.00    -0.024 A 
HETATM    8  C4  LIG X 999      44.191 131.443  17.614  1.00  0.00    -0.024 A 
HETATM    9  C9  LIG X 999      46.259 130.310  16.997  1.00  0.00     0.034 A 
HETATM   10  C3  LIG X 999      43.309 131.903  18.604  1.00  0.00     0.046 A 
HETATM   11  C5  LIG X 999      43.907 131.646  16.254  1.00  0.00     0.014 A 
HETATM   12  C6  LIG X 999      44.792 131.185  15.275  1.00  0.00     0.023 A 
HETATM   13  C7  LIG X 999      45.966 130.518  15.643  1.00  0.00     0.045 A 
HETATM   14  C8  LIG X 999      46.872 130.046  14.629  1.00  0.00     0.099 C 
HETATM   15  N4  LIG X 999      47.601 129.666  13.814  1.00  0.00    -0.191 NA
ENDBRANCH   1   4
TORSDOF 1
ENDMDL
MODEL 6
REMARK VINA RESULT:      -7.4      2.835      6.471
REMARK  1 active torsions:
REMARK  status: ('A' for Active; 'I' for Inactive)
REMARK    1  A    between atoms: C2_2  and  N1_3 
ROOT
HETATM    1  N1  LIG X 999      44.279 131.578  15.611  1.00  0.00    -0.073 NA
HETATM    2  N2  LIG X 999      45.456 131.535  15.250  1.00  0.00    -0.162 NA
HETATM    3  N3  LIG X 999      46.630 131.494  14.888  1.00  0.00     0.068 N 
ENDROOT
BRANCH   1   4
HETATM    4  C2  LIG X 999      43.903 131.633  16.994  1.00  0.00     0.094 A 
HETATM    5  C1  LIG X 999      42.585 131.926  17.392  1.00  0.00     0.035 A 
HETATM    6  C11 LIG X 999      42.249 131.973  18.748  1.00  0.00     0.014 A 
HETATM    7  C10 LIG X 999      43.223 131.725  19.725  1.00  0.00    -0.024 A 
HETATM    8  C4  LIG X 999      44.549 131.430  19.332  1.00  0.00    -0.024 A 
HETATM    9  C9  LIG X 999      42.895 131.770  21.090  1.00  0.00     0.034 A 
HETATM   10  C3  LIG X 999      44.879 131.386  17.969  1.00  0.00     0.046 A 
HETATM   11  C5  LIG X 999      45.526 131.183  20.311  1.00  0.00     0.014 A 
HETATM   12  C6  LIG X 999      45.188 131.230  21.666  1.00  0.00     0.023 A 
HETATM   13  C7  LIG X 999      43.877 131.522  22.057  1.00  0.00     0.045 A 
HETATM   14  C8  LIG X 999      43.537 131.568  23.456  1.00  0.00     0.099 C 
HETATM   15  N4  LIG X 999      43.264 131.605  24.580  1.00  0.00    -0.191 NA
ENDBRANCH   1   4
TORSDOF 1
ENDMDL
MODEL 7
REMARK VINA RESULT:      -7.3      2.498      3.906
REMARK  1 active torsions:
REMARK  status: ('A' for Active; 'I' for Inactive)
REMARK    1  A    between atoms: C2_2  and  N1_3 
ROOT
HETATM    1  N1  LIG X 999      44.115 131.383  23.418  1.00  0.00    -0.073 NA
HETATM    2  N2  LIG X 999      44.287 130.298  23.975  1.00  0.00    -0.162 NA
HETATM    3  N3  LIG X 999      44.459 129.216  24.532  1.00  0.00     0.068 N 
ENDROOT
BRANCH   1   4
HETATM    4  C2  LIG X 999      43.906 131.495  22.003  1.00  0.00     0.094 A 
HETATM    5  C1  LIG X 999      42.718 132.029  21.470  1.00  0.00     0.035 A 
HETATM    6  C11 LIG X 999      42.544 132.125  20.087  1.00  0.00     0.014 A 
HETATM    7  C10 LIG X 999      43.553 131.690  19.217  1.00  0.00    -0.024 A 
HETATM    8  C4  LIG X 999      44.749 131.151  19.746  1.00  0.00    -0.024 A 
HETATM    9  C9  LIG X 999      43.387 131.781  17.825  1.00  0.00     0.034 A 
HETATM   10  C3  LIG X 999      44.916 131.058  21.136  1.00  0.00     0.046 A 
HETATM   11  C5  LIG X 999      45.760 130.715  18.875  1.00  0.00     0.014 A 
HETATM   12  C6  LIG X 999      45.585 130.811  17.491  1.00  0.00     0.023 A 
HETATM   13  C7  LIG X 999      44.402 131.342  16.966  1.00  0.00     0.045 A 
HETATM   14  C8  LIG X 999      44.229 131.439  15.539  1.00  0.00     0.099 C 
HETATM   15  N4  LIG X 999      44.089 131.516  14.393  1.00  0.00    -0.191 NA
ENDBRANCH   1   4
TORSDOF 1
ENDMDL
MODEL 8
REMARK VINA RESULT:      -6.4      2.944      6.508
REMARK  1 active torsions:
REMARK  status: ('A' for Active; 'I' for Inactive)
REMARK    1  A    between atoms: C2_2  and  N1_3 
ROOT
HETATM    1  N1  LIG X 999      45.726 130.806  16.363  1.00  0.00    -0.073 NA
HETATM    2  N2  LIG X 999      45.006 131.243  15.465  1.00  0.00    -0.162 NA
HETATM    3  N3  LIG X 999      44.288 131.678  14.566  1.00  0.00     0.068 N 
ENDROOT
BRANCH   1   4
HETATM    4  C2  LIG X 999      45.366 130.899  17.749  1.00  0.00     0.094 A 
HETATM    5  C1  LIG X 999      46.172 130.351  18.763  1.00  0.00     0.035 A 
HETATM    6  C11 LIG X 999      45.795 130.458  20.104  1.00  0.00     0.014 A 
HETATM    7  C10 LIG X 999      44.606 131.116  20.451  1.00  0.00    -0.024 A 
HETATM    8  C4  LIG X 999      43.790 131.669  19.437  1.00  0.00    -0.024 A 
HETATM    9  C9  LIG X 999      44.218 131.229  21.796  1.00  0.00     0.034 A 
HETATM   10  C3  LIG X 999      44.177 131.557  18.093  1.00  0.00     0.046 A 
HETATM   11  C5  LIG X 999      42.600 132.328  19.785  1.00  0.00     0.014 A 
HETATM   12  C6  LIG X 999      42.222 132.434  21.126  1.00  0.00     0.023 A 
HETATM   13  C7  LIG X 999      43.028 131.887  22.131  1.00  0.00     0.045 A 
HETATM   14  C8  LIG X 999      42.633 132.002  23.512  1.00  0.00     0.099 C 
HETATM   15  N4  LIG X 999      42.315 132.094  24.621  1.00  0.00    -0.191 NA
ENDBRANCH   1   4
TORSDOF 1
ENDMDL
MODEL 9
REMARK VINA RESULT:      -6.1      1.215      2.325
REMARK  1 active torsions:
REMARK  status: ('A' for Active; 'I' for Inactive)
REMARK    1  A    between atoms: C2_2  and  N1_3 
ROOT
HETATM    1  N1  LIG X 999      42.616 131.402  21.155  1.00  0.00    -0.073 NA
HETATM    2  N2  LIG X 999      43.390 131.429  22.113  1.00  0.00    -0.162 NA
HETATM    3  N3  LIG X 999      44.160 131.455  23.071  1.00  0.00     0.068 N 
ENDROOT
BRANCH   1   4
HETATM    4  C2  LIG X 999      43.075 131.449  19.797  1.00  0.00     0.094 A 
HETATM    5  C1  LIG X 999      42.318 132.057  18.779  1.00  0.00     0.035 A 
HETATM    6  C11 LIG X 999      42.792 132.088  17.465  1.00  0.00     0.014 A 
HETATM    7  C10 LIG X 999      44.030 131.511  17.149  1.00  0.00    -0.024 A 
HETATM    8  C4  LIG X 999      44.797 130.897  18.167  1.00  0.00    -0.024 A 
HETATM    9  C9  LIG X 999      44.515 131.535  15.831  1.00  0.00     0.034 A 
HETATM   10  C3  LIG X 999      44.313 130.871  19.484  1.00  0.00     0.046 A 
HETATM   11  C5  LIG X 999      46.037 130.319  17.851  1.00  0.00     0.014 A 
HETATM   12  C6  LIG X 999      46.510 130.349  16.536  1.00  0.00     0.023 A 
HETATM   13  C7  LIG X 999      45.753 130.955  15.527  1.00  0.00     0.045 A 
HETATM   14  C8  LIG X 999      46.248 130.983  14.175  1.00  0.00     0.099 C 
HETATM   15  N4  LIG X 999      46.646 131.005  13.088  1.00  0.00    -0.191 NA
ENDBRANCH   1   4
TORSDOF 1
ENDMDL
