REMARK VINA RESULT:      -4.9      2.209      5.198
REMARK  5 active torsions:
REMARK  status: ('A' for Active; 'I' for Inactive)
REMARK    1  A    between atoms: O1_2  and  C1_3 
REMARK    2  A    between atoms: C1_3  and  C15_22 
REMARK    3  A    between atoms: N1_4  and  C2_5 
REMARK    4  A    between atoms: C3_6  and  O2_7 
REMARK    5  A    between atoms: O2_7  and  C4_8 
REMARK       I    between atoms: C4_8  and  N2_10 
ROOT
HETATM    1  C2  LIG X 999      42.005 125.324  23.343  1.00  0.00     0.104 A 
HETATM    2  C3  LIG X 999      42.057 126.713  23.548  1.00  0.00     0.110 A 
HETATM    3  C7  LIG X 999      40.934 127.385  24.061  1.00  0.00     0.041 A 
HETATM    4  C8  LIG X 999      39.782 126.679  24.404  1.00  0.00     0.015 A 
HETATM    5  C9  LIG X 999      39.732 125.288  24.252  1.00  0.00    -0.024 A 
HETATM    6  C10 LIG X 999      38.578 124.580  24.625  1.00  0.00     0.012 A 
HETATM    7  C11 LIG X 999      38.534 123.191  24.494  1.00  0.00     0.001 A 
HETATM    8  C12 LIG X 999      39.639 122.497  23.999  1.00  0.00     0.001 A 
HETATM    9  C13 LIG X 999      40.793 123.188  23.621  1.00  0.00     0.014 A 
HETATM   10  C14 LIG X 999      40.852 124.594  23.726  1.00  0.00     0.006 A 
ENDROOT
BRANCH   1  11
HETATM   11  N1  LIG X 999      43.155 124.675  22.781  1.00  0.00    -0.221 NA
HETATM   12  C1  LIG X 999      44.324 124.658  23.349  1.00  0.00     0.176 C 
BRANCH  12  13
HETATM   13  O1  LIG X 999      44.508 125.274  24.589  1.00  0.00    -0.344 OA
HETATM   14  H1  LIG X 999      45.265 125.921  24.763  1.00  0.00     0.219 HD
ENDBRANCH  12  13
BRANCH  12  15
HETATM   15  C15 LIG X 999      45.441 123.974  22.671  1.00  0.00     0.053 A 
HETATM   16  C16 LIG X 999      45.629 122.608  22.545  1.00  0.00     0.156 A 
HETATM   17  N3  LIG X 999      46.772 122.375  21.872  1.00  0.00    -0.185 NA
HETATM   18  N4  LIG X 999      47.298 123.549  21.560  1.00  0.00    -0.285 N 
HETATM   19  C17 LIG X 999      48.577 123.713  20.884  1.00  0.00     0.179 C 
HETATM   20  C18 LIG X 999      46.529 124.545  22.037  1.00  0.00     0.129 A 
ENDBRANCH  12  15
ENDBRANCH   1  11
BRANCH   2  21
HETATM   21  O2  LIG X 999      43.223 127.402  23.179  1.00  0.00    -0.254 OA
BRANCH  21  22
HETATM   22  C4  LIG X 999      43.601 128.666  23.653  1.00  0.00     0.461 C 
HETATM   23  O3  LIG X 999      44.401 128.774  24.625  1.00  0.00    -0.230 OA
HETATM   24  N2  LIG X 999      43.129 129.844  22.968  1.00  0.00     0.009 N 
HETATM   25  H2  LIG X 999      42.436 129.552  22.238  1.00  0.00     0.292 HD
HETATM   26  C5  LIG X 999      44.247 130.523  22.296  1.00  0.00     0.282 C 
HETATM   27  C6  LIG X 999      42.451 130.750  23.908  1.00  0.00     0.282 C 
ENDBRANCH  21  22
ENDBRANCH   2  21
TORSDOF 5
