MODEL 1
REMARK VINA RESULT:      -8.1      0.000      0.000
REMARK  4 active torsions:
REMARK  status: ('A' for Active; 'I' for Inactive)
REMARK    1  A    between atoms: C3_3  and  O1_4 
REMARK    2  A    between atoms: O1_4  and  C4_5 
REMARK    3  A    between atoms: C4_5  and  O2_6 
REMARK    4  A    between atoms: C5_8  and  C6_9 
ROOT
HETATM    1  C1  LIG X 999      41.618 132.159  19.045  1.00  0.00     0.014 C 
HETATM    2  C2  LIG X 999      42.727 132.148  19.516  1.00  0.00    -0.091 C 
HETATM    3  C3  LIG X 999      44.076 132.136  20.084  1.00  0.00     0.270 C 
ENDROOT
BRANCH   3   4
HETATM    4  O1  LIG X 999      45.002 131.770  19.071  1.00  0.00    -0.319 OA
BRANCH   4   5
HETATM    5  C4  LIG X 999      45.691 130.549  19.049  1.00  0.00     0.179 C 
HETATM    6  C5  LIG X 999      45.933 129.943  17.884  1.00  0.00     0.075 C 
BRANCH   5   7
HETATM    7  O2  LIG X 999      46.126 129.940  20.227  1.00  0.00    -0.341 OA
HETATM    8  H4  LIG X 999      46.050 130.387  21.131  1.00  0.00     0.220 HD
ENDBRANCH   5   7
BRANCH   6   9
HETATM    9  C6  LIG X 999      45.474 130.490  16.588  1.00  0.00    -0.021 A 
HETATM   10  C7  LIG X 999      44.213 131.104  16.556  1.00  0.00     0.012 A 
HETATM   11  C8  LIG X 999      43.734 131.687  15.382  1.00  0.00     0.002 A 
HETATM   12  C9  LIG X 999      44.501 131.658  14.219  1.00  0.00     0.012 A 
HETATM   13  C10 LIG X 999      45.749 131.021  14.211  1.00  0.00    -0.025 A 
HETATM   14  C11 LIG X 999      46.505 130.973  13.028  1.00  0.00     0.012 A 
HETATM   15  C15 LIG X 999      46.245 130.414  15.397  1.00  0.00    -0.015 A 
HETATM   16  C12 LIG X 999      47.734 130.313  13.005  1.00  0.00     0.001 A 
HETATM   17  C13 LIG X 999      48.215 129.687  14.154  1.00  0.00     0.001 A 
HETATM   18  C14 LIG X 999      47.478 129.728  15.340  1.00  0.00     0.013 A 
ENDBRANCH   6   9
ENDBRANCH   4   5
ENDBRANCH   3   4
TORSDOF 4
ENDMDL
MODEL 2
REMARK VINA RESULT:      -8.1      1.843      5.931
REMARK  4 active torsions:
REMARK  status: ('A' for Active; 'I' for Inactive)
REMARK    1  A    between atoms: C3_3  and  O1_4 
REMARK    2  A    between atoms: O1_4  and  C4_5 
REMARK    3  A    between atoms: C4_5  and  O2_6 
REMARK    4  A    between atoms: C5_8  and  C6_9 
ROOT
HETATM    1  C1  LIG X 999      47.186 130.999  13.350  1.00  0.00     0.014 C 
HETATM    2  C2  LIG X 999      46.144 131.018  13.955  1.00  0.00    -0.091 C 
HETATM    3  C3  LIG X 999      44.881 131.040  14.694  1.00  0.00     0.270 C 
ENDROOT
BRANCH   3   4
HETATM    4  O1  LIG X 999      44.968 130.138  15.788  1.00  0.00    -0.319 OA
BRANCH   4   5
HETATM    5  C4  LIG X 999      46.028 130.126  16.706  1.00  0.00     0.179 C 
HETATM    6  C5  LIG X 999      45.845 130.605  17.939  1.00  0.00     0.075 C 
BRANCH   5   7
HETATM    7  O2  LIG X 999      47.285 129.630  16.357  1.00  0.00    -0.341 OA
HETATM    8  H4  LIG X 999      47.624 128.733  16.678  1.00  0.00     0.220 HD
ENDBRANCH   5   7
BRANCH   6   9
HETATM    9  C6  LIG X 999      44.563 131.191  18.387  1.00  0.00    -0.021 A 
HETATM   10  C7  LIG X 999      43.662 131.610  17.396  1.00  0.00     0.012 A 
HETATM   11  C8  LIG X 999      42.412 132.125  17.741  1.00  0.00     0.002 A 
HETATM   12  C9  LIG X 999      42.044 132.240  19.080  1.00  0.00     0.012 A 
HETATM   13  C10 LIG X 999      42.935 131.862  20.093  1.00  0.00    -0.025 A 
HETATM   14  C11 LIG X 999      42.567 132.005  21.441  1.00  0.00     0.012 A 
HETATM   15  C15 LIG X 999      44.216 131.345  19.757  1.00  0.00    -0.015 A 
HETATM   16  C12 LIG X 999      43.462 131.661  22.454  1.00  0.00     0.001 A 
HETATM   17  C13 LIG X 999      44.732 131.183  22.135  1.00  0.00     0.001 A 
HETATM   18  C14 LIG X 999      45.114 131.031  20.800  1.00  0.00     0.013 A 
ENDBRANCH   6   9
ENDBRANCH   4   5
ENDBRANCH   3   4
TORSDOF 4
ENDMDL
MODEL 3
REMARK VINA RESULT:      -8.1      1.843      6.513
REMARK  4 active torsions:
REMARK  status: ('A' for Active; 'I' for Inactive)
REMARK    1  A    between atoms: C3_3  and  O1_4 
REMARK    2  A    between atoms: O1_4  and  C4_5 
REMARK    3  A    between atoms: C4_5  and  O2_6 
REMARK    4  A    between atoms: C5_8  and  C6_9 
ROOT
HETATM    1  C1  LIG X 999      47.616 131.010  13.014  1.00  0.00     0.014 C 
HETATM    2  C2  LIG X 999      47.004 130.397  13.852  1.00  0.00    -0.091 C 
HETATM    3  C3  LIG X 999      46.259 129.656  14.870  1.00  0.00     0.270 C 
ENDROOT
BRANCH   3   4
HETATM    4  O1  LIG X 999      45.787 130.566  15.854  1.00  0.00    -0.319 OA
BRANCH   4   5
HETATM    5  C4  LIG X 999      44.611 131.318  15.720  1.00  0.00     0.179 C 
HETATM    6  C5  LIG X 999      43.954 131.724  16.809  1.00  0.00     0.075 C 
BRANCH   5   7
HETATM    7  O2  LIG X 999      44.098 131.647  14.464  1.00  0.00    -0.341 OA
HETATM    8  H4  LIG X 999      43.692 132.551  14.263  1.00  0.00     0.220 HD
ENDBRANCH   5   7
BRANCH   6   9
HETATM    9  C6  LIG X 999      44.396 131.388  18.180  1.00  0.00    -0.021 A 
HETATM   10  C7  LIG X 999      45.605 130.692  18.318  1.00  0.00     0.012 A 
HETATM   11  C8  LIG X 999      46.112 130.383  19.581  1.00  0.00     0.002 A 
HETATM   12  C9  LIG X 999      45.414 130.756  20.728  1.00  0.00     0.012 A 
HETATM   13  C10 LIG X 999      44.185 131.423  20.623  1.00  0.00    -0.025 A 
HETATM   14  C11 LIG X 999      43.475 131.772  21.782  1.00  0.00     0.012 A 
HETATM   15  C15 LIG X 999      43.653 131.734  19.342  1.00  0.00    -0.015 A 
HETATM   16  C12 LIG X 999      42.236 132.407  21.684  1.00  0.00     0.001 A 
HETATM   17  C13 LIG X 999      41.690 132.688  20.433  1.00  0.00     0.001 A 
HETATM   18  C14 LIG X 999      42.385 132.350  19.268  1.00  0.00     0.013 A 
ENDBRANCH   6   9
ENDBRANCH   4   5
ENDBRANCH   3   4
TORSDOF 4
ENDMDL
MODEL 4
REMARK VINA RESULT:      -6.8      3.112      4.999
REMARK  4 active torsions:
REMARK  status: ('A' for Active; 'I' for Inactive)
REMARK    1  A    between atoms: C3_3  and  O1_4 
REMARK    2  A    between atoms: O1_4  and  C4_5 
REMARK    3  A    between atoms: C4_5  and  O2_6 
REMARK    4  A    between atoms: C5_8  and  C6_9 
ROOT
HETATM    1  C1  LIG X 999      42.971 126.592  23.840  1.00  0.00     0.014 C 
HETATM    2  C2  LIG X 999      42.593 127.735  23.787  1.00  0.00    -0.091 C 
HETATM    3  C3  LIG X 999      42.135 129.123  23.718  1.00  0.00     0.270 C 
ENDROOT
BRANCH   3   4
HETATM    4  O1  LIG X 999      42.860 129.801  22.702  1.00  0.00    -0.319 OA
BRANCH   4   5
HETATM    5  C4  LIG X 999      44.036 130.527  22.936  1.00  0.00     0.179 C 
HETATM    6  C5  LIG X 999      44.435 131.450  22.055  1.00  0.00     0.075 C 
BRANCH   5   7
HETATM    7  O2  LIG X 999      44.815 130.302  24.072  1.00  0.00    -0.341 OA
HETATM    8  H4  LIG X 999      44.421 130.267  25.003  1.00  0.00     0.220 HD
ENDBRANCH   5   7
BRANCH   6   9
HETATM    9  C6  LIG X 999      43.699 131.728  20.802  1.00  0.00    -0.021 A 
HETATM   10  C7  LIG X 999      42.428 132.309  20.915  1.00  0.00     0.012 A 
HETATM   11  C8  LIG X 999      41.695 132.647  19.776  1.00  0.00     0.002 A 
HETATM   12  C9  LIG X 999      42.215 132.401  18.507  1.00  0.00     0.012 A 
HETATM   13  C10 LIG X 999      43.467 131.790  18.363  1.00  0.00    -0.025 A 
HETATM   14  C11 LIG X 999      43.974 131.521  17.081  1.00  0.00     0.012 A 
HETATM   15  C15 LIG X 999      44.221 131.432  19.514  1.00  0.00    -0.015 A 
HETATM   16  C12 LIG X 999      45.205 130.884  16.930  1.00  0.00     0.001 A 
HETATM   17  C13 LIG X 999      45.938 130.500  18.053  1.00  0.00     0.001 A 
HETATM   18  C14 LIG X 999      45.451 130.762  19.335  1.00  0.00     0.013 A 
ENDBRANCH   6   9
ENDBRANCH   4   5
ENDBRANCH   3   4
TORSDOF 4
ENDMDL
MODEL 5
REMARK VINA RESULT:      -6.5      2.355      4.485
REMARK  4 active torsions:
REMARK  status: ('A' for Active; 'I' for Inactive)
REMARK    1  A    between atoms: C3_3  and  O1_4 
REMARK    2  A    between atoms: O1_4  and  C4_5 
REMARK    3  A    between atoms: C4_5  and  O2_6 
REMARK    4  A    between atoms: C5_8  and  C6_9 
ROOT
HETATM    1  C1  LIG X 999      44.503 131.885  24.534  1.00  0.00     0.014 C 
HETATM    2  C2  LIG X 999      43.489 132.013  23.895  1.00  0.00    -0.091 C 
HETATM    3  C3  LIG X 999      42.260 132.165  23.115  1.00  0.00     0.270 C 
ENDROOT
BRANCH   3   4
HETATM    4  O1  LIG X 999      42.535 131.866  21.754  1.00  0.00    -0.319 OA
BRANCH   4   5
HETATM    5  C4  LIG X 999      42.053 132.625  20.677  1.00  0.00     0.179 C 
HETATM    6  C5  LIG X 999      42.683 132.585  19.500  1.00  0.00     0.075 C 
BRANCH   5   7
HETATM    7  O2  LIG X 999      40.925 133.437  20.808  1.00  0.00    -0.341 OA
HETATM    8  H4  LIG X 999      39.990 133.060  20.892  1.00  0.00     0.220 HD
ENDBRANCH   5   7
BRANCH   6   9
HETATM    9  C6  LIG X 999      43.909 131.787  19.278  1.00  0.00    -0.021 A 
HETATM   10  C7  LIG X 999      44.680 131.459  20.402  1.00  0.00     0.012 A 
HETATM   11  C8  LIG X 999      45.823 130.668  20.278  1.00  0.00     0.002 A 
HETATM   12  C9  LIG X 999      46.220 130.199  19.027  1.00  0.00     0.012 A 
HETATM   13  C10 LIG X 999      45.490 130.539  17.880  1.00  0.00    -0.025 A 
HETATM   14  C11 LIG X 999      45.912 130.085  16.620  1.00  0.00     0.012 A 
HETATM   15  C15 LIG X 999      44.330 131.353  17.991  1.00  0.00    -0.015 A 
HETATM   16  C12 LIG X 999      45.208 130.447  15.471  1.00  0.00     0.001 A 
HETATM   17  C13 LIG X 999      44.087 131.270  15.565  1.00  0.00     0.001 A 
HETATM   18  C14 LIG X 999      43.652 131.728  16.811  1.00  0.00     0.013 A 
ENDBRANCH   6   9
ENDBRANCH   4   5
ENDBRANCH   3   4
TORSDOF 4
ENDMDL
MODEL 6
REMARK VINA RESULT:      -6.2      2.425      6.593
REMARK  4 active torsions:
REMARK  status: ('A' for Active; 'I' for Inactive)
REMARK    1  A    between atoms: C3_3  and  O1_4 
REMARK    2  A    between atoms: O1_4  and  C4_5 
REMARK    3  A    between atoms: C4_5  and  O2_6 
REMARK    4  A    between atoms: C5_8  and  C6_9 
ROOT
HETATM    1  C1  LIG X 999      45.703 131.270  14.157  1.00  0.00     0.014 C 
HETATM    2  C2  LIG X 999      44.932 131.243  15.084  1.00  0.00    -0.091 C 
HETATM    3  C3  LIG X 999      43.999 131.212  16.210  1.00  0.00     0.270 C 
ENDROOT
BRANCH   3   4
HETATM    4  O1  LIG X 999      44.695 131.567  17.398  1.00  0.00    -0.319 OA
BRANCH   4   5
HETATM    5  C4  LIG X 999      45.623 130.732  18.036  1.00  0.00     0.179 C 
HETATM    6  C5  LIG X 999      45.501 130.478  19.342  1.00  0.00     0.075 C 
BRANCH   5   7
HETATM    7  O2  LIG X 999      46.688 130.161  17.337  1.00  0.00    -0.341 OA
HETATM    8  H4  LIG X 999      46.655 129.219  16.971  1.00  0.00     0.220 HD
ENDBRANCH   5   7
BRANCH   6   9
HETATM    9  C6  LIG X 999      44.432 131.070  20.174  1.00  0.00    -0.021 A 
HETATM   10  C7  LIG X 999      43.708 132.142  19.632  1.00  0.00     0.012 A 
HETATM   11  C8  LIG X 999      42.652 132.721  20.337  1.00  0.00     0.002 A 
HETATM   12  C9  LIG X 999      42.307 132.244  21.600  1.00  0.00     0.012 A 
HETATM   13  C10 LIG X 999      43.033 131.197  22.184  1.00  0.00    -0.025 A 
HETATM   14  C11 LIG X 999      42.696 130.740  23.468  1.00  0.00     0.012 A 
HETATM   15  C15 LIG X 999      44.117 130.606  21.481  1.00  0.00    -0.015 A 
HETATM   16  C12 LIG X 999      43.434 129.720  24.068  1.00  0.00     0.001 A 
HETATM   17  C13 LIG X 999      44.520 129.155  23.400  1.00  0.00     0.001 A 
HETATM   18  C14 LIG X 999      44.867 129.595  22.121  1.00  0.00     0.013 A 
ENDBRANCH   6   9
ENDBRANCH   4   5
ENDBRANCH   3   4
TORSDOF 4
ENDMDL
MODEL 7
REMARK VINA RESULT:      -5.8      1.767      5.852
REMARK  4 active torsions:
REMARK  status: ('A' for Active; 'I' for Inactive)
REMARK    1  A    between atoms: C3_3  and  O1_4 
REMARK    2  A    between atoms: O1_4  and  C4_5 
REMARK    3  A    between atoms: C4_5  and  O2_6 
REMARK    4  A    between atoms: C5_8  and  C6_9 
ROOT
HETATM    1  C1  LIG X 999      47.594 131.005  13.153  1.00  0.00     0.014 C 
HETATM    2  C2  LIG X 999      46.883 131.515  13.982  1.00  0.00    -0.091 C 
HETATM    3  C3  LIG X 999      46.024 132.134  14.992  1.00  0.00     0.270 C 
ENDROOT
BRANCH   3   4
HETATM    4  O1  LIG X 999      46.230 131.482  16.238  1.00  0.00    -0.319 OA
BRANCH   4   5
HETATM    5  C4  LIG X 999      46.080 130.101  16.429  1.00  0.00     0.179 C 
HETATM    6  C5  LIG X 999      45.665 129.634  17.610  1.00  0.00     0.075 C 
BRANCH   5   7
HETATM    7  O2  LIG X 999      46.366 129.191  15.410  1.00  0.00    -0.341 OA
HETATM    8  H4  LIG X 999      47.107 128.507  15.485  1.00  0.00     0.220 HD
ENDBRANCH   5   7
BRANCH   6   9
HETATM    9  C6  LIG X 999      45.379 130.517  18.762  1.00  0.00    -0.021 A 
HETATM   10  C7  LIG X 999      46.351 130.602  19.769  1.00  0.00     0.012 A 
HETATM   11  C8  LIG X 999      46.175 131.452  20.862  1.00  0.00     0.002 A 
HETATM   12  C9  LIG X 999      45.020 132.224  20.972  1.00  0.00     0.012 A 
HETATM   13  C10 LIG X 999      44.015 132.135  20.000  1.00  0.00    -0.025 A 
HETATM   14  C11 LIG X 999      42.842 132.897  20.131  1.00  0.00     0.012 A 
HETATM   15  C15 LIG X 999      44.177 131.266  18.887  1.00  0.00    -0.015 A 
HETATM   16  C12 LIG X 999      41.824 132.789  19.184  1.00  0.00     0.001 A 
HETATM   17  C13 LIG X 999      41.959 131.916  18.106  1.00  0.00     0.001 A 
HETATM   18  C14 LIG X 999      43.120 131.153  17.958  1.00  0.00     0.013 A 
ENDBRANCH   6   9
ENDBRANCH   4   5
ENDBRANCH   3   4
TORSDOF 4
ENDMDL
MODEL 8
REMARK VINA RESULT:      -5.8      3.118      5.528
REMARK  4 active torsions:
REMARK  status: ('A' for Active; 'I' for Inactive)
REMARK    1  A    between atoms: C3_3  and  O1_4 
REMARK    2  A    between atoms: O1_4  and  C4_5 
REMARK    3  A    between atoms: C4_5  and  O2_6 
REMARK    4  A    between atoms: C5_8  and  C6_9 
ROOT
HETATM    1  C1  LIG X 999      45.026 127.583  22.324  1.00  0.00     0.014 C 
HETATM    2  C2  LIG X 999      44.362 128.287  23.042  1.00  0.00    -0.091 C 
HETATM    3  C3  LIG X 999      43.554 129.145  23.910  1.00  0.00     0.270 C 
ENDROOT
BRANCH   3   4
HETATM    4  O1  LIG X 999      43.755 130.501  23.538  1.00  0.00    -0.319 OA
BRANCH   4   5
HETATM    5  C4  LIG X 999      42.725 131.353  23.113  1.00  0.00     0.179 C 
HETATM    6  C5  LIG X 999      42.759 131.877  21.885  1.00  0.00     0.075 C 
BRANCH   5   7
HETATM    7  O2  LIG X 999      41.660 131.681  23.954  1.00  0.00    -0.341 OA
HETATM    8  H4  LIG X 999      41.755 131.722  24.960  1.00  0.00     0.220 HD
ENDBRANCH   5   7
BRANCH   6   9
HETATM    9  C6  LIG X 999      43.867 131.623  20.939  1.00  0.00    -0.021 A 
HETATM   10  C7  LIG X 999      45.131 131.349  21.482  1.00  0.00     0.012 A 
HETATM   11  C8  LIG X 999      46.214 131.051  20.654  1.00  0.00     0.002 A 
HETATM   12  C9  LIG X 999      46.056 131.030  19.270  1.00  0.00     0.012 A 
HETATM   13  C10 LIG X 999      44.813 131.333  18.696  1.00  0.00    -0.025 A 
HETATM   14  C11 LIG X 999      44.668 131.337  17.299  1.00  0.00     0.012 A 
HETATM   15  C15 LIG X 999      43.704 131.649  19.527  1.00  0.00    -0.015 A 
HETATM   16  C12 LIG X 999      43.442 131.669  16.720  1.00  0.00     0.001 A 
HETATM   17  C13 LIG X 999      42.357 132.011  17.526  1.00  0.00     0.001 A 
HETATM   18  C14 LIG X 999      42.483 132.010  18.917  1.00  0.00     0.013 A 
ENDBRANCH   6   9
ENDBRANCH   4   5
ENDBRANCH   3   4
TORSDOF 4
ENDMDL
MODEL 9
REMARK VINA RESULT:      -5.8      1.622      3.189
REMARK  4 active torsions:
REMARK  status: ('A' for Active; 'I' for Inactive)
REMARK    1  A    between atoms: C3_3  and  O1_4 
REMARK    2  A    between atoms: O1_4  and  C4_5 
REMARK    3  A    between atoms: C4_5  and  O2_6 
REMARK    4  A    between atoms: C5_8  and  C6_9 
ROOT
HETATM    1  C1  LIG X 999      43.693 131.089  22.595  1.00  0.00     0.014 C 
HETATM    2  C2  LIG X 999      43.069 131.649  21.730  1.00  0.00    -0.091 C 
HETATM    3  C3  LIG X 999      42.312 132.326  20.676  1.00  0.00     0.270 C 
ENDROOT
BRANCH   3   4
HETATM    4  O1  LIG X 999      43.000 132.177  19.442  1.00  0.00    -0.319 OA
BRANCH   4   5
HETATM    5  C4  LIG X 999      42.406 132.384  18.189  1.00  0.00     0.179 C 
HETATM    6  C5  LIG X 999      43.013 131.944  17.084  1.00  0.00     0.075 C 
BRANCH   5   7
HETATM    7  O2  LIG X 999      41.188 133.055  18.064  1.00  0.00    -0.341 OA
HETATM    8  H4  LIG X 999      41.075 134.028  18.317  1.00  0.00     0.220 HD
ENDBRANCH   5   7
BRANCH   6   9
HETATM    9  C6  LIG X 999      44.325 131.261  17.112  1.00  0.00    -0.021 A 
HETATM   10  C7  LIG X 999      44.821 130.863  18.362  1.00  0.00     0.012 A 
HETATM   11  C8  LIG X 999      46.028 130.170  18.463  1.00  0.00     0.002 A 
HETATM   12  C9  LIG X 999      46.765 129.871  17.319  1.00  0.00     0.012 A 
HETATM   13  C10 LIG X 999      46.313 130.285  16.059  1.00  0.00    -0.025 A 
HETATM   14  C11 LIG X 999      47.074 130.003  14.913  1.00  0.00     0.012 A 
HETATM   15  C15 LIG X 999      45.091 131.001  15.942  1.00  0.00    -0.015 A 
HETATM   16  C12 LIG X 999      46.647 130.441  13.659  1.00  0.00     0.001 A 
HETATM   17  C13 LIG X 999      45.465 131.172  13.538  1.00  0.00     0.001 A 
HETATM   18  C14 LIG X 999      44.694 131.458  14.667  1.00  0.00     0.013 A 
ENDBRANCH   6   9
ENDBRANCH   4   5
ENDBRANCH   3   4
TORSDOF 4
ENDMDL
