REMARK VINA RESULT:      -5.1      8.784     10.457
REMARK  6 active torsions:
REMARK  status: ('A' for Active; 'I' for Inactive)
REMARK    1  A    between atoms: N1_1  and  C1_2 
REMARK    2  A    between atoms: C1_2  and  C2_3 
REMARK    3  A    between atoms: C2_3  and  O1_4 
REMARK    4  A    between atoms: C2_3  and  C3_5 
REMARK    5  A    between atoms: C3_5  and  O2_6 
REMARK    6  A    between atoms: O2_6  and  C4_7 
ROOT
HETATM    1  C4  LIG X 999      51.506 136.856  22.945  1.00  0.00     0.080 A 
HETATM    2  C5  LIG X 999      52.316 137.755  23.667  1.00  0.00     0.037 A 
HETATM    3  C6  LIG X 999      52.267 139.125  23.404  1.00  0.00     0.004 A 
HETATM    4  C7  LIG X 999      51.414 139.625  22.421  1.00  0.00     0.012 A 
HETATM    5  C8  LIG X 999      50.597 138.752  21.688  1.00  0.00    -0.023 A 
HETATM    6  C9  LIG X 999      49.738 139.252  20.696  1.00  0.00     0.012 A 
HETATM    7  C10 LIG X 999      48.925 138.380  19.968  1.00  0.00     0.001 A 
HETATM    8  C11 LIG X 999      48.964 137.008  20.219  1.00  0.00     0.001 A 
HETATM    9  C12 LIG X 999      49.814 136.495  21.202  1.00  0.00     0.015 A 
HETATM   10  C13 LIG X 999      50.641 137.358  21.948  1.00  0.00     0.007 A 
ENDROOT
BRANCH   1  11
HETATM   11  O2  LIG X 999      51.538 135.474  23.191  1.00  0.00    -0.348 OA
BRANCH  11  12
HETATM   12  C3  LIG X 999      52.704 134.658  23.097  1.00  0.00     0.209 C 
BRANCH  12  13
HETATM   13  C2  LIG X 999      52.500 133.378  23.914  1.00  0.00     0.170 C 
BRANCH  13  14
HETATM   14  C1  LIG X 999      51.082 133.316  24.509  1.00  0.00     0.300 C 
BRANCH  14  15
HETATM   15  N1  LIG X 999      50.116 132.870  23.508  1.00  0.00     0.080 N 
HETATM   16  H1  LIG X 999      50.584 132.149  22.913  1.00  0.00     0.312 HD
HETATM   17  H2  LIG X 999      49.332 132.384  24.004  1.00  0.00     0.312 HD
ENDBRANCH  14  15
ENDBRANCH  13  14
BRANCH  13  18
HETATM   18  O1  LIG X 999      52.706 132.268  23.080  1.00  0.00    -0.392 OA
HETATM   19  H6  LIG X 999      53.687 132.182  22.952  1.00  0.00     0.210 HD
ENDBRANCH  13  18
ENDBRANCH  12  13
ENDBRANCH  11  12
ENDBRANCH   1  11
TORSDOF 6
