REMARK VINA RESULT:      -6.2      1.708      3.437
REMARK  4 active torsions:
REMARK  status: ('A' for Active; 'I' for Inactive)
REMARK    1  A    between atoms: C3_3  and  O1_4 
REMARK    2  A    between atoms: O1_4  and  C4_5 
REMARK    3  A    between atoms: C4_5  and  O2_6 
REMARK    4  A    between atoms: C5_8  and  C6_9 
ROOT
HETATM    1  C1  LIG X 999      41.462 133.364  20.446  1.00  0.00     0.014 C 
HETATM    2  C2  LIG X 999      41.958 132.520  21.148  1.00  0.00    -0.091 C 
HETATM    3  C3  LIG X 999      42.563 131.497  22.000  1.00  0.00     0.266 C 
ENDROOT
BRANCH   3   4
HETATM    4  O1  LIG X 999      43.327 130.629  21.196  1.00  0.00    -0.319 OA
BRANCH   4   5
HETATM    5  C4  LIG X 999      44.670 130.671  21.622  1.00  0.00     0.314 A 
HETATM    6  O3  LIG X 999      45.363 129.539  21.152  1.00  0.00    -0.312 OA
HETATM    7  C5  LIG X 999      45.782 130.785  20.640  1.00  0.00     0.254 A 
BRANCH   5   8
HETATM    8  O2  LIG X 999      44.920 130.858  22.986  1.00  0.00    -0.341 OA
HETATM    9  H4  LIG X 999      44.041 131.079  23.386  1.00  0.00     0.215 HD
ENDBRANCH   5   8
BRANCH   7  10
HETATM   10  C6  LIG X 999      45.383 130.980  19.204  1.00  0.00    -0.021 A 
HETATM   11  C7  LIG X 999      44.233 131.712  18.866  1.00  0.00     0.011 A 
HETATM   12  C8  LIG X 999      43.869 131.879  17.527  1.00  0.00     0.013 A 
HETATM   13  C9  LIG X 999      44.644 131.307  16.509  1.00  0.00    -0.026 A 
HETATM   14  C10 LIG X 999      44.291 131.473  15.160  1.00  0.00     0.012 A 
HETATM   15  C14 LIG X 999      45.791 130.548  16.844  1.00  0.00    -0.025 A 
HETATM   16  C11 LIG X 999      45.070 130.893  14.154  1.00  0.00     0.001 A 
HETATM   17  C12 LIG X 999      46.202 130.143  14.486  1.00  0.00     0.001 A 
HETATM   18  C13 LIG X 999      46.564 129.969  15.824  1.00  0.00     0.012 A 
HETATM   19  C15 LIG X 999      46.146 130.381  18.191  1.00  0.00     0.022 A 
ENDBRANCH   7  10
ENDBRANCH   4   5
ENDBRANCH   3   4
TORSDOF 4
