REMARK VINA RESULT:      -8.4      3.045      6.262
REMARK  4 active torsions:
REMARK  status: ('A' for Active; 'I' for Inactive)
REMARK    1  A    between atoms: O1_2  and  C1_3 
REMARK    2  A    between atoms: C1_3  and  C14_17 
REMARK    3  A    between atoms: N1_4  and  C2_5 
REMARK    4  A    between atoms: C2_5  and  C3_6 
ROOT
HETATM    1  C3  LIG X 999      44.119 131.607  19.090  1.00  0.00    -0.033 A 
HETATM    2  C4  LIG X 999      45.346 130.951  19.285  1.00  0.00     0.010 A 
HETATM    3  C5  LIG X 999      46.092 130.498  18.194  1.00  0.00     0.013 A 
HETATM    4  C6  LIG X 999      45.627 130.702  16.888  1.00  0.00    -0.026 A 
HETATM    5  C7  LIG X 999      46.370 130.251  15.785  1.00  0.00     0.012 A 
HETATM    6  C8  LIG X 999      45.898 130.463  14.487  1.00  0.00     0.001 A 
HETATM    7  C9  LIG X 999      44.684 131.125  14.279  1.00  0.00     0.001 A 
HETATM    8  C10 LIG X 999      43.936 131.579  15.369  1.00  0.00     0.012 A 
HETATM    9  C11 LIG X 999      44.398 131.371  16.678  1.00  0.00    -0.025 A 
HETATM   10  C12 LIG X 999      43.655 131.823  17.778  1.00  0.00     0.021 A 
ENDROOT
BRANCH   1  11
HETATM   11  C2  LIG X 999      43.332 132.113  20.278  1.00  0.00     0.139 C 
HETATM   12  C13 LIG X 999      42.021 132.754  19.808  1.00  0.00     0.039 C 
BRANCH  11  13
HETATM   13  N1  LIG X 999      43.061 131.004  21.195  1.00  0.00    -0.261 NA
HETATM   14  C1  LIG X 999      43.693 130.801  22.312  1.00  0.00     0.132 C 
BRANCH  14  15
HETATM   15  O1  LIG X 999      44.731 131.646  22.706  1.00  0.00    -0.348 OA
HETATM   16  H1  LIG X 999      44.611 132.651  22.725  1.00  0.00     0.219 HD
ENDBRANCH  14  15
BRANCH  14  17
HETATM   17  C14 LIG X 999      43.326 129.622  23.162  1.00  0.00     0.081 C 
HETATM   18  C15 LIG X 999      44.390 128.536  23.060  1.00  0.00     0.013 C 
ENDBRANCH  14  17
ENDBRANCH  11  13
ENDBRANCH   1  11
TORSDOF 4
