REMARK VINA RESULT:      -4.3      3.062      6.147
REMARK  4 active torsions:
REMARK  status: ('A' for Active; 'I' for Inactive)
REMARK    1  A    between atoms: C3_3  and  O1_4 
REMARK    2  A    between atoms: O1_4  and  C4_5 
REMARK    3  A    between atoms: C9_12  and  N2_13 
REMARK    4  A    between atoms: C11_17  and  C12_18 
ROOT
HETATM    1  C1  LIG X 999      45.060 122.376  21.636  1.00  0.00     0.014 C 
HETATM    2  C2  LIG X 999      44.779 122.393  22.808  1.00  0.00    -0.091 C 
HETATM    3  C3  LIG X 999      44.437 122.415  24.230  1.00  0.00     0.268 C 
ENDROOT
BRANCH   3   4
HETATM    4  O1  LIG X 999      43.108 122.900  24.385  1.00  0.00    -0.339 OA
BRANCH   4   5
HETATM    5  C4  LIG X 999      42.720 124.240  24.222  1.00  0.00     0.085 A 
HETATM    6  C5  LIG X 999      43.687 125.292  24.205  1.00  0.00     0.052 A 
HETATM    7  C6  LIG X 999      43.278 126.625  24.030  1.00  0.00     0.008 A 
HETATM    8  C7  LIG X 999      41.931 126.854  23.882  1.00  0.00     0.018 A 
HETATM    9  C15 LIG X 999      44.155 127.827  24.026  1.00  0.00     0.059 A 
HETATM   10  C8  LIG X 999      41.357 128.077  23.769  1.00  0.00     0.046 A 
HETATM   11  C10 LIG X 999      40.969 125.893  23.906  1.00  0.00     0.042 A 
HETATM   12  N1  LIG X 999      40.016 127.948  23.727  1.00  0.00    -0.337 N 
HETATM   13  C13 LIG X 999      42.174 129.302  23.772  1.00  0.00     0.033 A 
HETATM   14  H5  LIG X 999      39.317 128.723  23.677  1.00  0.00     0.167 HD
HETATM   15  C9  LIG X 999      39.770 126.610  23.816  1.00  0.00     0.176 A 
HETATM   16  C14 LIG X 999      43.515 129.179  23.890  1.00  0.00     0.034 A 
HETATM   17  C11 LIG X 999      41.331 124.536  24.063  1.00  0.00     0.050 A 
HETATM   18  N5  LIG X 999      45.439 127.708  24.144  1.00  0.00    -0.300 NA
HETATM   19  H9  LIG X 999      46.072 128.538  24.148  1.00  0.00     0.187 HD
BRANCH  15  20
HETATM   20  N2  LIG X 999      38.456 126.055  23.901  1.00  0.00    -0.053 NA
HETATM   21  N3  LIG X 999      37.469 126.683  23.518  1.00  0.00    -0.160 NA
HETATM   22  N4  LIG X 999      36.483 127.311  23.136  1.00  0.00     0.068 N 
ENDBRANCH  15  20
BRANCH  17  23
HETATM   23  C12 LIG X 999      40.349 123.431  24.053  1.00  0.00     0.273 C 
HETATM   24  O2  LIG X 999      39.732 123.106  23.006  1.00  0.00    -0.301 OA
ENDBRANCH  17  23
ENDBRANCH   4   5
ENDBRANCH   3   4
TORSDOF 4
