REMARK VINA RESULT:      -5.1      6.666      8.478
REMARK  1 active torsions:
REMARK  status: ('A' for Active; 'I' for Inactive)
REMARK    1  A    between atoms: C14_14  and  N1_15 
ROOT
HETATM    1  N1  LIG X 999      46.824 125.815  22.155  1.00  0.00    -0.216 NA
HETATM    2  C15 LIG X 999      47.399 124.727  21.830  1.00  0.00     0.165 C 
HETATM    3  S1  LIG X 999      48.127 123.350  21.418  1.00  0.00    -0.055 SA
ENDROOT
BRANCH   1   4
HETATM    4  C14 LIG X 999      45.457 125.906  22.589  1.00  0.00     0.130 C 
HETATM    5  C13 LIG X 999      44.929 127.084  23.131  1.00  0.00     0.058 C 
HETATM    6  C11 LIG X 999      43.595 127.135  23.562  1.00  0.00    -0.045 C 
HETATM    7  C10 LIG X 999      42.736 126.018  23.312  1.00  0.00     0.008 C 
HETATM    8  C12 LIG X 999      43.214 128.328  24.403  1.00  0.00     0.049 C 
HETATM    9  C4  LIG X 999      41.313 126.012  23.496  1.00  0.00    -0.013 C 
HETATM   10  C9  LIG X 999      43.360 124.811  22.884  1.00  0.00     0.045 C 
HETATM   11  C3  LIG X 999      40.529 127.189  23.560  1.00  0.00     0.013 C 
HETATM   12  C5  LIG X 999      40.621 124.766  23.509  1.00  0.00    -0.025 C 
HETATM   13  C2  LIG X 999      39.154 127.130  23.796  1.00  0.00     0.001 C 
HETATM   14  C1  LIG X 999      38.516 125.900  23.927  1.00  0.00     0.001 C 
HETATM   15  C6  LIG X 999      39.240 124.722  23.763  1.00  0.00     0.012 C 
HETATM   16  C7  LIG X 999      41.298 123.582  23.214  1.00  0.00     0.014 C 
HETATM   17  C8  LIG X 999      42.637 123.613  22.851  1.00  0.00     0.031 C 
HETATM   18  N2  LIG X 999      44.675 124.799  22.521  1.00  0.00    -0.340 N 
HETATM   19  H11 LIG X 999      45.109 123.912  22.172  1.00  0.00     0.167 HD
ENDBRANCH   1   4
TORSDOF 1
