REMARK VINA RESULT:      -8.0      0.000      0.000
REMARK  2 active torsions:
REMARK  status: ('A' for Active; 'I' for Inactive)
REMARK    1  A    between atoms: N1_1  and  C1_2 
REMARK    2  A    between atoms: C2_5  and  C3_6 
ROOT
HETATM    1  C3  LIG X 999      45.328 130.869  18.372  1.00  0.00     0.030 A 
HETATM    2  C4  LIG X 999      46.233 130.515  19.388  1.00  0.00     0.017 A 
HETATM    3  C5  LIG X 999      45.952 130.785  20.725  1.00  0.00     0.002 A 
HETATM    4  C6  LIG X 999      44.761 131.412  21.080  1.00  0.00     0.012 A 
HETATM    5  C7  LIG X 999      43.823 131.755  20.098  1.00  0.00    -0.025 A 
HETATM    6  C8  LIG X 999      42.615 132.363  20.472  1.00  0.00     0.012 A 
HETATM    7  C9  LIG X 999      41.656 132.676  19.510  1.00  0.00     0.001 A 
HETATM    8  C10 LIG X 999      41.887 132.372  18.169  1.00  0.00     0.001 A 
HETATM    9  C11 LIG X 999      43.086 131.769  17.778  1.00  0.00     0.013 A 
HETATM   10  C12 LIG X 999      44.088 131.472  18.728  1.00  0.00    -0.011 A 
ENDROOT
BRANCH   1  11
HETATM   11  C2  LIG X 999      45.741 130.626  16.969  1.00  0.00     0.203 A 
HETATM   12  N3  LIG X 999      45.756 129.403  16.391  1.00  0.00    -0.145 NA
HETATM   13  N2  LIG X 999      46.210 129.593  15.163  1.00  0.00    -0.240 N 
HETATM   14  C1  LIG X 999      46.461 130.904  15.036  1.00  0.00     0.240 A 
HETATM   15  H3  LIG X 999      46.343 128.845  14.448  1.00  0.00     0.193 HD
HETATM   16  O1  LIG X 999      46.181 131.550  16.140  1.00  0.00    -0.257 OA
BRANCH  14  17
HETATM   17  N1  LIG X 999      46.969 131.515  13.853  1.00  0.00    -0.364 N 
HETATM   18  H1  LIG X 999      46.747 132.512  13.642  1.00  0.00     0.159 HD
HETATM   19  H2  LIG X 999      47.565 130.970  13.191  1.00  0.00     0.159 HD
ENDBRANCH  14  17
ENDBRANCH   1  11
TORSDOF 2
