REMARK VINA RESULT:      -5.0      3.764      7.684
REMARK  5 active torsions:
REMARK  status: ('A' for Active; 'I' for Inactive)
REMARK    1  A    between atoms: C3_3  and  C4_4 
REMARK    2  A    between atoms: C4_4  and  S1_5 
REMARK    3  A    between atoms: S1_5  and  C5_6 
REMARK    4  A    between atoms: C6_7  and  N1_8 
REMARK    5  A    between atoms: C10_12  and  N2_13 
ROOT
HETATM    1  C1  LIG X 999      45.380 131.581  16.601  1.00  0.00     0.112 C 
HETATM    2  C2  LIG X 999      44.827 131.511  17.953  1.00  0.00    -0.110 C 
HETATM    3  C3  LIG X 999      44.359 131.438  19.061  1.00  0.00    -0.097 C 
ENDROOT
BRANCH   3   4
HETATM    4  C4  LIG X 999      43.771 131.330  20.399  1.00  0.00     0.173 C 
BRANCH   4   5
HETATM    5  S1  LIG X 999      45.053 130.897  21.627  1.00  0.00    -0.115 SA
BRANCH   5   6
HETATM    6  C5  LIG X 999      43.946 129.916  22.677  1.00  0.00     0.038 A 
HETATM    7  C6  LIG X 999      42.792 130.517  23.225  1.00  0.00     0.043 A 
HETATM    8  C7  LIG X 999      41.918 129.756  24.005  1.00  0.00     0.031 A 
HETATM    9  C8  LIG X 999      42.155 128.405  24.240  1.00  0.00     0.017 A 
HETATM   10  C9  LIG X 999      43.290 127.768  23.707  1.00  0.00     0.002 A 
HETATM   11  C10 LIG X 999      43.543 126.380  23.925  1.00  0.00     0.045 A 
HETATM   12  C14 LIG X 999      44.221 128.548  22.946  1.00  0.00    -0.004 A 
HETATM   13  C11 LIG X 999      44.728 125.834  23.413  1.00  0.00     0.003 A 
HETATM   14  C12 LIG X 999      45.622 126.587  22.721  1.00  0.00    -0.021 A 
HETATM   15  C18 LIG X 999      45.211 124.433  23.504  1.00  0.00     0.278 C 
HETATM   16  C13 LIG X 999      45.406 127.937  22.476  1.00  0.00     0.023 A 
HETATM   17  C15 LIG X 999      46.783 125.778  22.293  1.00  0.00     0.276 C 
HETATM   18  N3  LIG X 999      46.457 124.369  22.677  1.00  0.00    -0.067 N 
HETATM   19  C16 LIG X 999      47.566 123.769  23.451  1.00  0.00     0.272 C 
HETATM   20  C17 LIG X 999      46.221 123.553  21.461  1.00  0.00     0.272 C 
BRANCH   7  21
HETATM   21  N1  LIG X 999      42.486 131.902  23.006  1.00  0.00    -0.398 N 
HETATM   22  H6  LIG X 999      42.063 132.214  22.103  1.00  0.00     0.156 HD
HETATM   23  H7  LIG X 999      42.665 132.638  23.723  1.00  0.00     0.156 HD
ENDBRANCH   7  21
BRANCH  11  24
HETATM   24  N2  LIG X 999      42.621 125.528  24.625  1.00  0.00    -0.398 N 
HETATM   25  H10 LIG X 999      41.677 125.847  24.927  1.00  0.00     0.156 HD
HETATM   26  H11 LIG X 999      42.827 124.513  24.755  1.00  0.00     0.156 HD
ENDBRANCH  11  24
ENDBRANCH   5   6
ENDBRANCH   4   5
ENDBRANCH   3   4
TORSDOF 5
