REMARK VINA RESULT:      -7.6      0.000      0.000
REMARK  1 active torsions:
REMARK  status: ('A' for Active; 'I' for Inactive)
REMARK    1  A    between atoms: C8_8  and  N1_9 
ROOT
HETATM    1  N1  LIG X 999      46.558 130.111  16.532  1.00  0.00    -0.072 NA
HETATM    2  N2  LIG X 999      46.806 129.986  15.332  1.00  0.00    -0.162 NA
HETATM    3  N3  LIG X 999      47.056 129.859  14.134  1.00  0.00     0.068 N 
ENDROOT
BRANCH   1   4
HETATM    4  C8  LIG X 999      45.356 130.734  17.005  1.00  0.00     0.104 A 
HETATM    5  C7  LIG X 999      44.327 131.149  16.103  1.00  0.00     0.038 A 
HETATM    6  C6  LIG X 999      43.144 131.764  16.577  1.00  0.00     0.035 A 
HETATM    7  C5  LIG X 999      43.007 131.956  17.951  1.00  0.00     0.073 A 
HETATM    8  C4  LIG X 999      43.998 131.554  18.795  1.00  0.00     0.021 A 
HETATM    9  N4  LIG X 999      41.915 132.549  18.662  1.00  0.00    -0.209 NA
HETATM   10  C3  LIG X 999      43.684 131.824  20.086  1.00  0.00     0.047 A 
HETATM   11  C9  LIG X 999      45.177 130.948  18.392  1.00  0.00     0.009 A 
HETATM   12  C2  LIG X 999      44.562 131.495  21.118  1.00  0.00     0.018 A 
HETATM   13  C11 LIG X 999      42.368 132.454  20.023  1.00  0.00     0.278 A 
HETATM   14  C1  LIG X 999      45.783 130.872  20.766  1.00  0.00     0.002 A 
HETATM   15  C10 LIG X 999      46.094 130.598  19.407  1.00  0.00     0.015 A 
HETATM   16  O1  LIG X 999      41.706 132.864  21.012  1.00  0.00    -0.265 OA
ENDBRANCH   1   4
TORSDOF 1
