REMARK VINA RESULT:      -5.9      2.072      4.435
REMARK  1 active torsions:
REMARK  status: ('A' for Active; 'I' for Inactive)
REMARK    1  A    between atoms: C1_2  and  C2_3 
ROOT
HETATM    1  C2  LIG X 999      44.535 131.366  17.701  1.00  0.00     0.013 A 
HETATM    2  C3  LIG X 999      43.402 131.751  16.957  1.00  0.00     0.015 A 
HETATM    3  C4  LIG X 999      42.218 132.125  17.587  1.00  0.00     0.002 A 
HETATM    4  C5  LIG X 999      42.131 132.125  18.974  1.00  0.00     0.012 A 
HETATM    5  C6  LIG X 999      43.233 131.749  19.752  1.00  0.00    -0.025 A 
HETATM    6  C7  LIG X 999      43.125 131.755  21.152  1.00  0.00     0.012 A 
HETATM    7  C8  LIG X 999      44.210 131.384  21.943  1.00  0.00     0.001 A 
HETATM    8  C9  LIG X 999      45.411 131.004  21.347  1.00  0.00     0.001 A 
HETATM    9  C10 LIG X 999      45.538 130.991  19.956  1.00  0.00     0.013 A 
HETATM   10  C11 LIG X 999      44.454 131.362  19.126  1.00  0.00    -0.013 A 
ENDROOT
BRANCH   1  11
HETATM   11  C1  LIG X 999      45.765 130.979  16.958  1.00  0.00     0.270 C 
HETATM   12  O1  LIG X 999      46.105 131.592  15.909  1.00  0.00    -0.301 OA
ENDBRANCH   1  11
TORSDOF 1
