MODEL 1
REMARK VINA RESULT:      -7.5      0.000      0.000
REMARK  1 active torsions:
REMARK  status: ('A' for Active; 'I' for Inactive)
REMARK    1  A    between atoms: N1_2  and  C1_3 
ROOT
HETATM    1  C1  LIG X 999      43.230 131.758  22.808  1.00  0.00     0.120 C 
HETATM    2  C2  LIG X 999      44.354 130.998  22.501  1.00  0.00     0.057 C 
HETATM    3  C3  LIG X 999      44.682 130.723  21.166  1.00  0.00    -0.045 C 
HETATM    4  C4  LIG X 999      45.719 129.648  20.947  1.00  0.00     0.049 C 
HETATM    5  C5  LIG X 999      43.936 131.350  20.118  1.00  0.00     0.008 C 
HETATM    6  C6  LIG X 999      44.289 131.335  18.726  1.00  0.00    -0.013 C 
HETATM    7  C7  LIG X 999      45.594 131.053  18.257  1.00  0.00     0.013 C 
HETATM    8  C8  LIG X 999      45.873 130.994  16.889  1.00  0.00     0.001 C 
HETATM    9  C9  LIG X 999      44.875 131.263  15.957  1.00  0.00     0.001 C 
HETATM   10  C10 LIG X 999      43.609 131.647  16.388  1.00  0.00     0.012 C 
HETATM   11  C11 LIG X 999      43.319 131.726  17.760  1.00  0.00    -0.025 C 
HETATM   12  C12 LIG X 999      42.089 132.244  18.168  1.00  0.00     0.014 C 
HETATM   13  C13 LIG X 999      41.821 132.435  19.516  1.00  0.00     0.031 C 
HETATM   14  C14 LIG X 999      42.727 132.008  20.494  1.00  0.00     0.045 C 
HETATM   15  N2  LIG X 999      42.425 132.211  21.809  1.00  0.00    -0.341 N 
HETATM   16  H12 LIG X 999      41.552 132.730  22.061  1.00  0.00     0.167 HD
ENDROOT
BRANCH   1  17
HETATM   17  N1  LIG X 999      42.937 131.992  24.049  1.00  0.00    -0.284 NA
HETATM   18  H1  LIG X 999      43.617 131.819  24.823  1.00  0.00     0.188 HD
ENDBRANCH   1  17
TORSDOF 1
ENDMDL
MODEL 2
REMARK VINA RESULT:      -7.0      0.969      2.763
REMARK  1 active torsions:
REMARK  status: ('A' for Active; 'I' for Inactive)
REMARK    1  A    between atoms: N1_2  and  C1_3 
ROOT
HETATM    1  C1  LIG X 999      43.266 131.274  23.209  1.00  0.00     0.120 C 
HETATM    2  C2  LIG X 999      42.357 132.004  22.450  1.00  0.00     0.057 C 
HETATM    3  C3  LIG X 999      42.584 132.220  21.083  1.00  0.00    -0.045 C 
HETATM    4  C4  LIG X 999      41.721 133.269  20.426  1.00  0.00     0.049 C 
HETATM    5  C5  LIG X 999      43.684 131.563  20.444  1.00  0.00     0.008 C 
HETATM    6  C6  LIG X 999      43.911 131.517  19.028  1.00  0.00    -0.013 C 
HETATM    7  C7  LIG X 999      42.899 131.760  18.068  1.00  0.00     0.013 C 
HETATM    8  C8  LIG X 999      43.186 131.760  16.701  1.00  0.00     0.001 C 
HETATM    9  C9  LIG X 999      44.471 131.469  16.252  1.00  0.00     0.001 C 
HETATM   10  C10 LIG X 999      45.463 131.122  17.165  1.00  0.00     0.012 C 
HETATM   11  C11 LIG X 999      45.185 131.104  18.542  1.00  0.00    -0.025 C 
HETATM   12  C12 LIG X 999      46.152 130.622  19.426  1.00  0.00     0.014 C 
HETATM   13  C13 LIG X 999      45.863 130.489  20.777  1.00  0.00     0.031 C 
HETATM   14  C14 LIG X 999      44.644 130.940  21.296  1.00  0.00     0.045 C 
HETATM   15  N2  LIG X 999      44.399 130.795  22.631  1.00  0.00    -0.341 N 
HETATM   16  H12 LIG X 999      45.100 130.300  23.230  1.00  0.00     0.167 HD
ENDROOT
BRANCH   1  17
HETATM   17  N1  LIG X 999      43.042 131.095  24.473  1.00  0.00    -0.284 NA
HETATM   18  H1  LIG X 999      43.796 131.187  25.190  1.00  0.00     0.188 HD
ENDBRANCH   1  17
TORSDOF 1
ENDMDL
MODEL 3
REMARK VINA RESULT:      -6.4      8.442      9.521
REMARK  1 active torsions:
REMARK  status: ('A' for Active; 'I' for Inactive)
REMARK    1  A    between atoms: N1_2  and  C1_3 
ROOT
HETATM    1  C1  LIG X 999      48.538 138.737  19.574  1.00  0.00     0.120 C 
HETATM    2  C2  LIG X 999      49.619 139.325  20.224  1.00  0.00     0.057 C 
HETATM    3  C3  LIG X 999      50.297 138.637  21.239  1.00  0.00    -0.045 C 
HETATM    4  C4  LIG X 999      51.237 139.461  22.085  1.00  0.00     0.049 C 
HETATM    5  C5  LIG X 999      49.961 137.270  21.504  1.00  0.00     0.008 C 
HETATM    6  C6  LIG X 999      50.706 136.384  22.353  1.00  0.00    -0.013 C 
HETATM    7  C7  LIG X 999      52.055 136.605  22.718  1.00  0.00     0.013 C 
HETATM    8  C8  LIG X 999      52.717 135.742  23.595  1.00  0.00     0.001 C 
HETATM    9  C9  LIG X 999      52.072 134.613  24.089  1.00  0.00     0.001 C 
HETATM   10  C10 LIG X 999      50.781 134.310  23.666  1.00  0.00     0.012 C 
HETATM   11  C11 LIG X 999      50.109 135.161  22.773  1.00  0.00    -0.025 C 
HETATM   12  C12 LIG X 999      48.872 134.768  22.257  1.00  0.00     0.014 C 
HETATM   13  C13 LIG X 999      48.240 135.537  21.291  1.00  0.00     0.031 C 
HETATM   14  C14 LIG X 999      48.769 136.772  20.899  1.00  0.00     0.045 C 
HETATM   15  N2  LIG X 999      48.115 137.500  19.947  1.00  0.00    -0.341 N 
HETATM   16  H12 LIG X 999      47.264 137.099  19.489  1.00  0.00     0.167 HD
ENDROOT
BRANCH   1  17
HETATM   17  N1  LIG X 999      47.918 139.395  18.645  1.00  0.00    -0.284 NA
HETATM   18  H1  LIG X 999      48.316 139.514  17.686  1.00  0.00     0.188 HD
ENDBRANCH   1  17
TORSDOF 1
ENDMDL
MODEL 4
REMARK VINA RESULT:      -6.3      2.360      5.456
REMARK  1 active torsions:
REMARK  status: ('A' for Active; 'I' for Inactive)
REMARK    1  A    between atoms: N1_2  and  C1_3 
ROOT
HETATM    1  C1  LIG X 999      44.938 131.528  16.525  1.00  0.00     0.120 C 
HETATM    2  C2  LIG X 999      43.627 131.899  16.806  1.00  0.00     0.057 C 
HETATM    3  C3  LIG X 999      43.120 131.784  18.107  1.00  0.00    -0.045 C 
HETATM    4  C4  LIG X 999      41.622 131.910  18.249  1.00  0.00     0.049 C 
HETATM    5  C5  LIG X 999      44.003 131.417  19.173  1.00  0.00     0.008 C 
HETATM    6  C6  LIG X 999      43.679 131.469  20.571  1.00  0.00    -0.013 C 
HETATM    7  C7  LIG X 999      42.620 132.246  21.098  1.00  0.00     0.013 C 
HETATM    8  C8  LIG X 999      42.310 132.216  22.460  1.00  0.00     0.001 C 
HETATM    9  C9  LIG X 999      43.076 131.455  23.337  1.00  0.00     0.001 C 
HETATM   10  C10 LIG X 999      44.190 130.764  22.867  1.00  0.00     0.012 C 
HETATM   11  C11 LIG X 999      44.522 130.797  21.503  1.00  0.00    -0.025 C 
HETATM   12  C12 LIG X 999      45.715 130.212  21.078  1.00  0.00     0.014 C 
HETATM   13  C13 LIG X 999      46.120 130.327  19.755  1.00  0.00     0.031 C 
HETATM   14  C14 LIG X 999      45.290 130.928  18.802  1.00  0.00     0.045 C 
HETATM   15  N2  LIG X 999      45.724 131.019  17.511  1.00  0.00    -0.341 N 
HETATM   16  H12 LIG X 999      46.687 130.690  17.269  1.00  0.00     0.167 HD
ENDROOT
BRANCH   1  17
HETATM   17  N1  LIG X 999      45.384 131.633  15.312  1.00  0.00    -0.284 NA
HETATM   18  H1  LIG X 999      45.051 131.012  14.541  1.00  0.00     0.188 HD
ENDBRANCH   1  17
TORSDOF 1
ENDMDL
MODEL 5
REMARK VINA RESULT:      -5.4      3.391      6.149
REMARK  1 active torsions:
REMARK  status: ('A' for Active; 'I' for Inactive)
REMARK    1  A    between atoms: N1_2  and  C1_3 
ROOT
HETATM    1  C1  LIG X 999      46.750 130.694  14.341  1.00  0.00     0.120 C 
HETATM    2  C2  LIG X 999      45.466 131.079  13.970  1.00  0.00     0.057 C 
HETATM    3  C3  LIG X 999      44.467 131.247  14.938  1.00  0.00    -0.045 C 
HETATM    4  C4  LIG X 999      43.053 131.356  14.421  1.00  0.00     0.049 C 
HETATM    5  C5  LIG X 999      44.814 131.160  16.325  1.00  0.00     0.008 C 
HETATM    6  C6  LIG X 999      43.955 131.518  17.417  1.00  0.00    -0.013 C 
HETATM    7  C7  LIG X 999      42.827 132.361  17.278  1.00  0.00     0.013 C 
HETATM    8  C8  LIG X 999      41.989 132.633  18.362  1.00  0.00     0.001 C 
HETATM    9  C9  LIG X 999      42.280 132.116  19.621  1.00  0.00     0.001 C 
HETATM   10  C10 LIG X 999      43.440 131.370  19.814  1.00  0.00     0.012 C 
HETATM   11  C11 LIG X 999      44.299 131.102  18.736  1.00  0.00    -0.025 C 
HETATM   12  C12 LIG X 999      45.521 130.473  18.978  1.00  0.00     0.014 C 
HETATM   13  C13 LIG X 999      46.435 130.296  17.949  1.00  0.00     0.031 C 
HETATM   14  C14 LIG X 999      46.105 130.639  16.633  1.00  0.00     0.045 C 
HETATM   15  N2  LIG X 999      47.032 130.446  15.648  1.00  0.00    -0.341 N 
HETATM   16  H12 LIG X 999      47.986 130.100  15.902  1.00  0.00     0.167 HD
ENDROOT
BRANCH   1  17
HETATM   17  N1  LIG X 999      47.657 130.533  13.428  1.00  0.00    -0.284 NA
HETATM   18  H1  LIG X 999      48.013 131.328  12.852  1.00  0.00     0.188 HD
ENDBRANCH   1  17
TORSDOF 1
ENDMDL
MODEL 6
REMARK VINA RESULT:      -5.2      7.057      8.834
REMARK  1 active torsions:
REMARK  status: ('A' for Active; 'I' for Inactive)
REMARK    1  A    between atoms: N1_2  and  C1_3 
ROOT
HETATM    1  C1  LIG X 999      43.909 127.221  23.324  1.00  0.00     0.120 C 
HETATM    2  C2  LIG X 999      42.728 127.689  23.892  1.00  0.00     0.057 C 
HETATM    3  C3  LIG X 999      41.579 126.887  23.904  1.00  0.00    -0.045 C 
HETATM    4  C4  LIG X 999      40.287 127.586  24.251  1.00  0.00     0.049 C 
HETATM    5  C5  LIG X 999      41.667 125.530  23.456  1.00  0.00     0.008 C 
HETATM    6  C6  LIG X 999      40.640 124.539  23.611  1.00  0.00    -0.013 C 
HETATM    7  C7  LIG X 999      39.590 124.645  24.554  1.00  0.00     0.013 C 
HETATM    8  C8  LIG X 999      38.582 123.680  24.624  1.00  0.00     0.001 C 
HETATM    9  C9  LIG X 999      38.621 122.562  23.797  1.00  0.00     0.001 C 
HETATM   10  C10 LIG X 999      39.697 122.375  22.933  1.00  0.00     0.012 C 
HETATM   11  C11 LIG X 999      40.725 123.330  22.863  1.00  0.00    -0.025 C 
HETATM   12  C12 LIG X 999      41.857 123.056  22.094  1.00  0.00     0.014 C 
HETATM   13  C13 LIG X 999      42.934 123.932  22.095  1.00  0.00     0.031 C 
HETATM   14  C14 LIG X 999      42.861 125.155  22.772  1.00  0.00     0.045 C 
HETATM   15  N2  LIG X 999      43.941 125.990  22.746  1.00  0.00    -0.341 N 
HETATM   16  H12 LIG X 999      44.819 125.678  22.271  1.00  0.00     0.167 HD
ENDROOT
BRANCH   1  17
HETATM   17  N1  LIG X 999      44.958 127.982  23.313  1.00  0.00    -0.284 NA
HETATM   18  H1  LIG X 999      45.441 128.277  24.192  1.00  0.00     0.188 HD
ENDBRANCH   1  17
TORSDOF 1
ENDMDL
MODEL 7
REMARK VINA RESULT:      -5.2      6.993      8.608
REMARK  1 active torsions:
REMARK  status: ('A' for Active; 'I' for Inactive)
REMARK    1  A    between atoms: N1_2  and  C1_3 
ROOT
HETATM    1  C1  LIG X 999      42.195 128.536  23.537  1.00  0.00     0.120 C 
HETATM    2  C2  LIG X 999      42.961 127.378  23.614  1.00  0.00     0.057 C 
HETATM    3  C3  LIG X 999      42.361 126.147  23.912  1.00  0.00    -0.045 C 
HETATM    4  C4  LIG X 999      43.300 125.023  24.279  1.00  0.00     0.049 C 
HETATM    5  C5  LIG X 999      40.934 126.066  23.995  1.00  0.00     0.008 C 
HETATM    6  C6  LIG X 999      40.177 124.849  24.078  1.00  0.00    -0.013 C 
HETATM    7  C7  LIG X 999      40.688 123.586  23.695  1.00  0.00     0.013 C 
HETATM    8  C8  LIG X 999      39.930 122.423  23.849  1.00  0.00     0.001 C 
HETATM    9  C9  LIG X 999      38.630 122.492  24.340  1.00  0.00     0.001 C 
HETATM   10  C10 LIG X 999      38.061 123.730  24.625  1.00  0.00     0.012 C 
HETATM   11  C11 LIG X 999      38.806 124.909  24.460  1.00  0.00    -0.025 C 
HETATM   12  C12 LIG X 999      38.174 126.143  24.620  1.00  0.00     0.014 C 
HETATM   13  C13 LIG X 999      38.858 127.321  24.355  1.00  0.00     0.031 C 
HETATM   14  C14 LIG X 999      40.221 127.301  24.035  1.00  0.00     0.045 C 
HETATM   15  N2  LIG X 999      40.859 128.482  23.784  1.00  0.00    -0.341 N 
HETATM   16  H12 LIG X 999      40.308 129.371  23.781  1.00  0.00     0.167 HD
ENDROOT
BRANCH   1  17
HETATM   17  N1  LIG X 999      42.771 129.667  23.270  1.00  0.00    -0.284 NA
HETATM   18  H1  LIG X 999      43.741 129.887  23.592  1.00  0.00     0.188 HD
ENDBRANCH   1  17
TORSDOF 1
ENDMDL
MODEL 8
REMARK VINA RESULT:      -4.8      6.254      7.769
REMARK  1 active torsions:
REMARK  status: ('A' for Active; 'I' for Inactive)
REMARK    1  A    between atoms: N1_2  and  C1_3 
ROOT
HETATM    1  C1  LIG X 999      40.879 125.215  23.226  1.00  0.00     0.120 C 
HETATM    2  C2  LIG X 999      41.258 124.062  22.546  1.00  0.00     0.057 C 
HETATM    3  C3  LIG X 999      42.585 123.884  22.133  1.00  0.00    -0.045 C 
HETATM    4  C4  LIG X 999      42.829 122.769  21.145  1.00  0.00     0.049 C 
HETATM    5  C5  LIG X 999      43.579 124.831  22.542  1.00  0.00     0.008 C 
HETATM    6  C6  LIG X 999      44.995 124.666  22.380  1.00  0.00    -0.013 C 
HETATM    7  C7  LIG X 999      45.615 123.412  22.168  1.00  0.00     0.013 C 
HETATM    8  C8  LIG X 999      46.993 123.313  21.959  1.00  0.00     0.001 C 
HETATM    9  C9  LIG X 999      47.794 124.450  22.005  1.00  0.00     0.001 C 
HETATM   10  C10 LIG X 999      47.230 125.684  22.316  1.00  0.00     0.012 C 
HETATM   11  C11 LIG X 999      45.848 125.796  22.544  1.00  0.00    -0.025 C 
HETATM   12  C12 LIG X 999      45.327 127.012  22.988  1.00  0.00     0.014 C 
HETATM   13  C13 LIG X 999      43.985 127.118  23.326  1.00  0.00     0.031 C 
HETATM   14  C14 LIG X 999      43.108 126.046  23.121  1.00  0.00     0.045 C 
HETATM   15  N2  LIG X 999      41.795 126.192  23.464  1.00  0.00    -0.341 N 
HETATM   16  H12 LIG X 999      41.480 127.077  23.923  1.00  0.00     0.167 HD
ENDROOT
BRANCH   1  17
HETATM   17  N1  LIG X 999      39.644 125.365  23.590  1.00  0.00    -0.284 NA
HETATM   18  H1  LIG X 999      38.849 125.246  22.922  1.00  0.00     0.188 HD
ENDBRANCH   1  17
TORSDOF 1
ENDMDL
MODEL 9
REMARK VINA RESULT:      -4.7      6.699      8.698
REMARK  1 active torsions:
REMARK  status: ('A' for Active; 'I' for Inactive)
REMARK    1  A    between atoms: N1_2  and  C1_3 
ROOT
HETATM    1  C1  LIG X 999      47.216 124.211  22.075  1.00  0.00     0.120 C 
HETATM    2  C2  LIG X 999      46.789 125.499  22.383  1.00  0.00     0.057 C 
HETATM    3  C3  LIG X 999      45.422 125.786  22.497  1.00  0.00    -0.045 C 
HETATM    4  C4  LIG X 999      45.052 127.249  22.521  1.00  0.00     0.049 C 
HETATM    5  C5  LIG X 999      44.474 124.714  22.436  1.00  0.00     0.008 C 
HETATM    6  C6  LIG X 999      43.077 124.826  22.748  1.00  0.00    -0.013 C 
HETATM    7  C7  LIG X 999      42.534 125.878  23.523  1.00  0.00     0.013 C 
HETATM    8  C8  LIG X 999      41.158 125.972  23.750  1.00  0.00     0.001 C 
HETATM    9  C9  LIG X 999      40.297 124.998  23.256  1.00  0.00     0.001 C 
HETATM   10  C10 LIG X 999      40.811 123.895  22.580  1.00  0.00     0.012 C 
HETATM   11  C11 LIG X 999      42.194 123.779  22.358  1.00  0.00    -0.025 C 
HETATM   12  C12 LIG X 999      42.698 122.603  21.802  1.00  0.00     0.014 C 
HETATM   13  C13 LIG X 999      44.068 122.420  21.674  1.00  0.00     0.031 C 
HETATM   14  C14 LIG X 999      44.961 123.450  21.992  1.00  0.00     0.045 C 
HETATM   15  N2  LIG X 999      46.301 123.230  21.850  1.00  0.00    -0.341 N 
HETATM   16  H12 LIG X 999      46.638 122.283  21.561  1.00  0.00     0.167 HD
ENDROOT
BRANCH   1  17
HETATM   17  N1  LIG X 999      48.485 123.968  21.964  1.00  0.00    -0.284 NA
HETATM   18  H1  LIG X 999      49.189 124.377  22.619  1.00  0.00     0.188 HD
ENDBRANCH   1  17
TORSDOF 1
ENDMDL
