REMARK VINA RESULT:      -2.7      2.494      3.301
REMARK  2 active torsions:
REMARK  status: ('A' for Active; 'I' for Inactive)
REMARK    1  A    between atoms: C4_4  and  O1_5 
REMARK    2  A    between atoms: C10_11  and  N1_12 
ROOT
HETATM    1  N1  LIG X 999      40.518 126.990  23.675  1.00  0.00    -0.072 NA
HETATM    2  N2  LIG X 999      39.663 126.103  23.698  1.00  0.00    -0.162 NA
HETATM    3  N3  LIG X 999      38.809 125.218  23.721  1.00  0.00     0.068 N 
ENDROOT
BRANCH   1   4
HETATM    4  C10 LIG X 999      41.916 126.710  23.498  1.00  0.00     0.101 C 
HETATM    5  C9  LIG X 999      42.823 127.770  23.726  1.00  0.00     0.007 C 
HETATM    6  C8  LIG X 999      44.170 127.667  24.015  1.00  0.00    -0.022 C 
HETATM    7  C12 LIG X 999      42.488 129.203  23.516  1.00  0.00     0.278 C 
HETATM    8  C7  LIG X 999      44.786 126.567  24.624  1.00  0.00     0.012 C 
HETATM    9  C15 LIG X 999      44.839 128.978  23.815  1.00  0.00     0.276 C 
HETATM   10  C6  LIG X 999      45.979 125.991  24.167  1.00  0.00     0.037 C 
HETATM   11  C4  LIG X 999      46.442 126.001  22.834  1.00  0.00     0.068 C 
HETATM   12  C3  LIG X 999      45.606 126.218  21.709  1.00  0.00     0.037 C 
HETATM   13  C2  LIG X 999      44.219 126.021  21.681  1.00  0.00     0.003 C 
HETATM   14  C1  LIG X 999      43.553 125.109  22.509  1.00  0.00     0.002 C 
HETATM   15  C11 LIG X 999      42.333 125.406  23.129  1.00  0.00     0.035 C 
HETATM   16  N4  LIG X 999      43.787 129.901  23.295  1.00  0.00    -0.067 N 
HETATM   17  C13 LIG X 999      43.816 131.196  24.011  1.00  0.00     0.272 C 
HETATM   18  C14 LIG X 999      43.996 130.142  21.847  1.00  0.00     0.272 C 
BRANCH  11  19
HETATM   19  O1  LIG X 999      47.818 125.778  22.662  1.00  0.00    -0.356 OA
HETATM   20  C5  LIG X 999      48.384 124.610  22.075  1.00  0.00     0.210 C 
ENDBRANCH  11  19
ENDBRANCH   1   4
TORSDOF 2
