REMARK VINA RESULT:      -4.2      2.617      4.130
REMARK  3 active torsions:
REMARK  status: ('A' for Active; 'I' for Inactive)
REMARK    1  A    between atoms: C5_5  and  N1_6 
REMARK    2  A    between atoms: C6_9  and  N4_10 
REMARK    3  A    between atoms: C8_15  and  N7_16 
ROOT
HETATM    1  N1  LIG X 999      45.765 126.354  22.336  1.00  0.00    -0.069 NA
HETATM    2  N2  LIG X 999      46.668 125.992  23.091  1.00  0.00    -0.162 NA
HETATM    3  N3  LIG X 999      47.572 125.633  23.846  1.00  0.00     0.068 N 
ENDROOT
BRANCH   1   4
HETATM    4  C5  LIG X 999      44.397 126.442  22.768  1.00  0.00     0.137 C 
HETATM    5  C4  LIG X 999      43.871 127.705  23.124  1.00  0.00     0.011 A 
HETATM    6  C3  LIG X 999      44.627 128.879  22.925  1.00  0.00     0.015 A 
HETATM    7  C9  LIG X 999      42.572 127.802  23.692  1.00  0.00     0.010 A 
HETATM    8  C2  LIG X 999      44.096 130.128  23.242  1.00  0.00     0.001 A 
HETATM    9  C1  LIG X 999      42.804 130.231  23.750  1.00  0.00     0.001 A 
HETATM   10  C10 LIG X 999      42.043 129.083  23.967  1.00  0.00     0.015 A 
HETATM   11  C8  LIG X 999      41.829 126.620  23.939  1.00  0.00     0.128 C 
HETATM   12  C7  LIG X 999      42.322 125.385  23.494  1.00  0.00     0.100 C 
HETATM   13  C6  LIG X 999      43.578 125.290  22.877  1.00  0.00     0.149 C 
HETATM   14 CL1  LIG X 999      41.346 123.929  23.705  1.00  0.00    -0.079 Cl
BRANCH  11  15
HETATM   15  N7  LIG X 999      40.566 126.634  24.625  1.00  0.00    -0.070 NA
HETATM   16  N8  LIG X 999      39.498 126.761  24.025  1.00  0.00    -0.162 NA
HETATM   17  N9  LIG X 999      38.431 126.889  23.427  1.00  0.00     0.068 N 
ENDBRANCH  11  15
BRANCH  13  18
HETATM   18  N4  LIG X 999      43.972 124.019  22.338  1.00  0.00    -0.068 NA
HETATM   19  N5  LIG X 999      44.619 123.201  22.994  1.00  0.00    -0.162 NA
HETATM   20  N6  LIG X 999      45.269 122.384  23.646  1.00  0.00     0.068 N 
ENDBRANCH  13  18
ENDBRANCH   1   4
TORSDOF 3
