REMARK VINA RESULT:      -6.6      2.090      5.843
REMARK  1 active torsions:
REMARK  status: ('A' for Active; 'I' for Inactive)
REMARK    1  A    between atoms: C12_13  and  N2_14 
ROOT
HETATM    1  C1  LIG X 999      43.375 132.440  24.576  1.00  0.00     0.272 C 
HETATM    2  N1  LIG X 999      43.224 131.444  23.491  1.00  0.00    -0.067 N 
HETATM    3  C2  LIG X 999      42.670 130.192  24.060  1.00  0.00     0.272 C 
HETATM    4  C3  LIG X 999      42.320 131.962  22.417  1.00  0.00     0.276 C 
HETATM    5  C4  LIG X 999      43.040 131.736  21.146  1.00  0.00    -0.021 A 
HETATM    6  C5  LIG X 999      42.558 131.945  19.860  1.00  0.00     0.022 A 
HETATM    7  C6  LIG X 999      43.407 131.692  18.769  1.00  0.00    -0.023 A 
HETATM    8  C7  LIG X 999      42.940 131.901  17.462  1.00  0.00     0.012 A 
HETATM    9  C8  LIG X 999      43.777 131.673  16.371  1.00  0.00     0.001 A 
HETATM   10  C9  LIG X 999      45.087 131.240  16.570  1.00  0.00     0.001 A 
HETATM   11  C10 LIG X 999      45.572 131.024  17.862  1.00  0.00     0.014 A 
HETATM   12  C11 LIG X 999      44.745 131.232  18.987  1.00  0.00     0.001 A 
HETATM   13  C12 LIG X 999      45.199 131.021  20.324  1.00  0.00     0.045 A 
HETATM   14  C13 LIG X 999      44.307 131.293  21.375  1.00  0.00     0.003 A 
HETATM   15  C14 LIG X 999      44.542 131.170  22.837  1.00  0.00     0.278 C 
ENDROOT
BRANCH  13  16
HETATM   16  N2  LIG X 999      46.519 130.537  20.626  1.00  0.00    -0.398 N 
HETATM   17  H14 LIG X 999      47.313 130.710  19.971  1.00  0.00     0.156 HD
HETATM   18  H15 LIG X 999      46.762 130.073  21.525  1.00  0.00     0.156 HD
ENDBRANCH  13  16
TORSDOF 1
