REMARK VINA RESULT:      -6.9      0.000      0.000
REMARK  3 active torsions:
REMARK  status: ('A' for Active; 'I' for Inactive)
REMARK    1  A    between atoms: C3_3  and  N1_4 
REMARK    2  A    between atoms: C3_3  and  C4_7 
REMARK    3  A    between atoms: C3_3  and  C14_17 
ROOT
HETATM    1  C1  LIG X 999      43.222 131.494  13.765  1.00  0.00     0.015 C 
HETATM    2  C2  LIG X 999      44.050 131.333  14.628  1.00  0.00    -0.075 C 
HETATM    3  C3  LIG X 999      45.072 131.139  15.691  1.00  0.00     0.183 C 
ENDROOT
BRANCH   3   4
HETATM    4  N1  LIG X 999      46.112 132.155  15.471  1.00  0.00    -0.085 NA
HETATM    5  N2  LIG X 999      46.935 132.065  14.556  1.00  0.00    -0.165 NA
HETATM    6  N3  LIG X 999      47.755 131.974  13.644  1.00  0.00     0.068 N 
ENDBRANCH   3   4
BRANCH   3   7
HETATM    7  C4  LIG X 999      44.425 131.345  17.076  1.00  0.00    -0.012 A 
HETATM    8  C5  LIG X 999      43.083 131.771  17.186  1.00  0.00     0.012 A 
HETATM    9  C6  LIG X 999      42.492 131.989  18.432  1.00  0.00     0.013 A 
HETATM   10  C7  LIG X 999      43.231 131.804  19.606  1.00  0.00    -0.026 A 
HETATM   11  C8  LIG X 999      42.645 132.024  20.862  1.00  0.00     0.012 A 
HETATM   12  C12 LIG X 999      44.582 131.398  19.523  1.00  0.00    -0.025 A 
HETATM   13  C9  LIG X 999      43.396 131.844  22.027  1.00  0.00     0.001 A 
HETATM   14  C10 LIG X 999      44.732 131.444  21.946  1.00  0.00     0.001 A 
HETATM   15  C11 LIG X 999      45.327 131.222  20.700  1.00  0.00     0.012 A 
HETATM   16  C13 LIG X 999      45.168 131.179  18.267  1.00  0.00     0.023 A 
ENDBRANCH   3   7
BRANCH   3  17
HETATM   17  C14 LIG X 999      45.727 129.701  15.559  1.00  0.00    -0.005 C 
HETATM   18  C15 LIG X 999      44.657 128.588  15.690  1.00  0.00     0.018 C 
HETATM   19  C16 LIG X 999      46.441 129.513  14.197  1.00  0.00     0.018 C 
HETATM   20  C17 LIG X 999      46.775 129.473  16.680  1.00  0.00     0.018 C 
ENDBRANCH   3  17
TORSDOF 3
