REMARK VINA RESULT:      -7.2      0.000      0.000
REMARK  4 active torsions:
REMARK  status: ('A' for Active; 'I' for Inactive)
REMARK    1  A    between atoms: C2_2  and  N1_3 
REMARK    2  A    between atoms: C3_6  and  O1_7 
REMARK    3  A    between atoms: O1_7  and  C4_8 
REMARK    4  A    between atoms: C4_8  and  C5_9 
ROOT
HETATM    1  N1  LIG X 999      44.898 131.659  15.236  1.00  0.00    -0.070 NA
HETATM    2  N2  LIG X 999      43.829 131.701  14.623  1.00  0.00    -0.162 NA
HETATM    3  N3  LIG X 999      42.765 131.745  14.009  1.00  0.00     0.068 N 
ENDROOT
BRANCH   1   4
HETATM    4  C2  LIG X 999      44.970 131.352  16.638  1.00  0.00     0.127 A 
HETATM    5  C1  LIG X 999      44.009 131.842  17.542  1.00  0.00     0.049 A 
HETATM    6  C14 LIG X 999      44.094 131.531  18.905  1.00  0.00    -0.023 A 
HETATM    7  C9  LIG X 999      45.160 130.718  19.376  1.00  0.00    -0.022 A 
HETATM    8  C13 LIG X 999      43.134 132.020  19.813  1.00  0.00     0.021 A 
HETATM    9  C8  LIG X 999      46.115 130.235  18.470  1.00  0.00     0.051 A 
HETATM   10  C10 LIG X 999      45.251 130.405  20.746  1.00  0.00     0.021 A 
HETATM   11  C3  LIG X 999      46.023 130.546  17.099  1.00  0.00     0.102 A 
HETATM   12  C11 LIG X 999      44.276 130.903  21.612  1.00  0.00    -0.024 A 
HETATM   13  C12 LIG X 999      43.254 131.682  21.161  1.00  0.00    -0.024 A 
HETATM   14  C18 LIG X 999      44.184 130.722  23.076  1.00  0.00     0.276 C 
HETATM   15  C15 LIG X 999      42.384 132.097  22.282  1.00  0.00     0.276 C 
HETATM   16  N4  LIG X 999      42.885 131.349  23.479  1.00  0.00    -0.067 N 
HETATM   17  C16 LIG X 999      43.082 132.267  24.625  1.00  0.00     0.272 C 
HETATM   18  C17 LIG X 999      41.914 130.298  23.867  1.00  0.00     0.272 C 
BRANCH  11  19
HETATM   19  O1  LIG X 999      46.961 130.075  16.161  1.00  0.00    -0.337 OA
BRANCH  19  20
HETATM   20  C4  LIG X 999      46.653 129.347  14.973  1.00  0.00     0.269 C 
BRANCH  20  21
HETATM   21  C5  LIG X 999      47.155 130.058  13.792  1.00  0.00    -0.080 C 
HETATM   22  C6  LIG X 999      47.567 130.647  12.824  1.00  0.00    -0.109 C 
HETATM   23  C7  LIG X 999      48.064 131.366  11.652  1.00  0.00     0.112 C 
ENDBRANCH  20  21
ENDBRANCH  19  20
ENDBRANCH  11  19
ENDBRANCH   1   4
TORSDOF 4
