REMARK VINA RESULT:      -2.9      5.558      7.950
REMARK  3 active torsions:
REMARK  status: ('A' for Active; 'I' for Inactive)
REMARK    1  A    between atoms: C3_3  and  S1_4 
REMARK    2  A    between atoms: S1_4  and  C4_7 
REMARK    3  A    between atoms: C6_9  and  N1_10 
ROOT
HETATM    1  C1  LIG X 999      43.698 128.580  23.424  1.00  0.00     0.013 C 
HETATM    2  C2  LIG X 999      44.181 129.666  23.223  1.00  0.00    -0.102 C 
HETATM    3  C3  LIG X 999      44.763 130.988  22.976  1.00  0.00     0.238 C 
ENDROOT
BRANCH   3   4
HETATM    4  S1  LIG X 999      45.366 131.100  21.297  1.00  0.00     0.186 S 
HETATM    5  O1  LIG X 999      45.888 129.746  20.905  1.00  0.00    -0.222 OA
HETATM    6  O2  LIG X 999      46.495 132.093  21.279  1.00  0.00    -0.222 OA
BRANCH   4   7
HETATM    7  C4  LIG X 999      44.134 131.616  20.119  1.00  0.00     0.073 A 
HETATM    8  C5  LIG X 999      42.920 132.148  20.588  1.00  0.00     0.058 A 
HETATM    9  C6  LIG X 999      41.908 132.549  19.700  1.00  0.00     0.095 A 
HETATM   10  C7  LIG X 999      42.109 132.427  18.327  1.00  0.00     0.046 A 
HETATM   11  C8  LIG X 999      43.310 131.916  17.823  1.00  0.00    -0.021 A 
HETATM   12  C9  LIG X 999      43.495 131.814  16.429  1.00  0.00     0.022 A 
HETATM   13  C13 LIG X 999      44.346 131.507  18.719  1.00  0.00    -0.004 A 
HETATM   14  C10 LIG X 999      44.699 131.308  15.947  1.00  0.00    -0.024 A 
HETATM   15  C11 LIG X 999      45.694 130.925  16.788  1.00  0.00    -0.024 A 
HETATM   16  C17 LIG X 999      45.113 131.141  14.538  1.00  0.00     0.276 C 
HETATM   17  C12 LIG X 999      45.558 131.015  18.173  1.00  0.00     0.023 A 
HETATM   18  C14 LIG X 999      46.872 130.464  16.022  1.00  0.00     0.276 C 
HETATM   19  N4  LIG X 999      46.440 130.449  14.588  1.00  0.00    -0.067 N 
HETATM   20  C15 LIG X 999      46.300 129.050  14.115  1.00  0.00     0.272 C 
HETATM   21  C16 LIG X 999      47.428 131.148  13.736  1.00  0.00     0.272 C 
BRANCH   9  22
HETATM   22  N1  LIG X 999      40.663 133.084  20.169  1.00  0.00    -0.073 NA
HETATM   23  N2  LIG X 999      40.460 133.341  21.356  1.00  0.00    -0.162 NA
HETATM   24  N3  LIG X 999      40.255 133.599  22.542  1.00  0.00     0.068 N 
ENDBRANCH   9  22
ENDBRANCH   4   7
ENDBRANCH   3   4
TORSDOF 3
