REMARK VINA RESULT:      -7.4      1.763      2.703
REMARK  2 active torsions:
REMARK  status: ('A' for Active; 'I' for Inactive)
REMARK    1  A    between atoms: C2_2  and  N1_3 
REMARK    2  A    between atoms: C3_6  and  O1_7 
ROOT
HETATM    1  N1  LIG X 999      44.898 131.954  15.108  1.00  0.00    -0.070 NA
HETATM    2  N2  LIG X 999      43.907 131.700  14.424  1.00  0.00    -0.162 NA
HETATM    3  N3  LIG X 999      42.919 131.451  13.734  1.00  0.00     0.068 N 
ENDROOT
BRANCH   1   4
HETATM    4  C2  LIG X 999      45.093 131.459  16.445  1.00  0.00     0.127 A 
HETATM    5  C1  LIG X 999      44.215 131.920  17.434  1.00  0.00     0.049 A 
HETATM    6  C11 LIG X 999      44.335 131.489  18.760  1.00  0.00    -0.023 A 
HETATM    7  C6  LIG X 999      45.360 130.569  19.108  1.00  0.00    -0.022 A 
HETATM    8  C10 LIG X 999      43.446 131.956  19.749  1.00  0.00     0.021 A 
HETATM    9  C5  LIG X 999      46.239 130.105  18.121  1.00  0.00     0.051 A 
HETATM   10  C7  LIG X 999      45.484 130.130  20.442  1.00  0.00     0.021 A 
HETATM   11  C3  LIG X 999      46.118 130.541  16.786  1.00  0.00     0.100 A 
HETATM   12  C8  LIG X 999      44.588 130.621  21.393  1.00  0.00    -0.024 A 
HETATM   13  C9  LIG X 999      43.606 131.502  21.059  1.00  0.00    -0.024 A 
HETATM   14  C15 LIG X 999      44.516 130.284  22.832  1.00  0.00     0.276 C 
HETATM   15  C12 LIG X 999      42.784 131.837  22.242  1.00  0.00     0.276 C 
HETATM   16  N4  LIG X 999      43.467 131.185  23.405  1.00  0.00    -0.067 N 
HETATM   17  C13 LIG X 999      44.098 132.215  24.266  1.00  0.00     0.272 C 
HETATM   18  C14 LIG X 999      42.497 130.411  24.212  1.00  0.00     0.272 C 
BRANCH  11  19
HETATM   19  O1  LIG X 999      46.996 130.080  15.791  1.00  0.00    -0.353 OA
HETATM   20  C4  LIG X 999      46.617 129.288  14.670  1.00  0.00     0.210 C 
ENDBRANCH  11  19
ENDBRANCH   1   4
TORSDOF 2
