REMARK VINA RESULT:      -4.9      4.478      6.299
REMARK  3 active torsions:
REMARK  status: ('A' for Active; 'I' for Inactive)
REMARK       I    between atoms: N1_2  and  C3_4 
REMARK    1  A    between atoms: C3_4  and  O2_6 
REMARK    2  A    between atoms: O2_6  and  C4_7 
REMARK    3  A    between atoms: C7_10  and  N2_11 
ROOT
HETATM    1  C4  LIG X 999      44.698 128.479  22.828  1.00  0.00     0.092 A 
HETATM    2  C5  LIG X 999      43.738 128.408  23.847  1.00  0.00     0.040 A 
HETATM    3  C6  LIG X 999      42.836 129.448  24.046  1.00  0.00     0.033 A 
HETATM    4  C7  LIG X 999      42.853 130.587  23.231  1.00  0.00     0.037 A 
HETATM    5  C8  LIG X 999      43.786 130.664  22.162  1.00  0.00     0.003 A 
HETATM    6  C9  LIG X 999      43.814 131.754  21.264  1.00  0.00     0.014 A 
HETATM    7  C10 LIG X 999      44.747 131.801  20.226  1.00  0.00     0.001 A 
HETATM    8  C11 LIG X 999      45.663 130.765  20.057  1.00  0.00     0.001 A 
HETATM    9  C12 LIG X 999      45.647 129.669  20.917  1.00  0.00     0.015 A 
HETATM   10  C13 LIG X 999      44.714 129.597  21.970  1.00  0.00     0.010 A 
ENDROOT
BRANCH   1  11
HETATM   11  O2  LIG X 999      45.613 127.433  22.617  1.00  0.00    -0.261 OA
BRANCH  11  12
HETATM   12  C3  LIG X 999      45.277 126.086  22.414  1.00  0.00     0.367 C 
HETATM   13  N1  LIG X 999      46.315 125.093  22.383  1.00  0.00    -0.336 N 
HETATM   14  C1  LIG X 999      45.970 123.682  22.189  1.00  0.00     0.154 C 
HETATM   15  C2  LIG X 999      47.710 125.510  22.542  1.00  0.00     0.154 C 
HETATM   16  O1  LIG X 999      44.069 125.739  22.309  1.00  0.00    -0.238 OA
ENDBRANCH  11  12
ENDBRANCH   1  11
BRANCH   4  17
HETATM   17  N2  LIG X 999      41.921 131.641  23.522  1.00  0.00    -0.398 N 
HETATM   18  H9  LIG X 999      41.885 132.492  22.918  1.00  0.00     0.156 HD
HETATM   19  H10 LIG X 999      41.183 131.565  24.254  1.00  0.00     0.156 HD
ENDBRANCH   4  17
TORSDOF 3
