REMARK VINA RESULT:      -5.9      4.444      6.317
REMARK  3 active torsions:
REMARK  status: ('A' for Active; 'I' for Inactive)
REMARK    1  A    between atoms: C6_6  and  C7_7 
REMARK    2  A    between atoms: C7_7  and  N1_8 
REMARK    3  A    between atoms: C8_12  and  N4_13 
ROOT
HETATM    1  N1  LIG X 999      43.779 131.879  20.985  1.00  0.00    -0.065 NA
HETATM    2  N2  LIG X 999      43.398 130.982  21.737  1.00  0.00    -0.164 NA
HETATM    3  N3  LIG X 999      43.018 130.087  22.490  1.00  0.00     0.068 N 
ENDROOT
BRANCH   1   4
HETATM    4  C7  LIG X 999      44.952 131.691  20.142  1.00  0.00     0.267 A 
HETATM    5  O1  LIG X 999      45.814 130.717  20.686  1.00  0.00    -0.314 OA
HETATM    6  C8  LIG X 999      46.280 132.049  20.694  1.00  0.00     0.349 A 
BRANCH   4   7
HETATM    7  C6  LIG X 999      44.756 131.514  18.664  1.00  0.00     0.007 A 
HETATM    8  C5  LIG X 999      45.818 131.066  17.868  1.00  0.00     0.024 A 
HETATM    9  C4  LIG X 999      45.652 130.924  16.481  1.00  0.00    -0.025 A 
HETATM   10  C3  LIG X 999      46.709 130.470  15.677  1.00  0.00     0.012 A 
HETATM   11  C11 LIG X 999      44.408 131.247  15.887  1.00  0.00    -0.026 A 
HETATM   12  C2  LIG X 999      46.531 130.334  14.296  1.00  0.00     0.001 A 
HETATM   13  C1  LIG X 999      45.302 130.651  13.711  1.00  0.00     0.001 A 
HETATM   14  C12 LIG X 999      44.242 131.106  14.500  1.00  0.00     0.012 A 
HETATM   15  C10 LIG X 999      43.354 131.707  16.690  1.00  0.00     0.013 A 
HETATM   16  C9  LIG X 999      43.530 131.843  18.070  1.00  0.00     0.013 A 
ENDBRANCH   4   7
BRANCH   6  17
HETATM   17  N4  LIG X 999      46.270 132.592  22.044  1.00  0.00    -0.077 NA
HETATM   18  N5  LIG X 999      47.084 133.453  22.377  1.00  0.00    -0.165 NA
HETATM   19  N6  LIG X 999      47.898 134.312  22.710  1.00  0.00     0.068 N 
ENDBRANCH   6  17
ENDBRANCH   1   4
TORSDOF 3
