REMARK VINA RESULT:      -6.0      3.156      7.088
REMARK  7 active torsions:
REMARK  status: ('A' for Active; 'I' for Inactive)
REMARK    1  A    between atoms: C14_14  and  N1_15 
REMARK    2  A    between atoms: N1_15  and  C15_17 
REMARK    3  A    between atoms: C15_17  and  C16_18 
REMARK    4  A    between atoms: C16_18  and  C17_19 
REMARK    5  A    between atoms: C17_19  and  C18_20 
REMARK    6  A    between atoms: C18_20  and  C19_21 
REMARK    7  A    between atoms: C19_21  and  N2_22 
ROOT
HETATM    1  C1  LIG X 999      43.603 131.242  24.619  1.00  0.00     0.001 C 
HETATM    2  C2  LIG X 999      42.352 131.503  24.069  1.00  0.00     0.001 C 
HETATM    3  C3  LIG X 999      42.208 131.666  22.689  1.00  0.00     0.013 C 
HETATM    4  C4  LIG X 999      43.329 131.623  21.826  1.00  0.00    -0.013 C 
HETATM    5  C5  LIG X 999      44.576 131.236  22.396  1.00  0.00    -0.025 C 
HETATM    6  C6  LIG X 999      44.709 131.088  23.786  1.00  0.00     0.012 C 
HETATM    7  C7  LIG X 999      45.664 130.942  21.571  1.00  0.00     0.014 C 
HETATM    8  C8  LIG X 999      45.524 130.970  20.192  1.00  0.00     0.031 C 
HETATM    9  C9  LIG X 999      44.330 131.402  19.600  1.00  0.00     0.045 C 
HETATM   10  C10 LIG X 999      43.246 131.841  20.411  1.00  0.00     0.008 C 
HETATM   11  C11 LIG X 999      42.173 132.506  19.742  1.00  0.00    -0.045 C 
HETATM   12  C12 LIG X 999      41.176 133.410  20.429  1.00  0.00     0.049 C 
HETATM   13  C13 LIG X 999      42.094 132.451  18.343  1.00  0.00     0.056 C 
HETATM   14  C14 LIG X 999      43.127 131.875  17.587  1.00  0.00     0.101 C 
HETATM   15  N3  LIG X 999      44.231 131.412  18.239  1.00  0.00    -0.342 N 
HETATM   16  H28 LIG X 999      45.033 131.043  17.676  1.00  0.00     0.167 HD
ENDROOT
BRANCH  14  17
HETATM   17  N1  LIG X 999      43.082 131.805  16.276  1.00  0.00    -0.376 N 
HETATM   18  H11 LIG X 999      42.170 131.981  15.795  1.00  0.00     0.161 HD
BRANCH  17  19
HETATM   19  C15 LIG X 999      44.207 131.492  15.386  1.00  0.00     0.121 C 
BRANCH  19  20
HETATM   20  C16 LIG X 999      45.407 132.401  15.685  1.00  0.00     0.020 C 
BRANCH  20  21
HETATM   21  C17 LIG X 999      46.587 132.077  14.756  1.00  0.00     0.004 C 
BRANCH  21  22
HETATM   22  C18 LIG X 999      46.312 130.874  13.836  1.00  0.00     0.035 C 
BRANCH  22  23
HETATM   23  C19 LIG X 999      47.055 129.588  14.252  1.00  0.00     0.216 C 
HETATM   24  C21 LIG X 999      48.394 129.492  13.499  1.00  0.00     0.042 C 
BRANCH  23  25
HETATM   25  N2  LIG X 999      47.256 129.582  15.714  1.00  0.00     0.083 N 
HETATM   26  H21 LIG X 999      48.028 128.924  15.974  1.00  0.00     0.315 HD
HETATM   27  C20 LIG X 999      46.043 129.197  16.438  1.00  0.00     0.307 C 
ENDBRANCH  23  25
ENDBRANCH  22  23
ENDBRANCH  21  22
ENDBRANCH  20  21
ENDBRANCH  19  20
ENDBRANCH  17  19
ENDBRANCH  14  17
TORSDOF 7
