REMARK VINA RESULT:      -7.6      1.369      6.253
REMARK  2 active torsions:
REMARK  status: ('A' for Active; 'I' for Inactive)
REMARK    1  A    between atoms: C3_3  and  S1_4 
REMARK    2  A    between atoms: S1_4  and  C4_5 
ROOT
HETATM    1  C1  LIG X 999      42.831 131.648  21.567  1.00  0.00     0.013 C 
HETATM    2  C2  LIG X 999      43.597 131.682  20.636  1.00  0.00    -0.107 C 
HETATM    3  C3  LIG X 999      44.526 131.726  19.504  1.00  0.00     0.172 C 
ENDROOT
BRANCH   3   4
HETATM    4  S1  LIG X 999      43.607 131.904  17.938  1.00  0.00    -0.118 SA
BRANCH   4   5
HETATM    5  C4  LIG X 999      44.883 131.153  16.922  1.00  0.00     0.002 A 
HETATM    6  C5  LIG X 999      45.614 130.064  17.411  1.00  0.00     0.019 A 
HETATM    7  C6  LIG X 999      46.609 129.474  16.627  1.00  0.00     0.013 A 
HETATM    8  C7  LIG X 999      46.878 129.966  15.341  1.00  0.00    -0.026 A 
HETATM    9  C8  LIG X 999      47.876 129.384  14.545  1.00  0.00     0.012 A 
HETATM   10  C12 LIG X 999      46.135 131.065  14.841  1.00  0.00    -0.025 A 
HETATM   11  C9  LIG X 999      48.134 129.885  13.265  1.00  0.00     0.001 A 
HETATM   12  C10 LIG X 999      47.401 130.968  12.773  1.00  0.00     0.001 A 
HETATM   13  C11 LIG X 999      46.404 131.558  13.556  1.00  0.00     0.012 A 
HETATM   14  C13 LIG X 999      45.138 131.647  15.638  1.00  0.00     0.030 A 
ENDBRANCH   4   5
ENDBRANCH   3   4
TORSDOF 2
