REMARK VINA RESULT:      -4.3      8.260      9.555
REMARK  1 active torsions:
REMARK  status: ('A' for Active; 'I' for Inactive)
REMARK    1  A    between atoms: C7_7  and  N1_8 
ROOT
HETATM    1  N1  LIG X 999      49.680 135.825  22.215  1.00  0.00    -0.110 NA
HETATM    2  N2  LIG X 999      48.841 134.927  22.127  1.00  0.00    -0.167 NA
HETATM    3  N3  LIG X 999      48.005 134.030  22.040  1.00  0.00     0.068 N 
ENDROOT
BRANCH   1   4
HETATM    4  C7  LIG X 999      50.424 136.285  21.044  1.00  0.00     0.153 C 
HETATM    5  C6  LIG X 999      51.525 137.261  21.492  1.00  0.00     0.031 C 
HETATM    6  C5  LIG X 999      50.933 138.566  22.039  1.00  0.00     0.003 C 
HETATM    7  C4  LIG X 999      50.046 139.245  20.991  1.00  0.00     0.009 C 
HETATM    8  C3  LIG X 999      48.917 138.309  20.514  1.00  0.00     0.018 C 
HETATM    9  C2  LIG X 999      48.136 138.989  19.411  1.00  0.00    -0.021 C 
HETATM   10  C8  LIG X 999      49.471 136.944  20.013  1.00  0.00     0.043 C 
HETATM   11  C1  LIG X 999      48.505 138.855  18.132  1.00  0.00    -0.004 C 
HETATM   12  C10 LIG X 999      49.616 137.957  17.761  1.00  0.00    -0.004 C 
HETATM   13  C9  LIG X 999      50.122 137.098  18.654  1.00  0.00    -0.019 C 
ENDBRANCH   1   4
TORSDOF 1
