REMARK VINA RESULT:      -5.3      5.147      7.113
REMARK  1 active torsions:
REMARK  status: ('A' for Active; 'I' for Inactive)
REMARK    1  A    between atoms: C3_3  and  N1_4 
ROOT
HETATM    1  N1  LIG X 999      45.020 131.128  21.135  1.00  0.00    -0.072 NA
HETATM    2  N2  LIG X 999      44.618 131.439  20.014  1.00  0.00    -0.162 NA
HETATM    3  N3  LIG X 999      44.217 131.750  18.893  1.00  0.00     0.068 N 
ENDROOT
BRANCH   1   4
HETATM    4  C3  LIG X 999      44.127 130.790  22.211  1.00  0.00     0.104 A 
HETATM    5  C2  LIG X 999      43.244 131.749  22.745  1.00  0.00     0.035 A 
HETATM    6  C1  LIG X 999      42.380 131.417  23.789  1.00  0.00     0.003 A 
HETATM    7  C10 LIG X 999      42.375 130.129  24.321  1.00  0.00     0.012 A 
HETATM    8  C9  LIG X 999      43.241 129.153  23.811  1.00  0.00    -0.023 A 
HETATM    9  C4  LIG X 999      44.130 129.481  22.742  1.00  0.00     0.006 A 
HETATM   10  C8  LIG X 999      43.237 127.852  24.350  1.00  0.00     0.021 A 
HETATM   11  C5  LIG X 999      45.000 128.485  22.241  1.00  0.00     0.024 A 
HETATM   12  C6  LIG X 999      44.958 127.208  22.800  1.00  0.00    -0.023 A 
HETATM   13  C7  LIG X 999      44.108 126.903  23.817  1.00  0.00    -0.024 A 
HETATM   14  C14 LIG X 999      45.787 126.036  22.446  1.00  0.00     0.276 C 
HETATM   15  C11 LIG X 999      44.287 125.497  24.240  1.00  0.00     0.276 C 
HETATM   16  N4  LIG X 999      45.245 124.899  23.256  1.00  0.00    -0.067 N 
HETATM   17  C12 LIG X 999      46.338 124.188  23.957  1.00  0.00     0.272 C 
HETATM   18  C13 LIG X 999      44.534 123.942  22.375  1.00  0.00     0.272 C 
ENDBRANCH   1   4
TORSDOF 1
