REMARK VINA RESULT:      -8.1      3.470      6.884
REMARK  3 active torsions:
REMARK  status: ('A' for Active; 'I' for Inactive)
REMARK    1  A    between atoms: C1_1  and  C2_6 
REMARK    2  A    between atoms: N1_2  and  N2_3 
REMARK    3  A    between atoms: C2_6  and  C3_8 
ROOT
HETATM    1  C3  LIG X 999      44.604 131.379  18.360  1.00  0.00     0.016 A 
HETATM    2  C4  LIG X 999      45.680 130.708  18.967  1.00  0.00     0.016 A 
HETATM    3  C5  LIG X 999      45.696 130.490  20.346  1.00  0.00     0.013 A 
HETATM    4  C6  LIG X 999      44.643 130.950  21.147  1.00  0.00    -0.026 A 
HETATM    5  C7  LIG X 999      44.651 130.736  22.534  1.00  0.00     0.012 A 
HETATM    6  C8  LIG X 999      43.597 131.206  23.322  1.00  0.00     0.001 A 
HETATM    7  C9  LIG X 999      42.531 131.893  22.735  1.00  0.00     0.001 A 
HETATM    8  C10 LIG X 999      42.511 132.113  21.355  1.00  0.00     0.012 A 
HETATM    9  C11 LIG X 999      43.562 131.643  20.550  1.00  0.00    -0.025 A 
HETATM   10  C12 LIG X 999      43.553 131.857  19.164  1.00  0.00     0.028 A 
ENDROOT
BRANCH   1  11
HETATM   11  C2  LIG X 999      44.615 131.610  16.894  1.00  0.00     0.201 C 
HETATM   12  O1  LIG X 999      43.518 131.680  16.277  1.00  0.00    -0.286 OA
BRANCH  11  13
HETATM   13  C1  LIG X 999      45.859 131.780  16.123  1.00  0.00     0.195 C 
HETATM   14  N1  LIG X 999      45.883 131.588  14.838  1.00  0.00    -0.164 NA
BRANCH  14  15
HETATM   15  N2  LIG X 999      47.045 131.704  14.052  1.00  0.00    -0.177 N 
HETATM   16  H2  LIG X 999      47.766 132.411  14.315  1.00  0.00     0.214 HD
HETATM   17  N3  LIG X 999      47.242 130.966  13.036  1.00  0.00    -0.031 N 
ENDBRANCH  14  15
ENDBRANCH  11  13
ENDBRANCH   1  11
TORSDOF 3
