REMARK VINA RESULT:      -5.2      8.205     11.090
REMARK  2 active torsions:
REMARK  status: ('A' for Active; 'I' for Inactive)
REMARK    1  A    between atoms: C9_10  and  N2_11 
REMARK       I    between atoms: N2_11  and  C10_12 
REMARK    2  A    between atoms: C10_12  and  C11_14 
ROOT
HETATM    1  C11 LIG X 999      42.845 124.753  23.592  1.00  0.00     0.282 C 
HETATM    2 CL1  LIG X 999      41.660 126.000  23.126  1.00  0.00    -0.099 Cl
HETATM    3  C12 LIG X 999      42.338 123.431  23.214  1.00  0.00     0.089 C 
HETATM    4  N3  LIG X 999      41.937 122.386  22.915  1.00  0.00    -0.195 NA
ENDROOT
BRANCH   1   5
HETATM    5  C10 LIG X 999      44.159 125.009  22.923  1.00  0.00     0.276 C 
HETATM    6  N2  LIG X 999      45.192 124.018  23.000  1.00  0.00    -0.212 NA
HETATM    7  O1  LIG X 999      44.322 126.056  22.238  1.00  0.00    -0.268 OA
BRANCH   6   8
HETATM    8  C9  LIG X 999      46.570 124.192  22.638  1.00  0.00     0.061 A 
HETATM    9  C8  LIG X 999      47.361 125.049  23.413  1.00  0.00     0.032 A 
HETATM   10  C7  LIG X 999      48.704 125.266  23.091  1.00  0.00     0.014 A 
HETATM   11  C6  LIG X 999      49.271 124.641  21.974  1.00  0.00    -0.025 A 
HETATM   12  C5  LIG X 999      50.623 124.853  21.642  1.00  0.00     0.021 A 
HETATM   13  C14 LIG X 999      48.469 123.788  21.164  1.00  0.00    -0.023 A 
HETATM   14  C4  LIG X 999      51.140 124.221  20.511  1.00  0.00    -0.024 A 
HETATM   15  C3  LIG X 999      52.524 124.282  19.990  1.00  0.00     0.276 C 
HETATM   16  C16 LIG X 999      50.373 123.408  19.734  1.00  0.00    -0.024 A 
HETATM   17  N1  LIG X 999      52.500 123.535  18.692  1.00  0.00    -0.067 N 
HETATM   18  C1  LIG X 999      52.643 124.482  17.560  1.00  0.00     0.272 C 
HETATM   19  C2  LIG X 999      53.600 122.547  18.637  1.00  0.00     0.272 C 
HETATM   20  C17 LIG X 999      51.170 122.849  18.621  1.00  0.00     0.276 C 
HETATM   21  C15 LIG X 999      49.031 123.166  20.032  1.00  0.00     0.021 A 
HETATM   22  C13 LIG X 999      47.122 123.578  21.499  1.00  0.00     0.044 A 
ENDBRANCH   6   8
ENDBRANCH   1   5
TORSDOF 2
