MODEL 1
REMARK VINA RESULT:      -7.3      0.000      0.000
REMARK  2 active torsions:
REMARK  status: ('A' for Active; 'I' for Inactive)
REMARK    1  A    between atoms: C9_10  and  N2_11 
REMARK       I    between atoms: N2_11  and  C10_12 
REMARK    2  A    between atoms: C10_12  and  C11_14 
ROOT
HETATM    1  C11 LIG X 999      46.976 129.812  13.602  1.00  0.00     0.280 C 
HETATM    2 CL1  LIG X 999      46.868 131.375  12.753  1.00  0.00    -0.099 Cl
HETATM    3  C12 LIG X 999      48.381 129.500  13.879  1.00  0.00     0.089 C 
HETATM    4  N3  LIG X 999      49.490 129.253  14.096  1.00  0.00    -0.195 NA
ENDROOT
BRANCH   1   5
HETATM    5  C10 LIG X 999      46.196 129.862  14.881  1.00  0.00     0.254 C 
HETATM    6  N2  LIG X 999      46.231 131.037  15.709  1.00  0.00    -0.325 N 
HETATM    7  H12 LIG X 999      46.986 131.737  15.532  1.00  0.00     0.169 HD
HETATM    8  O1  LIG X 999      45.555 128.839  15.249  1.00  0.00    -0.270 OA
BRANCH   6   9
HETATM    9  C9  LIG X 999      45.362 131.254  16.835  1.00  0.00     0.035 A 
HETATM   10  C8  LIG X 999      44.068 131.751  16.616  1.00  0.00     0.030 A 
HETATM   11  C7  LIG X 999      43.191 131.955  17.683  1.00  0.00     0.014 A 
HETATM   12  C6  LIG X 999      43.589 131.650  18.990  1.00  0.00    -0.025 A 
HETATM   13  C5  LIG X 999      42.710 131.849  20.073  1.00  0.00     0.021 A 
HETATM   14  C14 LIG X 999      44.891 131.123  19.223  1.00  0.00    -0.023 A 
HETATM   15  C4  LIG X 999      43.148 131.526  21.358  1.00  0.00    -0.024 A 
HETATM   16  C3  LIG X 999      42.395 131.628  22.626  1.00  0.00     0.276 C 
HETATM   17  C16 LIG X 999      44.393 131.018  21.581  1.00  0.00    -0.024 A 
HETATM   18  N1  LIG X 999      43.372 131.278  23.705  1.00  0.00    -0.067 N 
HETATM   19  C1  LIG X 999      42.797 130.269  24.624  1.00  0.00     0.272 C 
HETATM   20  C2  LIG X 999      43.727 132.490  24.482  1.00  0.00     0.272 C 
HETATM   21  C17 LIG X 999      44.587 130.735  23.019  1.00  0.00     0.276 C 
HETATM   22  C15 LIG X 999      45.290 130.799  20.535  1.00  0.00     0.021 A 
HETATM   23  C13 LIG X 999      45.762 130.923  18.142  1.00  0.00     0.042 A 
ENDBRANCH   6   9
ENDBRANCH   1   5
TORSDOF 2
ENDMDL
MODEL 2
REMARK VINA RESULT:      -5.8      3.406      8.007
REMARK  2 active torsions:
REMARK  status: ('A' for Active; 'I' for Inactive)
REMARK    1  A    between atoms: C9_10  and  N2_11 
REMARK       I    between atoms: N2_11  and  C10_12 
REMARK    2  A    between atoms: C10_12  and  C11_14 
ROOT
HETATM    1  C11 LIG X 999      42.618 131.497  23.690  1.00  0.00     0.280 C 
HETATM    2 CL1  LIG X 999      42.225 130.031  24.625  1.00  0.00    -0.099 Cl
HETATM    3  C12 LIG X 999      43.859 132.086  24.201  1.00  0.00     0.089 C 
HETATM    4  N3  LIG X 999      44.838 132.552  24.605  1.00  0.00    -0.195 NA
ENDROOT
BRANCH   1   5
HETATM    5  C10 LIG X 999      42.766 131.161  22.237  1.00  0.00     0.254 C 
HETATM    6  N2  LIG X 999      42.527 132.160  21.231  1.00  0.00    -0.325 N 
HETATM    7  H12 LIG X 999      42.020 133.028  21.516  1.00  0.00     0.169 HD
HETATM    8  O1  LIG X 999      43.048 129.976  21.906  1.00  0.00    -0.270 OA
BRANCH   6   9
HETATM    9  C9  LIG X 999      42.842 131.991  19.838  1.00  0.00     0.035 A 
HETATM   10  C8  LIG X 999      41.848 132.230  18.877  1.00  0.00     0.030 A 
HETATM   11  C7  LIG X 999      42.124 132.095  17.514  1.00  0.00     0.014 A 
HETATM   12  C6  LIG X 999      43.408 131.733  17.088  1.00  0.00    -0.025 A 
HETATM   13  C5  LIG X 999      43.697 131.598  15.716  1.00  0.00     0.021 A 
HETATM   14  C14 LIG X 999      44.431 131.511  18.053  1.00  0.00    -0.023 A 
HETATM   15  C4  LIG X 999      44.992 131.240  15.338  1.00  0.00    -0.024 A 
HETATM   16  C3  LIG X 999      45.522 131.067  13.969  1.00  0.00     0.276 C 
HETATM   17  C16 LIG X 999      45.972 131.031  16.260  1.00  0.00    -0.024 A 
HETATM   18  N1  LIG X 999      46.920 130.560  14.138  1.00  0.00    -0.067 N 
HETATM   19  C1  LIG X 999      47.866 131.346  13.313  1.00  0.00     0.272 C 
HETATM   20  C2  LIG X 999      46.997 129.136  13.733  1.00  0.00     0.272 C 
HETATM   21  C17 LIG X 999      47.249 130.697  15.593  1.00  0.00     0.276 C 
HETATM   22  C15 LIG X 999      45.728 131.162  17.628  1.00  0.00     0.021 A 
HETATM   23  C13 LIG X 999      44.140 131.649  19.418  1.00  0.00     0.042 A 
ENDBRANCH   6   9
ENDBRANCH   1   5
TORSDOF 2
ENDMDL
MODEL 3
REMARK VINA RESULT:      -5.7      3.867      7.950
REMARK  2 active torsions:
REMARK  status: ('A' for Active; 'I' for Inactive)
REMARK    1  A    between atoms: C9_10  and  N2_11 
REMARK       I    between atoms: N2_11  and  C10_12 
REMARK    2  A    between atoms: C10_12  and  C11_14 
ROOT
HETATM    1  C11 LIG X 999      43.816 128.076  24.606  1.00  0.00     0.280 C 
HETATM    2 CL1  LIG X 999      42.497 126.877  24.619  1.00  0.00    -0.099 Cl
HETATM    3  C12 LIG X 999      45.108 127.383  24.616  1.00  0.00     0.089 C 
HETATM    4  N3  LIG X 999      46.128 126.837  24.625  1.00  0.00    -0.195 NA
ENDROOT
BRANCH   1   5
HETATM    5  C10 LIG X 999      43.709 128.952  23.395  1.00  0.00     0.254 C 
HETATM    6  N2  LIG X 999      44.887 129.534  22.811  1.00  0.00    -0.325 N 
HETATM    7  H12 LIG X 999      45.763 129.537  23.380  1.00  0.00     0.169 HD
HETATM    8  O1  LIG X 999      42.566 129.218  22.929  1.00  0.00    -0.270 OA
BRANCH   6   9
HETATM    9  C9  LIG X 999      44.906 130.210  21.542  1.00  0.00     0.035 A 
HETATM   10  C8  LIG X 999      44.408 131.519  21.456  1.00  0.00     0.030 A 
HETATM   11  C7  LIG X 999      44.429 132.214  20.244  1.00  0.00     0.014 A 
HETATM   12  C6  LIG X 999      44.965 131.614  19.097  1.00  0.00    -0.025 A 
HETATM   13  C5  LIG X 999      44.994 132.307  17.872  1.00  0.00     0.021 A 
HETATM   14  C14 LIG X 999      45.494 130.295  19.178  1.00  0.00    -0.023 A 
HETATM   15  C4  LIG X 999      45.542 131.671  16.757  1.00  0.00    -0.024 A 
HETATM   16  C3  LIG X 999      45.698 132.211  15.389  1.00  0.00     0.276 C 
HETATM   17  C16 LIG X 999      46.052 130.410  16.834  1.00  0.00    -0.024 A 
HETATM   18  N1  LIG X 999      46.220 131.076  14.564  1.00  0.00    -0.067 N 
HETATM   19  C1  LIG X 999      47.398 131.503  13.774  1.00  0.00     0.272 C 
HETATM   20  C2  LIG X 999      45.168 130.595  13.638  1.00  0.00     0.272 C 
HETATM   21  C17 LIG X 999      46.595 129.990  15.525  1.00  0.00     0.276 C 
HETATM   22  C15 LIG X 999      46.049 129.693  18.031  1.00  0.00     0.021 A 
HETATM   23  C13 LIG X 999      45.467 129.609  20.401  1.00  0.00     0.042 A 
ENDBRANCH   6   9
ENDBRANCH   1   5
TORSDOF 2
ENDMDL
MODEL 4
REMARK VINA RESULT:      -4.8      8.190      8.950
REMARK  2 active torsions:
REMARK  status: ('A' for Active; 'I' for Inactive)
REMARK    1  A    between atoms: C9_10  and  N2_11 
REMARK       I    between atoms: N2_11  and  C10_12 
REMARK    2  A    between atoms: C10_12  and  C11_14 
ROOT
HETATM    1  C11 LIG X 999      53.077 123.861  19.882  1.00  0.00     0.280 C 
HETATM    2 CL1  LIG X 999      53.614 122.375  20.707  1.00  0.00    -0.099 Cl
HETATM    3  C12 LIG X 999      53.327 123.741  18.443  1.00  0.00     0.089 C 
HETATM    4  N3  LIG X 999      53.525 123.647  17.307  1.00  0.00    -0.195 NA
ENDROOT
BRANCH   1   5
HETATM    5  C10 LIG X 999      51.618 124.096  20.135  1.00  0.00     0.254 C 
HETATM    6  N2  LIG X 999      51.043 123.791  21.417  1.00  0.00    -0.325 N 
HETATM    7  H12 LIG X 999      51.594 123.186  22.068  1.00  0.00     0.169 HD
HETATM    8  O1  LIG X 999      50.891 124.512  19.191  1.00  0.00    -0.270 OA
BRANCH   6   9
HETATM    9  C9  LIG X 999      49.715 124.173  21.815  1.00  0.00     0.035 A 
HETATM   10  C8  LIG X 999      49.512 125.427  22.411  1.00  0.00     0.030 A 
HETATM   11  C7  LIG X 999      48.233 125.839  22.792  1.00  0.00     0.014 A 
HETATM   12  C6  LIG X 999      47.129 125.007  22.568  1.00  0.00    -0.025 A 
HETATM   13  C5  LIG X 999      45.835 125.415  22.945  1.00  0.00     0.021 A 
HETATM   14  C14 LIG X 999      47.319 123.742  21.942  1.00  0.00    -0.023 A 
HETATM   15  C4  LIG X 999      44.764 124.555  22.697  1.00  0.00    -0.024 A 
HETATM   16  C3  LIG X 999      43.331 124.784  22.983  1.00  0.00     0.276 C 
HETATM   17  C16 LIG X 999      44.944 123.346  22.095  1.00  0.00    -0.024 A 
HETATM   18  N1  LIG X 999      42.641 123.501  22.639  1.00  0.00    -0.067 N 
HETATM   19  C1  LIG X 999      41.465 123.754  21.774  1.00  0.00     0.272 C 
HETATM   20  C2  LIG X 999      42.191 122.819  23.875  1.00  0.00     0.272 C 
HETATM   21  C17 LIG X 999      43.649 122.655  21.924  1.00  0.00     0.276 C 
HETATM   22  C15 LIG X 999      46.209 122.909  21.700  1.00  0.00     0.021 A 
HETATM   23  C13 LIG X 999      48.609 123.341  21.565  1.00  0.00     0.042 A 
ENDBRANCH   6   9
ENDBRANCH   1   5
TORSDOF 2
ENDMDL
MODEL 5
REMARK VINA RESULT:      -4.5      9.013     10.961
REMARK  2 active torsions:
REMARK  status: ('A' for Active; 'I' for Inactive)
REMARK    1  A    between atoms: C9_10  and  N2_11 
REMARK       I    between atoms: N2_11  and  C10_12 
REMARK    2  A    between atoms: C10_12  and  C11_14 
ROOT
HETATM    1  C11 LIG X 999      39.577 124.793  24.509  1.00  0.00     0.280 C 
HETATM    2 CL1  LIG X 999      38.567 125.959  23.616  1.00  0.00    -0.099 Cl
HETATM    3  C12 LIG X 999      39.007 123.449  24.376  1.00  0.00     0.089 C 
HETATM    4  N3  LIG X 999      38.558 122.388  24.273  1.00  0.00    -0.195 NA
ENDROOT
BRANCH   1   5
HETATM    5  C10 LIG X 999      40.981 124.813  23.984  1.00  0.00     0.254 C 
HETATM    6  N2  LIG X 999      41.851 123.687  24.189  1.00  0.00    -0.325 N 
HETATM    7  H12 LIG X 999      41.573 122.980  24.906  1.00  0.00     0.169 HD
HETATM    8  O1  LIG X 999      41.406 125.854  23.410  1.00  0.00    -0.270 OA
BRANCH   6   9
HETATM    9  C9  LIG X 999      43.129 123.532  23.550  1.00  0.00     0.035 A 
HETATM   10  C8  LIG X 999      43.217 122.785  22.365  1.00  0.00     0.030 A 
HETATM   11  C7  LIG X 999      44.438 122.629  21.706  1.00  0.00     0.014 A 
HETATM   12  C6  LIG X 999      45.595 123.233  22.215  1.00  0.00    -0.025 A 
HETATM   13  C5  LIG X 999      46.831 123.085  21.556  1.00  0.00     0.021 A 
HETATM   14  C14 LIG X 999      45.515 124.013  23.404  1.00  0.00    -0.023 A 
HETATM   15  C4  LIG X 999      47.956 123.710  22.098  1.00  0.00    -0.024 A 
HETATM   16  C3  LIG X 999      49.336 123.711  21.567  1.00  0.00     0.276 C 
HETATM   17  C16 LIG X 999      47.879 124.459  23.233  1.00  0.00    -0.024 A 
HETATM   18  N1  LIG X 999      50.163 124.418  22.596  1.00  0.00    -0.067 N 
HETATM   19  C1  LIG X 999      51.003 125.462  21.966  1.00  0.00     0.272 C 
HETATM   20  C2  LIG X 999      51.042 123.450  23.294  1.00  0.00     0.272 C 
HETATM   21  C17 LIG X 999      49.201 125.030  23.568  1.00  0.00     0.276 C 
HETATM   22  C15 LIG X 999      46.672 124.636  23.911  1.00  0.00     0.021 A 
HETATM   23  C13 LIG X 999      44.281 124.161  24.055  1.00  0.00     0.042 A 
ENDBRANCH   6   9
ENDBRANCH   1   5
TORSDOF 2
ENDMDL
MODEL 6
REMARK VINA RESULT:      -4.5      7.932      8.968
REMARK  2 active torsions:
REMARK  status: ('A' for Active; 'I' for Inactive)
REMARK    1  A    between atoms: C9_10  and  N2_11 
REMARK       I    between atoms: N2_11  and  C10_12 
REMARK    2  A    between atoms: C10_12  and  C11_14 
ROOT
HETATM    1  C11 LIG X 999      51.489 124.942  21.067  1.00  0.00     0.280 C 
HETATM    2 CL1  LIG X 999      52.650 123.815  21.815  1.00  0.00    -0.099 Cl
HETATM    3  C12 LIG X 999      51.336 124.616  19.647  1.00  0.00     0.089 C 
HETATM    4  N3  LIG X 999      51.215 124.360  18.525  1.00  0.00    -0.195 NA
ENDROOT
BRANCH   1   5
HETATM    5  C10 LIG X 999      50.164 124.858  21.763  1.00  0.00     0.254 C 
HETATM    6  N2  LIG X 999      49.116 124.027  21.234  1.00  0.00    -0.325 N 
HETATM    7  H12 LIG X 999      49.210 123.691  20.249  1.00  0.00     0.169 HD
HETATM    8  O1  LIG X 999      49.961 125.568  22.786  1.00  0.00    -0.270 OA
BRANCH   6   9
HETATM    9  C9  LIG X 999      47.898 123.724  21.936  1.00  0.00     0.035 A 
HETATM   10  C8  LIG X 999      47.907 122.729  22.925  1.00  0.00     0.030 A 
HETATM   11  C7  LIG X 999      46.747 122.422  23.641  1.00  0.00     0.014 A 
HETATM   12  C6  LIG X 999      45.559 123.118  23.388  1.00  0.00    -0.025 A 
HETATM   13  C5  LIG X 999      44.385 122.818  24.107  1.00  0.00     0.021 A 
HETATM   14  C14 LIG X 999      45.543 124.146  22.403  1.00  0.00    -0.023 A 
HETATM   15  C4  LIG X 999      43.225 123.542  23.825  1.00  0.00    -0.024 A 
HETATM   16  C3  LIG X 999      41.899 123.416  24.466  1.00  0.00     0.276 C 
HETATM   17  C16 LIG X 999      43.210 124.528  22.885  1.00  0.00    -0.024 A 
HETATM   18  N1  LIG X 999      40.993 124.331  23.702  1.00  0.00    -0.067 N 
HETATM   19  C1  LIG X 999      40.229 125.201  24.625  1.00  0.00     0.272 C 
HETATM   20  C2  LIG X 999      40.040 123.539  22.888  1.00  0.00     0.272 C 
HETATM   21  C17 LIG X 999      41.872 125.151  22.809  1.00  0.00     0.276 C 
HETATM   22  C15 LIG X 999      44.354 124.860  22.157  1.00  0.00     0.021 A 
HETATM   23  C13 LIG X 999      46.714 124.444  21.692  1.00  0.00     0.042 A 
ENDBRANCH   6   9
ENDBRANCH   1   5
TORSDOF 2
ENDMDL
MODEL 7
REMARK VINA RESULT:      -4.4      2.946      4.033
REMARK  2 active torsions:
REMARK  status: ('A' for Active; 'I' for Inactive)
REMARK    1  A    between atoms: C9_10  and  N2_11 
REMARK       I    between atoms: N2_11  and  C10_12 
REMARK    2  A    between atoms: C10_12  and  C11_14 
ROOT
HETATM    1  C11 LIG X 999      45.558 132.091  15.261  1.00  0.00     0.280 C 
HETATM    2 CL1  LIG X 999      46.928 131.619  14.224  1.00  0.00    -0.099 Cl
HETATM    3  C12 LIG X 999      44.300 131.704  14.617  1.00  0.00     0.089 C 
HETATM    4  N3  LIG X 999      43.306 131.400  14.108  1.00  0.00    -0.195 NA
ENDROOT
BRANCH   1   5
HETATM    5  C10 LIG X 999      45.674 131.434  16.604  1.00  0.00     0.254 C 
HETATM    6  N2  LIG X 999      45.157 132.083  17.778  1.00  0.00    -0.325 N 
HETATM    7  H12 LIG X 999      44.932 133.101  17.714  1.00  0.00     0.169 HD
HETATM    8  O1  LIG X 999      46.280 130.331  16.697  1.00  0.00    -0.270 OA
BRANCH   6   9
HETATM    9  C9  LIG X 999      45.037 131.446  19.062  1.00  0.00     0.035 A 
HETATM   10  C8  LIG X 999      44.448 132.150  20.123  1.00  0.00     0.030 A 
HETATM   11  C7  LIG X 999      44.297 131.557  21.379  1.00  0.00     0.014 A 
HETATM   12  C6  LIG X 999      44.720 130.238  21.590  1.00  0.00    -0.025 A 
HETATM   13  C5  LIG X 999      44.569 129.630  22.851  1.00  0.00     0.021 A 
HETATM   14  C14 LIG X 999      45.298 129.506  20.515  1.00  0.00    -0.023 A 
HETATM   15  C4  LIG X 999      45.000 128.312  23.013  1.00  0.00    -0.024 A 
HETATM   16  C3  LIG X 999      44.919 127.474  24.229  1.00  0.00     0.276 C 
HETATM   17  C16 LIG X 999      45.549 127.609  21.984  1.00  0.00    -0.024 A 
HETATM   18  N1  LIG X 999      45.635 126.204  23.892  1.00  0.00    -0.067 N 
HETATM   19  C1  LIG X 999      44.813 125.027  24.255  1.00  0.00     0.272 C 
HETATM   20  C2  LIG X 999      46.922 126.137  24.625  1.00  0.00     0.272 C 
HETATM   21  C17 LIG X 999      45.887 126.237  22.416  1.00  0.00     0.276 C 
HETATM   22  C15 LIG X 999      45.709 128.174  20.718  1.00  0.00     0.021 A 
HETATM   23  C13 LIG X 999      45.443 130.114  19.259  1.00  0.00     0.042 A 
ENDBRANCH   6   9
ENDBRANCH   1   5
TORSDOF 2
ENDMDL
