REMARK VINA RESULT:      -8.0      0.000      0.000
REMARK  1 active torsions:
REMARK  status: ('A' for Active; 'I' for Inactive)
REMARK    1  A    between atoms: C11_13  and  N2_14 
ROOT
HETATM    1  N2  LIG X 999      47.548 129.510  14.383  1.00  0.00    -0.053 NA
HETATM    2  N3  LIG X 999      47.798 130.222  13.408  1.00  0.00    -0.160 NA
HETATM    3  N4  LIG X 999      48.046 130.931  12.435  1.00  0.00     0.068 N 
ENDROOT
BRANCH   1   4
HETATM    4  C11 LIG X 999      46.711 129.975  15.443  1.00  0.00     0.175 A 
HETATM    5  C10 LIG X 999      45.497 130.625  15.272  1.00  0.00     0.026 A 
HETATM    6  C5  LIG X 999      45.055 130.882  16.526  1.00  0.00     0.017 A 
HETATM    7  C9  LIG X 999      44.747 131.013  14.163  1.00  0.00     0.016 A 
HETATM    8  C4  LIG X 999      45.956 130.409  17.421  1.00  0.00     0.046 A 
HETATM    9  C6  LIG X 999      43.872 131.521  16.830  1.00  0.00     0.005 A 
HETATM   10  C3  LIG X 999      45.724 130.555  18.868  1.00  0.00     0.033 A 
HETATM   11  N5  LIG X 999      46.995 129.841  16.770  1.00  0.00    -0.337 N 
HETATM   12  C2  LIG X 999      44.591 131.170  19.276  1.00  0.00     0.034 A 
HETATM   13  C1  LIG X 999      43.588 131.695  18.288  1.00  0.00     0.059 A 
HETATM   14  N1  LIG X 999      42.515 132.277  18.720  1.00  0.00    -0.300 NA
HETATM   15  H1  LIG X 999      41.779 132.664  18.089  1.00  0.00     0.187 HD
HETATM   16  H7  LIG X 999      47.836 129.395  17.199  1.00  0.00     0.167 HD
HETATM   17  C7  LIG X 999      43.077 131.933  15.734  1.00  0.00     0.015 A 
HETATM   18  C8  LIG X 999      43.519 131.676  14.406  1.00  0.00     0.002 A 
ENDBRANCH   1   4
TORSDOF 1
