REMARK VINA RESULT:      -4.7      6.114      7.807
REMARK  1 active torsions:
REMARK  status: ('A' for Active; 'I' for Inactive)
REMARK    1  A    between atoms: C13_15  and  N2_16 
ROOT
HETATM    1  N1  LIG X 999      44.239 131.227  24.379  1.00  0.00    -0.191 NA
HETATM    2  C1  LIG X 999      44.034 130.115  24.135  1.00  0.00     0.109 C 
HETATM    3  C2  LIG X 999      43.779 128.733  23.831  1.00  0.00     0.113 A 
HETATM    4  S1  LIG X 999      44.960 127.654  23.318  1.00  0.00    -0.076 SA
HETATM    5  C3  LIG X 999      43.894 126.385  23.059  1.00  0.00     0.019 A 
HETATM    6  C4  LIG X 999      44.213 125.133  22.547  1.00  0.00     0.021 A 
HETATM    7  C5  LIG X 999      43.188 124.203  22.366  1.00  0.00     0.013 A 
HETATM    8  C6  LIG X 999      41.868 124.509  22.756  1.00  0.00    -0.025 A 
HETATM    9  C7  LIG X 999      40.865 123.535  22.625  1.00  0.00     0.012 A 
HETATM   10  C8  LIG X 999      39.574 123.788  23.087  1.00  0.00     0.001 A 
HETATM   11  C9  LIG X 999      39.279 124.999  23.711  1.00  0.00     0.001 A 
HETATM   12  C10 LIG X 999      40.262 125.984  23.842  1.00  0.00     0.013 A 
HETATM   13  C11 LIG X 999      41.556 125.784  23.317  1.00  0.00    -0.012 A 
HETATM   14  C12 LIG X 999      42.591 126.756  23.392  1.00  0.00     0.020 A 
HETATM   15  C13 LIG X 999      42.523 128.121  23.780  1.00  0.00     0.066 A 
ENDROOT
BRANCH  15  16
HETATM   16  N2  LIG X 999      41.316 128.881  23.901  1.00  0.00    -0.397 N 
HETATM   17  H7  LIG X 999      41.348 129.923  23.924  1.00  0.00     0.156 HD
HETATM   18  H8  LIG X 999      40.391 128.436  23.710  1.00  0.00     0.156 HD
ENDBRANCH  15  16
TORSDOF 1
