REMARK VINA RESULT:      -5.8      2.417      4.049
REMARK  1 active torsions:
REMARK  status: ('A' for Active; 'I' for Inactive)
REMARK    1  A    between atoms: C5_8  and  O1_9 
ROOT
HETATM    1  H1  LIG X 999      46.139 130.517  20.707  1.00  0.00     0.187 HD
HETATM    2  N1  LIG X 999      46.282 130.379  19.681  1.00  0.00    -0.300 NA
HETATM    3  C1  LIG X 999      45.415 130.788  18.811  1.00  0.00     0.059 A 
HETATM    4  C2  LIG X 999      44.154 131.488  19.241  1.00  0.00     0.034 A 
HETATM    5  C3  LIG X 999      43.247 131.916  18.331  1.00  0.00     0.035 A 
HETATM    6  C4  LIG X 999      43.523 131.681  16.902  1.00  0.00     0.071 A 
HETATM    7  N2  LIG X 999      42.777 132.013  15.822  1.00  0.00    -0.224 NA
HETATM    8  C5  LIG X 999      43.503 131.559  14.759  1.00  0.00     0.174 A 
HETATM    9  C6  LIG X 999      44.680 130.956  15.176  1.00  0.00     0.030 A 
HETATM   10  C7  LIG X 999      45.752 130.343  14.524  1.00  0.00     0.017 A 
HETATM   11  C8  LIG X 999      46.799 129.833  15.331  1.00  0.00     0.002 A 
HETATM   12  C9  LIG X 999      46.749 129.947  16.749  1.00  0.00     0.015 A 
HETATM   13  C10 LIG X 999      45.642 130.577  17.357  1.00  0.00     0.005 A 
HETATM   14  C11 LIG X 999      44.658 131.051  16.520  1.00  0.00     0.020 A 
ENDROOT
BRANCH   8  15
HETATM   15  O1  LIG X 999      43.101 131.692  13.436  1.00  0.00    -0.344 OA
HETATM   16  H4  LIG X 999      42.355 132.330  13.186  1.00  0.00     0.219 HD
ENDBRANCH   8  15
TORSDOF 1
