REMARK VINA RESULT:      -5.4      4.696      8.383
REMARK  3 active torsions:
REMARK  status: ('A' for Active; 'I' for Inactive)
REMARK    1  A    between atoms: C1_2  and  C2_4 
REMARK       I    between atoms: N1_6  and  C4_7 
REMARK    2  A    between atoms: C4_7  and  C5_9 
REMARK    3  A    between atoms: C6_10  and  C7_11 
ROOT
HETATM    1  C5  LIG X 999      44.119 131.559  17.022  1.00  0.00     0.000 C 
HETATM    2  C6  LIG X 999      44.160 131.480  18.224  1.00  0.00    -0.057 C 
ENDROOT
BRANCH   1   3
HETATM    3  C4  LIG X 999      44.075 131.662  15.588  1.00  0.00     0.300 C 
HETATM    4  N1  LIG X 999      45.227 131.341  14.794  1.00  0.00    -0.317 N 
HETATM    5  C3  LIG X 999      46.493 130.909  15.311  1.00  0.00     0.172 C 
HETATM    6  C17 LIG X 999      45.268 131.396  13.350  1.00  0.00     0.298 C 
HETATM    7  C2  LIG X 999      47.359 130.827  14.061  1.00  0.00     0.242 C 
HETATM    8  O4  LIG X 999      46.527 130.925  12.921  1.00  0.00    -0.354 OA
HETATM    9  O3  LIG X 999      43.009 132.038  15.032  1.00  0.00    -0.258 OA
BRANCH   7  10
HETATM   10  C1  LIG X 999      48.136 129.545  14.015  1.00  0.00     0.204 C 
HETATM   11  O1  LIG X 999      47.589 128.462  14.347  1.00  0.00    -0.646 OA
HETATM   12  O2  LIG X 999      49.449 129.541  13.556  1.00  0.00    -0.646 OA
ENDBRANCH   7  10
ENDBRANCH   1   3
BRANCH   2  13
HETATM   13  C7  LIG X 999      44.212 131.392  19.660  1.00  0.00     0.019 A 
HETATM   14  C8  LIG X 999      45.361 130.897  20.288  1.00  0.00     0.021 A 
HETATM   15  C9  LIG X 999      45.418 130.808  21.682  1.00  0.00     0.013 A 
HETATM   16  C10 LIG X 999      44.325 131.214  22.461  1.00  0.00    -0.026 A 
HETATM   17  C11 LIG X 999      44.372 131.130  23.860  1.00  0.00     0.012 A 
HETATM   18  C15 LIG X 999      43.161 131.716  21.827  1.00  0.00    -0.025 A 
HETATM   19  C12 LIG X 999      43.275 131.538  24.625  1.00  0.00     0.001 A 
HETATM   20  C13 LIG X 999      42.126 132.033  24.000  1.00  0.00     0.001 A 
HETATM   21  C14 LIG X 999      42.067 132.123  22.606  1.00  0.00     0.012 A 
HETATM   22  C16 LIG X 999      43.113 131.801  20.427  1.00  0.00     0.032 A 
ENDBRANCH   2  13
TORSDOF 3
