REMARK VINA RESULT:      -6.3      5.346      6.719
REMARK  3 active torsions:
REMARK  status: ('A' for Active; 'I' for Inactive)
REMARK    1  A    between atoms: C6_6  and  C7_7 
REMARK    2  A    between atoms: C7_7  and  N1_8 
REMARK    3  A    between atoms: C8_12  and  N4_13 
ROOT
HETATM    1  N1  LIG X 999      44.877 131.871  22.645  1.00  0.00    -0.065 NA
HETATM    2  N2  LIG X 999      44.343 132.380  23.632  1.00  0.00    -0.164 NA
HETATM    3  N3  LIG X 999      43.811 132.890  24.617  1.00  0.00     0.068 N 
ENDROOT
BRANCH   1   4
HETATM    4  C7  LIG X 999      44.184 130.885  21.817  1.00  0.00     0.267 A 
HETATM    5  O1  LIG X 999      42.961 130.454  22.373  1.00  0.00    -0.314 OA
HETATM    6  C8  LIG X 999      44.012 129.511  22.351  1.00  0.00     0.349 A 
BRANCH   4   7
HETATM    7  C6  LIG X 999      44.112 131.126  20.341  1.00  0.00     0.007 A 
HETATM    8  C5  LIG X 999      45.170 130.730  19.509  1.00  0.00     0.024 A 
HETATM    9  C4  LIG X 999      45.094 130.934  18.123  1.00  0.00    -0.025 A 
HETATM   10  C3  LIG X 999      46.151 130.548  17.283  1.00  0.00     0.012 A 
HETATM   11  C11 LIG X 999      43.939 131.532  17.564  1.00  0.00    -0.026 A 
HETATM   12  C2  LIG X 999      46.064 130.756  15.904  1.00  0.00     0.001 A 
HETATM   13  C1  LIG X 999      44.923 131.347  15.353  1.00  0.00     0.001 A 
HETATM   14  C12 LIG X 999      43.863 131.735  16.177  1.00  0.00     0.012 A 
HETATM   15  C10 LIG X 999      42.880 131.912  18.401  1.00  0.00     0.013 A 
HETATM   16  C9  LIG X 999      42.966 131.705  19.780  1.00  0.00     0.013 A 
ENDBRANCH   4   7
BRANCH   6  17
HETATM   17  N4  LIG X 999      44.518 129.288  23.695  1.00  0.00    -0.077 NA
HETATM   18  N5  LIG X 999      44.992 128.196  24.005  1.00  0.00    -0.165 NA
HETATM   19  N6  LIG X 999      45.465 127.105  24.316  1.00  0.00     0.068 N 
ENDBRANCH   6  17
ENDBRANCH   1   4
TORSDOF 3
