REMARK VINA RESULT:      -5.9      4.956      8.688
REMARK  4 active torsions:
REMARK  status: ('A' for Active; 'I' for Inactive)
REMARK    1  A    between atoms: C3_3  and  O1_4 
REMARK    2  A    between atoms: O1_4  and  C4_5 
REMARK    3  A    between atoms: C4_5  and  O2_6 
REMARK    4  A    between atoms: C5_8  and  C6_9 
ROOT
HETATM    1  C1  LIG X 999      45.925 130.859  20.385  1.00  0.00     0.014 C 
HETATM    2  C2  LIG X 999      44.921 131.016  21.033  1.00  0.00    -0.091 C 
HETATM    3  C3  LIG X 999      43.703 131.206  21.820  1.00  0.00     0.270 C 
ENDROOT
BRANCH   3   4
HETATM    4  O1  LIG X 999      43.520 130.085  22.676  1.00  0.00    -0.319 OA
BRANCH   4   5
HETATM    5  C4  LIG X 999      44.216 129.939  23.879  1.00  0.00     0.179 C 
HETATM    6  C5  LIG X 999      44.496 128.720  24.361  1.00  0.00     0.075 C 
BRANCH   5   7
HETATM    7  O2  LIG X 999      44.647 131.076  24.567  1.00  0.00    -0.341 OA
HETATM    8  H4  LIG X 999      44.910 131.044  25.546  1.00  0.00     0.220 HD
ENDBRANCH   5   7
BRANCH   6   9
HETATM    9  C6  LIG X 999      44.081 127.455  23.713  1.00  0.00    -0.031 A 
HETATM   10  C7  LIG X 999      44.952 126.724  22.884  1.00  0.00     0.012 A 
HETATM   11  C8  LIG X 999      44.524 125.546  22.267  1.00  0.00     0.013 A 
HETATM   12  C9  LIG X 999      43.213 125.086  22.454  1.00  0.00    -0.026 A 
HETATM   13  C10 LIG X 999      42.774 123.903  21.840  1.00  0.00     0.012 A 
HETATM   14  C14 LIG X 999      42.322 125.828  23.265  1.00  0.00    -0.025 A 
HETATM   15  C11 LIG X 999      41.462 123.461  22.029  1.00  0.00     0.001 A 
HETATM   16  C12 LIG X 999      40.581 124.193  22.829  1.00  0.00     0.001 A 
HETATM   17  C13 LIG X 999      41.005 125.373  23.445  1.00  0.00     0.012 A 
HETATM   18  C15 LIG X 999      42.760 127.011  23.880  1.00  0.00     0.024 A 
ENDBRANCH   6   9
ENDBRANCH   4   5
ENDBRANCH   3   4
TORSDOF 4
