REMARK VINA RESULT:      -5.2      2.754      6.226
REMARK  1 active torsions:
REMARK  status: ('A' for Active; 'I' for Inactive)
REMARK    1  A    between atoms: C10_11  and  N2_12 
ROOT
HETATM    1  N2  LIG X 999      42.379 132.531  20.474  1.00  0.00    -0.052 NA
HETATM    2  N3  LIG X 999      42.539 132.170  21.641  1.00  0.00    -0.160 NA
HETATM    3  N4  LIG X 999      42.697 131.811  22.807  1.00  0.00     0.068 N 
ENDROOT
BRANCH   1   4
HETATM    4  C10 LIG X 999      43.178 132.022  19.398  1.00  0.00     0.186 C 
HETATM    5  N1  LIG X 999      42.747 132.198  18.127  1.00  0.00    -0.226 NA
HETATM    6  C9  LIG X 999      43.453 131.771  17.048  1.00  0.00     0.071 C 
HETATM    7  C8  LIG X 999      42.894 131.941  15.782  1.00  0.00     0.033 C 
HETATM    8  C14 LIG X 999      44.721 131.146  17.211  1.00  0.00     0.010 C 
HETATM    9  C7  LIG X 999      43.573 131.515  14.648  1.00  0.00     0.014 C 
HETATM   10  C5  LIG X 999      44.872 131.011  14.753  1.00  0.00    -0.025 C 
HETATM   11  C4  LIG X 999      45.494 130.882  16.030  1.00  0.00    -0.013 C 
HETATM   12  C6  LIG X 999      45.578 130.688  13.581  1.00  0.00     0.012 C 
HETATM   13  C3  LIG X 999      46.881 130.600  16.050  1.00  0.00     0.013 C 
HETATM   14  C2  LIG X 999      47.572 130.295  14.875  1.00  0.00     0.001 C 
HETATM   15  C1  LIG X 999      46.917 130.312  13.648  1.00  0.00     0.001 C 
HETATM   16  C12 LIG X 999      45.099 130.797  18.547  1.00  0.00    -0.045 C 
HETATM   17  C11 LIG X 999      44.355 131.302  19.626  1.00  0.00     0.063 C 
HETATM   18  C13 LIG X 999      46.168 129.789  18.894  1.00  0.00     0.049 C 
ENDBRANCH   1   4
TORSDOF 1
