REMARK VINA RESULT:      -5.0      2.939      4.399
REMARK  4 active torsions:
REMARK  status: ('A' for Active; 'I' for Inactive)
REMARK    1  A    between atoms: C1_2  and  C2_4 
REMARK    2  A    between atoms: C8_10  and  C9_11 
REMARK       I    between atoms: C9_11  and  N1_13 
REMARK    3  A    between atoms: N1_13  and  S1_14 
REMARK    4  A    between atoms: S1_14  and  C10_17 
ROOT
HETATM    1  C9  LIG X 999      42.940 131.402  20.600  1.00  0.00     0.259 C 
HETATM    2  O3  LIG X 999      42.299 132.486  20.527  1.00  0.00    -0.270 OA
HETATM    3  N1  LIG X 999      43.788 130.999  19.522  1.00  0.00    -0.122 NA
ENDROOT
BRANCH   3   4
HETATM    4  S1  LIG X 999      43.961 131.940  18.080  1.00  0.00     0.286 S 
HETATM    5  O4  LIG X 999      42.607 132.128  17.456  1.00  0.00    -0.198 OA
HETATM    6  O5  LIG X 999      44.533 133.285  18.431  1.00  0.00    -0.198 OA
BRANCH   4   7
HETATM    7  C10 LIG X 999      45.051 131.126  16.962  1.00  0.00     0.082 A 
HETATM    8  C11 LIG X 999      45.407 129.789  17.186  1.00  0.00     0.026 A 
HETATM    9  C12 LIG X 999      46.265 129.129  16.303  1.00  0.00     0.014 A 
HETATM   10  C13 LIG X 999      46.781 129.801  15.185  1.00  0.00    -0.026 A 
HETATM   11  C14 LIG X 999      47.645 129.148  14.292  1.00  0.00     0.012 A 
HETATM   12  C18 LIG X 999      46.430 131.155  14.959  1.00  0.00    -0.025 A 
HETATM   13  C15 LIG X 999      48.157 129.832  13.186  1.00  0.00     0.001 A 
HETATM   14  C16 LIG X 999      47.813 131.168  12.964  1.00  0.00     0.001 A 
HETATM   15  C17 LIG X 999      46.952 131.829  13.843  1.00  0.00     0.012 A 
HETATM   16  C19 LIG X 999      45.566 131.808  15.851  1.00  0.00     0.037 A 
ENDBRANCH   4   7
ENDBRANCH   3   4
BRANCH   1  17
HETATM   17  C8  LIG X 999      42.865 130.538  21.840  1.00  0.00     0.099 C 
HETATM   18  C2  LIG X 999      44.218 129.905  22.287  1.00  0.00     0.104 C 
HETATM   19  C3  LIG X 999      44.363 130.423  23.741  1.00  0.00     0.001 C 
HETATM   20  C4  LIG X 999      43.333 129.692  24.625  1.00  0.00     0.006 C 
HETATM   21  C7  LIG X 999      43.752 131.805  23.664  1.00  0.00     0.011 C 
HETATM   22  C5  LIG X 999      41.997 130.317  24.183  1.00  0.00     0.006 C 
HETATM   23  C6  LIG X 999      42.432 131.326  23.102  1.00  0.00    -0.000 C 
BRANCH  18  24
HETATM   24  C1  LIG X 999      45.410 130.252  21.421  1.00  0.00     0.178 C 
HETATM   25  O1  LIG X 999      45.914 129.372  20.676  1.00  0.00    -0.648 OA
HETATM   26  O2  LIG X 999      45.933 131.540  21.400  1.00  0.00    -0.648 OA
ENDBRANCH  18  24
ENDBRANCH   1  17
TORSDOF 4
