REMARK VINA RESULT:      -5.6      4.589      6.132
REMARK  7 active torsions:
REMARK  status: ('A' for Active; 'I' for Inactive)
REMARK    1  A    between atoms: N1_2  and  C2_3 
REMARK    2  A    between atoms: C2_3  and  C4_5 
REMARK    3  A    between atoms: C4_5  and  C5_6 
REMARK    4  A    between atoms: C5_6  and  C6_7 
REMARK    5  A    between atoms: C6_7  and  C7_8 
REMARK    6  A    between atoms: C7_8  and  N2_9 
REMARK    7  A    between atoms: N2_9  and  C8_10 
ROOT
HETATM    1  C8  LIG X 999      46.470 124.584  22.368  1.00  0.00     0.226 C 
HETATM    2  C9  LIG X 999      45.947 125.809  22.787  1.00  0.00     0.065 C 
HETATM    3  C10 LIG X 999      44.559 125.987  22.901  1.00  0.00    -0.045 C 
HETATM    4  C11 LIG X 999      44.086 127.410  23.063  1.00  0.00     0.049 C 
HETATM    5  C12 LIG X 999      43.691 124.861  22.721  1.00  0.00     0.010 C 
HETATM    6  C13 LIG X 999      44.277 123.682  22.180  1.00  0.00     0.070 C 
HETATM    7  C14 LIG X 999      43.484 122.616  21.757  1.00  0.00     0.033 C 
HETATM    8  C15 LIG X 999      42.102 122.677  21.869  1.00  0.00     0.014 C 
HETATM    9  C16 LIG X 999      41.495 123.761  22.509  1.00  0.00    -0.025 C 
HETATM   10  C17 LIG X 999      40.104 123.747  22.705  1.00  0.00     0.012 C 
HETATM   11  C18 LIG X 999      39.489 124.747  23.455  1.00  0.00     0.001 C 
HETATM   12  C19 LIG X 999      40.260 125.742  24.048  1.00  0.00     0.001 C 
HETATM   13  C20 LIG X 999      41.643 125.776  23.850  1.00  0.00     0.013 C 
HETATM   14  C21 LIG X 999      42.284 124.839  23.006  1.00  0.00    -0.013 C 
HETATM   15  N3  LIG X 999      45.625 123.576  22.044  1.00  0.00    -0.224 NA
ENDROOT
BRANCH   1  16
HETATM   16  N2  LIG X 999      47.894 124.392  22.249  1.00  0.00    -0.028 N 
HETATM   17  H17 LIG X 999      48.134 124.226  21.244  1.00  0.00     0.285 HD
HETATM   18  H18 LIG X 999      48.186 123.541  22.786  1.00  0.00     0.285 HD
BRANCH  16  19
HETATM   19  C7  LIG X 999      48.637 125.568  22.730  1.00  0.00     0.240 C 
BRANCH  19  20
HETATM   20  C6  LIG X 999      50.157 125.404  22.554  1.00  0.00     0.028 C 
BRANCH  20  21
HETATM   21  C5  LIG X 999      50.481 124.241  21.608  1.00  0.00     0.004 C 
BRANCH  21  22
HETATM   22  C4  LIG X 999      51.471 124.681  20.516  1.00  0.00     0.035 C 
BRANCH  22  23
HETATM   23  C2  LIG X 999      51.298 123.920  19.180  1.00  0.00     0.216 C 
HETATM   24  C3  LIG X 999      49.870 123.363  19.042  1.00  0.00     0.042 C 
BRANCH  23  25
HETATM   25  N1  LIG X 999      51.639 124.792  18.037  1.00  0.00     0.083 N 
HETATM   26  C1  LIG X 999      52.963 124.484  17.486  1.00  0.00     0.307 C 
HETATM   27  H4  LIG X 999      51.686 125.781  18.379  1.00  0.00     0.315 HD
ENDBRANCH  23  25
ENDBRANCH  22  23
ENDBRANCH  21  22
ENDBRANCH  20  21
ENDBRANCH  19  20
ENDBRANCH  16  19
ENDBRANCH   1  16
TORSDOF 7
