REMARK VINA RESULT:      -6.9      0.926      1.062
REMARK  1 active torsions:
REMARK  status: ('A' for Active; 'I' for Inactive)
REMARK    1  A    between atoms: C11_13  and  O1_14 
ROOT
HETATM    1  H1  LIG X 999      47.507 129.896  14.778  1.00  0.00     0.187 HD
HETATM    2  N1  LIG X 999      47.177 130.053  15.757  1.00  0.00    -0.300 NA
HETATM    3  C1  LIG X 999      46.021 130.582  16.009  1.00  0.00     0.059 A 
HETATM    4  C2  LIG X 999      45.099 130.998  14.894  1.00  0.00     0.034 A 
HETATM    5  C3  LIG X 999      43.891 131.552  15.157  1.00  0.00     0.033 A 
HETATM    6  C4  LIG X 999      43.501 131.738  16.566  1.00  0.00     0.046 A 
HETATM    7  C5  LIG X 999      44.332 131.363  17.567  1.00  0.00     0.018 A 
HETATM    8  C6  LIG X 999      45.575 130.794  17.412  1.00  0.00     0.005 A 
HETATM    9  C7  LIG X 999      46.283 130.476  18.590  1.00  0.00     0.015 A 
HETATM   10  C8  LIG X 999      45.698 130.751  19.857  1.00  0.00     0.002 A 
HETATM   11  C9  LIG X 999      44.411 131.340  19.952  1.00  0.00     0.017 A 
HETATM   12  C10 LIG X 999      43.751 131.635  18.759  1.00  0.00     0.028 A 
HETATM   13  C11 LIG X 999      42.523 132.195  18.439  1.00  0.00     0.151 A 
HETATM   14  N2  LIG X 999      42.367 132.260  17.086  1.00  0.00    -0.336 N 
HETATM   15  H8  LIG X 999      41.545 132.633  16.561  1.00  0.00     0.168 HD
ENDROOT
BRANCH  13  16
HETATM   16  O1  LIG X 999      41.575 132.633  19.356  1.00  0.00    -0.345 OA
HETATM   17  H7  LIG X 999      41.273 133.600  19.364  1.00  0.00     0.219 HD
ENDBRANCH  13  16
TORSDOF 1
