MODEL 1
REMARK VINA RESULT:      -7.8      0.000      0.000
REMARK  1 active torsions:
REMARK  status: ('A' for Active; 'I' for Inactive)
REMARK    1  A    between atoms: C5_8  and  O1_9 
ROOT
HETATM    1  H1  LIG X 999      47.555 129.580  17.464  1.00  0.00     0.187 HD
HETATM    2  N1  LIG X 999      46.856 129.895  16.758  1.00  0.00    -0.300 NA
HETATM    3  C1  LIG X 999      45.746 130.486  17.073  1.00  0.00     0.059 A 
HETATM    4  C2  LIG X 999      44.799 130.904  15.985  1.00  0.00     0.034 A 
HETATM    5  C3  LIG X 999      43.631 131.522  16.270  1.00  0.00     0.035 A 
HETATM    6  C4  LIG X 999      43.301 131.780  17.682  1.00  0.00     0.071 A 
HETATM    7  N2  LIG X 999      42.204 132.378  18.204  1.00  0.00    -0.224 NA
HETATM    8  C5  LIG X 999      42.417 132.352  19.552  1.00  0.00     0.174 A 
HETATM    9  C6  LIG X 999      43.627 131.749  19.857  1.00  0.00     0.030 A 
HETATM   10  C7  LIG X 999      44.308 131.473  21.042  1.00  0.00     0.017 A 
HETATM   11  C8  LIG X 999      45.562 130.822  20.936  1.00  0.00     0.002 A 
HETATM   12  C9  LIG X 999      46.094 130.469  19.664  1.00  0.00     0.015 A 
HETATM   13  C10 LIG X 999      45.365 130.770  18.491  1.00  0.00     0.005 A 
HETATM   14  C11 LIG X 999      44.153 131.404  18.664  1.00  0.00     0.020 A 
ENDROOT
BRANCH   8  15
HETATM   15  O1  LIG X 999      41.525 132.869  20.485  1.00  0.00    -0.344 OA
HETATM   16  H4  LIG X 999      41.731 133.734  20.969  1.00  0.00     0.219 HD
ENDBRANCH   8  15
TORSDOF 1
ENDMDL
MODEL 2
REMARK VINA RESULT:      -7.0      1.827      3.102
REMARK  1 active torsions:
REMARK  status: ('A' for Active; 'I' for Inactive)
REMARK    1  A    between atoms: C5_8  and  O1_9 
ROOT
HETATM    1  H1  LIG X 999      42.563 132.060  15.285  1.00  0.00     0.187 HD
HETATM    2  N1  LIG X 999      43.503 131.615  15.351  1.00  0.00    -0.300 NA
HETATM    3  C1  LIG X 999      44.099 131.376  16.477  1.00  0.00     0.059 A 
HETATM    4  C2  LIG X 999      45.454 130.730  16.472  1.00  0.00     0.034 A 
HETATM    5  C3  LIG X 999      46.110 130.464  17.624  1.00  0.00     0.035 A 
HETATM    6  C4  LIG X 999      45.462 130.822  18.897  1.00  0.00     0.071 A 
HETATM    7  N2  LIG X 999      45.919 130.655  20.161  1.00  0.00    -0.224 NA
HETATM    8  C5  LIG X 999      44.924 131.160  20.947  1.00  0.00     0.174 A 
HETATM    9  C6  LIG X 999      43.870 131.632  20.181  1.00  0.00     0.030 A 
HETATM   10  C7  LIG X 999      42.643 132.228  20.471  1.00  0.00     0.017 A 
HETATM   11  C8  LIG X 999      41.815 132.578  19.377  1.00  0.00     0.002 A 
HETATM   12  C9  LIG X 999      42.230 132.327  18.039  1.00  0.00     0.015 A 
HETATM   13  C10 LIG X 999      43.484 131.721  17.796  1.00  0.00     0.005 A 
HETATM   14  C11 LIG X 999      44.240 131.404  18.904  1.00  0.00     0.020 A 
ENDROOT
BRANCH   8  15
HETATM   15  O1  LIG X 999      44.978 131.190  22.336  1.00  0.00    -0.344 OA
HETATM   16  H4  LIG X 999      44.576 131.963  22.850  1.00  0.00     0.219 HD
ENDBRANCH   8  15
TORSDOF 1
ENDMDL
MODEL 3
REMARK VINA RESULT:      -6.5      2.633      5.240
REMARK  1 active torsions:
REMARK  status: ('A' for Active; 'I' for Inactive)
REMARK    1  A    between atoms: C5_8  and  O1_9 
ROOT
HETATM    1  H1  LIG X 999      41.564 132.762  17.508  1.00  0.00     0.187 HD
HETATM    2  N1  LIG X 999      42.211 132.427  18.254  1.00  0.00    -0.300 NA
HETATM    3  C1  LIG X 999      43.331 131.824  18.004  1.00  0.00     0.059 A 
HETATM    4  C2  LIG X 999      44.197 131.377  19.146  1.00  0.00     0.034 A 
HETATM    5  C3  LIG X 999      45.373 130.745  18.930  1.00  0.00     0.035 A 
HETATM    6  C4  LIG X 999      45.792 130.502  17.539  1.00  0.00     0.071 A 
HETATM    7  N2  LIG X 999      46.914 129.896  17.082  1.00  0.00    -0.224 NA
HETATM    8  C5  LIG X 999      46.790 129.943  15.723  1.00  0.00     0.174 A 
HETATM    9  C6  LIG X 999      45.612 130.567  15.348  1.00  0.00     0.030 A 
HETATM   10  C7  LIG X 999      45.014 130.870  14.124  1.00  0.00     0.017 A 
HETATM   11  C8  LIG X 999      43.766 131.538  14.157  1.00  0.00     0.002 A 
HETATM   12  C9  LIG X 999      43.155 131.882  15.396  1.00  0.00     0.015 A 
HETATM   13  C10 LIG X 999      43.801 131.554  16.611  1.00  0.00     0.005 A 
HETATM   14  C11 LIG X 999      45.013 130.905  16.508  1.00  0.00     0.020 A 
ENDROOT
BRANCH   8  15
HETATM   15  O1  LIG X 999      47.735 129.426  14.844  1.00  0.00    -0.344 OA
HETATM   16  H4  LIG X 999      48.066 129.976  14.062  1.00  0.00     0.219 HD
ENDBRANCH   8  15
TORSDOF 1
ENDMDL
MODEL 4
REMARK VINA RESULT:      -6.5      2.230      3.793
REMARK  1 active torsions:
REMARK  status: ('A' for Active; 'I' for Inactive)
REMARK    1  A    between atoms: C5_8  and  O1_9 
ROOT
HETATM    1  H1  LIG X 999      42.676 132.083  22.585  1.00  0.00     0.187 HD
HETATM    2  N1  LIG X 999      42.091 132.337  21.759  1.00  0.00    -0.300 NA
HETATM    3  C1  LIG X 999      42.483 132.174  20.535  1.00  0.00     0.059 A 
HETATM    4  C2  LIG X 999      41.569 132.570  19.410  1.00  0.00     0.034 A 
HETATM    5  C3  LIG X 999      41.939 132.417  18.119  1.00  0.00     0.035 A 
HETATM    6  C4  LIG X 999      43.267 131.850  17.832  1.00  0.00     0.071 A 
HETATM    7  N2  LIG X 999      43.847 131.606  16.633  1.00  0.00    -0.224 NA
HETATM    8  C5  LIG X 999      45.067 131.083  16.952  1.00  0.00     0.174 A 
HETATM    9  C6  LIG X 999      45.237 131.005  18.325  1.00  0.00     0.030 A 
HETATM   10  C7  LIG X 999      46.264 130.561  19.158  1.00  0.00     0.017 A 
HETATM   11  C8  LIG X 999      46.051 130.646  20.555  1.00  0.00     0.002 A 
HETATM   12  C9  LIG X 999      44.833 131.165  21.077  1.00  0.00     0.015 A 
HETATM   13  C10 LIG X 999      43.821 131.603  20.191  1.00  0.00     0.005 A 
HETATM   14  C11 LIG X 999      44.092 131.492  18.844  1.00  0.00     0.020 A 
ENDROOT
BRANCH   8  15
HETATM   15  O1  LIG X 999      46.006 130.684  16.008  1.00  0.00    -0.344 OA
HETATM   16  H4  LIG X 999      46.919 131.121  15.973  1.00  0.00     0.219 HD
ENDBRANCH   8  15
TORSDOF 1
ENDMDL
MODEL 5
REMARK VINA RESULT:      -6.4      2.166      4.031
REMARK  1 active torsions:
REMARK  status: ('A' for Active; 'I' for Inactive)
REMARK    1  A    between atoms: C5_8  and  O1_9 
ROOT
HETATM    1  H1  LIG X 999      43.648 131.809  23.046  1.00  0.00     0.187 HD
HETATM    2  N1  LIG X 999      44.514 131.403  22.628  1.00  0.00    -0.300 NA
HETATM    3  C1  LIG X 999      44.698 131.288  21.350  1.00  0.00     0.059 A 
HETATM    4  C2  LIG X 999      45.979 130.691  20.842  1.00  0.00     0.034 A 
HETATM    5  C3  LIG X 999      46.211 130.551  19.517  1.00  0.00     0.035 A 
HETATM    6  C4  LIG X 999      45.174 131.002  18.573  1.00  0.00     0.071 A 
HETATM    7  N2  LIG X 999      45.183 130.965  17.220  1.00  0.00    -0.224 NA
HETATM    8  C5  LIG X 999      43.981 131.505  16.862  1.00  0.00     0.174 A 
HETATM    9  C6  LIG X 999      43.243 131.869  17.977  1.00  0.00     0.030 A 
HETATM   10  C7  LIG X 999      41.989 132.448  18.171  1.00  0.00     0.017 A 
HETATM   11  C8  LIG X 999      41.574 132.670  19.507  1.00  0.00     0.002 A 
HETATM   12  C9  LIG X 999      42.414 132.314  20.600  1.00  0.00     0.015 A 
HETATM   13  C10 LIG X 999      43.677 131.730  20.351  1.00  0.00     0.005 A 
HETATM   14  C11 LIG X 999      44.020 131.541  19.029  1.00  0.00     0.020 A 
ENDROOT
BRANCH   8  15
HETATM   15  O1  LIG X 999      43.567 131.662  15.545  1.00  0.00    -0.344 OA
HETATM   16  H4  LIG X 999      43.000 132.456  15.274  1.00  0.00     0.219 HD
ENDBRANCH   8  15
TORSDOF 1
ENDMDL
MODEL 6
REMARK VINA RESULT:      -5.8      1.913      2.907
REMARK  1 active torsions:
REMARK  status: ('A' for Active; 'I' for Inactive)
REMARK    1  A    between atoms: C5_8  and  O1_9 
ROOT
HETATM    1  H1  LIG X 999      44.455 131.326  16.244  1.00  0.00     0.187 HD
HETATM    2  N1  LIG X 999      43.562 131.743  16.586  1.00  0.00    -0.300 NA
HETATM    3  C1  LIG X 999      43.268 131.856  17.843  1.00  0.00     0.059 A 
HETATM    4  C2  LIG X 999      41.957 132.472  18.240  1.00  0.00     0.034 A 
HETATM    5  C3  LIG X 999      41.610 132.609  19.540  1.00  0.00     0.035 A 
HETATM    6  C4  LIG X 999      42.553 132.138  20.569  1.00  0.00     0.071 A 
HETATM    7  N2  LIG X 999      42.426 132.170  21.917  1.00  0.00    -0.224 NA
HETATM    8  C5  LIG X 999      43.583 131.609  22.376  1.00  0.00     0.174 A 
HETATM    9  C6  LIG X 999      44.410 131.237  21.329  1.00  0.00     0.030 A 
HETATM   10  C7  LIG X 999      45.668 130.640  21.243  1.00  0.00     0.017 A 
HETATM   11  C8  LIG X 999      46.195 130.417  19.947  1.00  0.00     0.002 A 
HETATM   12  C9  LIG X 999      45.462 130.792  18.787  1.00  0.00     0.015 A 
HETATM   13  C10 LIG X 999      44.189 131.394  18.926  1.00  0.00     0.005 A 
HETATM   14  C11 LIG X 999      43.735 131.583  20.214  1.00  0.00     0.020 A 
ENDROOT
BRANCH   8  15
HETATM   15  O1  LIG X 999      43.877 131.440  23.724  1.00  0.00    -0.344 OA
HETATM   16  H4  LIG X 999      44.027 130.515  24.106  1.00  0.00     0.219 HD
ENDBRANCH   8  15
TORSDOF 1
ENDMDL
MODEL 7
REMARK VINA RESULT:      -5.6      2.035      3.478
REMARK  1 active torsions:
REMARK  status: ('A' for Active; 'I' for Inactive)
REMARK    1  A    between atoms: C5_8  and  O1_9 
ROOT
HETATM    1  H1  LIG X 999      44.316 131.673  16.542  1.00  0.00     0.187 HD
HETATM    2  N1  LIG X 999      45.028 131.217  17.152  1.00  0.00    -0.300 NA
HETATM    3  C1  LIG X 999      44.916 131.142  18.441  1.00  0.00     0.059 A 
HETATM    4  C2  LIG X 999      45.994 130.464  19.237  1.00  0.00     0.034 A 
HETATM    5  C3  LIG X 999      45.916 130.364  20.583  1.00  0.00     0.035 A 
HETATM    6  C4  LIG X 999      44.742 130.938  21.261  1.00  0.00     0.071 A 
HETATM    7  N2  LIG X 999      44.449 130.958  22.583  1.00  0.00    -0.224 NA
HETATM    8  C5  LIG X 999      43.251 131.610  22.650  1.00  0.00     0.174 A 
HETATM    9  C6  LIG X 999      42.812 131.985  21.391  1.00  0.00     0.030 A 
HETATM   10  C7  LIG X 999      41.688 132.655  20.908  1.00  0.00     0.017 A 
HETATM   11  C8  LIG X 999      41.599 132.852  19.509  1.00  0.00     0.002 A 
HETATM   12  C9  LIG X 999      42.622 132.381  18.639  1.00  0.00     0.015 A 
HETATM   13  C10 LIG X 999      43.744 131.708  19.177  1.00  0.00     0.005 A 
HETATM   14  C11 LIG X 999      43.768 131.548  20.546  1.00  0.00     0.020 A 
ENDROOT
BRANCH   8  15
HETATM   15  O1  LIG X 999      42.573 131.856  23.838  1.00  0.00    -0.344 OA
HETATM   16  H4  LIG X 999      41.727 132.413  23.843  1.00  0.00     0.219 HD
ENDBRANCH   8  15
TORSDOF 1
ENDMDL
MODEL 8
REMARK VINA RESULT:      -4.9      8.128      9.082
REMARK  1 active torsions:
REMARK  status: ('A' for Active; 'I' for Inactive)
REMARK    1  A    between atoms: C5_8  and  O1_9 
ROOT
HETATM    1  H1  LIG X 999      51.518 139.634  21.261  1.00  0.00     0.187 HD
HETATM    2  N1  LIG X 999      50.681 139.185  20.831  1.00  0.00    -0.300 NA
HETATM    3  C1  LIG X 999      50.226 138.029  21.202  1.00  0.00     0.059 A 
HETATM    4  C2  LIG X 999      49.012 137.463  20.523  1.00  0.00     0.034 A 
HETATM    5  C3  LIG X 999      48.505 136.261  20.878  1.00  0.00     0.035 A 
HETATM    6  C4  LIG X 999      49.172 135.510  21.955  1.00  0.00     0.071 A 
HETATM    7  N2  LIG X 999      48.851 134.302  22.476  1.00  0.00    -0.224 NA
HETATM    8  C5  LIG X 999      49.796 134.089  23.437  1.00  0.00     0.174 A 
HETATM    9  C6  LIG X 999      50.687 135.148  23.509  1.00  0.00     0.030 A 
HETATM   10  C7  LIG X 999      51.805 135.432  24.293  1.00  0.00     0.017 A 
HETATM   11  C8  LIG X 999      52.470 136.659  24.057  1.00  0.00     0.002 A 
HETATM   12  C9  LIG X 999      52.006 137.561  23.058  1.00  0.00     0.015 A 
HETATM   13  C10 LIG X 999      50.867 137.228  22.289  1.00  0.00     0.005 A 
HETATM   14  C11 LIG X 999      50.266 136.019  22.569  1.00  0.00     0.020 A 
ENDROOT
BRANCH   8  15
HETATM   15  O1  LIG X 999      49.844 132.950  24.233  1.00  0.00    -0.344 OA
HETATM   16  H4  LIG X 999      49.683 132.035  23.832  1.00  0.00     0.219 HD
ENDBRANCH   8  15
TORSDOF 1
ENDMDL
