MODEL 1
REMARK VINA RESULT:      -7.8      0.000      0.000
REMARK  1 active torsions:
REMARK  status: ('A' for Active; 'I' for Inactive)
REMARK    1  A    between atoms: N1_1  and  C1_2 
ROOT
HETATM    1  C1  LIG X 999      44.508 131.289  16.298  1.00  0.00     0.026 A 
HETATM    2  C2  LIG X 999      45.166 130.300  17.040  1.00  0.00     0.030 A 
HETATM    3  C3  LIG X 999      46.287 129.651  16.518  1.00  0.00     0.014 A 
HETATM    4  C4  LIG X 999      46.768 129.986  15.244  1.00  0.00    -0.026 A 
HETATM    5  C5  LIG X 999      47.894 129.342  14.710  1.00  0.00     0.012 A 
HETATM    6  C6  LIG X 999      48.361 129.687  13.438  1.00  0.00     0.001 A 
HETATM    7  C7  LIG X 999      47.711 130.673  12.692  1.00  0.00     0.001 A 
HETATM    8  C8  LIG X 999      46.587 131.323  13.213  1.00  0.00     0.012 A 
HETATM    9  C9  LIG X 999      46.108 130.987  14.489  1.00  0.00    -0.024 A 
HETATM   10  C10 LIG X 999      44.981 131.632  15.022  1.00  0.00     0.041 A 
ENDROOT
BRANCH   1  11
HETATM   11  N1  LIG X 999      43.360 131.948  16.838  1.00  0.00    -0.399 N 
HETATM   12  H1  LIG X 999      43.464 132.716  17.538  1.00  0.00     0.156 HD
HETATM   13  H2  LIG X 999      42.397 131.675  16.541  1.00  0.00     0.156 HD
ENDBRANCH   1  11
TORSDOF 1
ENDMDL
MODEL 2
REMARK VINA RESULT:      -7.5      1.094      2.219
REMARK  1 active torsions:
REMARK  status: ('A' for Active; 'I' for Inactive)
REMARK    1  A    between atoms: N1_1  and  C1_2 
ROOT
HETATM    1  C1  LIG X 999      45.603 130.794  17.394  1.00  0.00     0.026 A 
HETATM    2  C2  LIG X 999      45.325 132.019  16.772  1.00  0.00     0.030 A 
HETATM    3  C3  LIG X 999      45.813 132.289  15.491  1.00  0.00     0.014 A 
HETATM    4  C4  LIG X 999      46.584 131.334  14.813  1.00  0.00    -0.026 A 
HETATM    5  C5  LIG X 999      47.078 131.593  13.526  1.00  0.00     0.012 A 
HETATM    6  C6  LIG X 999      47.846 130.632  12.862  1.00  0.00     0.001 A 
HETATM    7  C7  LIG X 999      48.126 129.409  13.476  1.00  0.00     0.001 A 
HETATM    8  C8  LIG X 999      47.640 129.137  14.760  1.00  0.00     0.012 A 
HETATM    9  C9  LIG X 999      46.867 130.093  15.436  1.00  0.00    -0.024 A 
HETATM   10  C10 LIG X 999      46.374 129.832  16.724  1.00  0.00     0.041 A 
ENDROOT
BRANCH   1  11
HETATM   11  N1  LIG X 999      45.102 130.525  18.706  1.00  0.00    -0.399 N 
HETATM   12  H1  LIG X 999      44.773 129.569  18.967  1.00  0.00     0.156 HD
HETATM   13  H2  LIG X 999      45.056 131.280  19.426  1.00  0.00     0.156 HD
ENDBRANCH   1  11
TORSDOF 1
ENDMDL
MODEL 3
REMARK VINA RESULT:      -7.3      2.159      4.574
REMARK  1 active torsions:
REMARK  status: ('A' for Active; 'I' for Inactive)
REMARK    1  A    between atoms: N1_1  and  C1_2 
ROOT
HETATM    1  C1  LIG X 999      46.963 129.870  14.620  1.00  0.00     0.026 A 
HETATM    2  C2  LIG X 999      45.965 130.524  13.885  1.00  0.00     0.030 A 
HETATM    3  C3  LIG X 999      44.907 131.161  14.538  1.00  0.00     0.014 A 
HETATM    4  C4  LIG X 999      44.835 131.155  15.939  1.00  0.00    -0.026 A 
HETATM    5  C5  LIG X 999      43.779 131.792  16.605  1.00  0.00     0.012 A 
HETATM    6  C6  LIG X 999      43.720 131.777  18.002  1.00  0.00     0.001 A 
HETATM    7  C7  LIG X 999      44.711 131.128  18.741  1.00  0.00     0.001 A 
HETATM    8  C8  LIG X 999      45.771 130.488  18.089  1.00  0.00     0.012 A 
HETATM    9  C9  LIG X 999      45.842 130.496  16.687  1.00  0.00    -0.024 A 
HETATM   10  C10 LIG X 999      46.899 129.858  16.022  1.00  0.00     0.041 A 
ENDROOT
BRANCH   1  11
HETATM   11  N1  LIG X 999      48.042 129.219  13.945  1.00  0.00    -0.399 N 
HETATM   12  H1  LIG X 999      48.085 129.198  12.902  1.00  0.00     0.156 HD
HETATM   13  H2  LIG X 999      48.806 128.753  14.482  1.00  0.00     0.156 HD
ENDBRANCH   1  11
TORSDOF 1
ENDMDL
MODEL 4
REMARK VINA RESULT:      -7.2      1.286      1.973
REMARK  1 active torsions:
REMARK  status: ('A' for Active; 'I' for Inactive)
REMARK    1  A    between atoms: N1_1  and  C1_2 
ROOT
HETATM    1  C1  LIG X 999      43.571 131.714  17.976  1.00  0.00     0.026 A 
HETATM    2  C2  LIG X 999      44.629 131.129  18.684  1.00  0.00     0.030 A 
HETATM    3  C3  LIG X 999      45.727 130.595  18.006  1.00  0.00     0.014 A 
HETATM    4  C4  LIG X 999      45.782 130.642  16.605  1.00  0.00    -0.026 A 
HETATM    5  C5  LIG X 999      46.880 130.110  15.912  1.00  0.00     0.012 A 
HETATM    6  C6  LIG X 999      46.921 130.162  14.516  1.00  0.00     0.001 A 
HETATM    7  C7  LIG X 999      45.870 130.744  13.803  1.00  0.00     0.001 A 
HETATM    8  C8  LIG X 999      44.769 131.279  14.481  1.00  0.00     0.012 A 
HETATM    9  C9  LIG X 999      44.716 131.232  15.882  1.00  0.00    -0.024 A 
HETATM   10  C10 LIG X 999      43.617 131.765  16.574  1.00  0.00     0.041 A 
ENDROOT
BRANCH   1  11
HETATM   11  N1  LIG X 999      42.450 132.258  18.677  1.00  0.00    -0.399 N 
HETATM   12  H1  LIG X 999      42.512 133.191  19.141  1.00  0.00     0.156 HD
HETATM   13  H2  LIG X 999      41.550 131.732  18.736  1.00  0.00     0.156 HD
ENDBRANCH   1  11
TORSDOF 1
ENDMDL
MODEL 5
REMARK VINA RESULT:      -6.8      1.627      2.959
REMARK  1 active torsions:
REMARK  status: ('A' for Active; 'I' for Inactive)
REMARK    1  A    between atoms: N1_1  and  C1_2 
ROOT
HETATM    1  C1  LIG X 999      44.763 131.119  18.826  1.00  0.00     0.026 A 
HETATM    2  C2  LIG X 999      43.696 131.735  18.157  1.00  0.00     0.030 A 
HETATM    3  C3  LIG X 999      43.670 131.786  16.762  1.00  0.00     0.014 A 
HETATM    4  C4  LIG X 999      44.713 131.218  16.015  1.00  0.00    -0.026 A 
HETATM    5  C5  LIG X 999      44.697 131.262  14.613  1.00  0.00     0.012 A 
HETATM    6  C6  LIG X 999      45.743 130.692  13.881  1.00  0.00     0.001 A 
HETATM    7  C7  LIG X 999      46.809 130.076  14.541  1.00  0.00     0.001 A 
HETATM    8  C8  LIG X 999      46.837 130.025  15.939  1.00  0.00     0.012 A 
HETATM    9  C9  LIG X 999      45.793 130.593  16.685  1.00  0.00    -0.024 A 
HETATM   10  C10 LIG X 999      45.810 130.548  18.087  1.00  0.00     0.041 A 
ENDROOT
BRANCH   1  11
HETATM   11  N1  LIG X 999      44.783 131.072  20.255  1.00  0.00    -0.399 N 
HETATM   12  H1  LIG X 999      45.499 131.604  20.797  1.00  0.00     0.156 HD
HETATM   13  H2  LIG X 999      44.082 130.506  20.782  1.00  0.00     0.156 HD
ENDBRANCH   1  11
TORSDOF 1
ENDMDL
MODEL 6
REMARK VINA RESULT:      -6.8      2.996      5.878
REMARK  1 active torsions:
REMARK  status: ('A' for Active; 'I' for Inactive)
REMARK    1  A    between atoms: N1_1  and  C1_2 
ROOT
HETATM    1  C1  LIG X 999      45.804 130.477  17.018  1.00  0.00     0.026 A 
HETATM    2  C2  LIG X 999      44.730 130.941  16.247  1.00  0.00     0.030 A 
HETATM    3  C3  LIG X 999      43.618 131.525  16.859  1.00  0.00     0.014 A 
HETATM    4  C4  LIG X 999      43.567 131.654  18.254  1.00  0.00    -0.026 A 
HETATM    5  C5  LIG X 999      42.456 132.239  18.880  1.00  0.00     0.012 A 
HETATM    6  C6  LIG X 999      42.419 132.361  20.272  1.00  0.00     0.001 A 
HETATM    7  C7  LIG X 999      43.486 131.901  21.048  1.00  0.00     0.001 A 
HETATM    8  C8  LIG X 999      44.600 131.315  20.437  1.00  0.00     0.012 A 
HETATM    9  C9  LIG X 999      44.650 131.187  19.040  1.00  0.00    -0.024 A 
HETATM   10  C10 LIG X 999      45.761 130.602  18.415  1.00  0.00     0.041 A 
ENDROOT
BRANCH   1  11
HETATM   11  N1  LIG X 999      46.938 129.880  16.385  1.00  0.00    -0.399 N 
HETATM   12  H1  LIG X 999      46.929 128.872  16.112  1.00  0.00     0.156 HD
HETATM   13  H2  LIG X 999      47.795 130.441  16.183  1.00  0.00     0.156 HD
ENDBRANCH   1  11
TORSDOF 1
ENDMDL
MODEL 7
REMARK VINA RESULT:      -6.7      2.460      4.966
REMARK  1 active torsions:
REMARK  status: ('A' for Active; 'I' for Inactive)
REMARK    1  A    between atoms: N1_1  and  C1_2 
ROOT
HETATM    1  C1  LIG X 999      44.406 131.251  15.857  1.00  0.00     0.026 A 
HETATM    2  C2  LIG X 999      45.609 130.559  16.053  1.00  0.00     0.030 A 
HETATM    3  C3  LIG X 999      46.089 130.324  17.343  1.00  0.00     0.014 A 
HETATM    4  C4  LIG X 999      45.368 130.777  18.458  1.00  0.00    -0.026 A 
HETATM    5  C5  LIG X 999      45.840 130.546  19.759  1.00  0.00     0.012 A 
HETATM    6  C6  LIG X 999      45.111 131.004  20.861  1.00  0.00     0.001 A 
HETATM    7  C7  LIG X 999      43.911 131.694  20.673  1.00  0.00     0.001 A 
HETATM    8  C8  LIG X 999      43.429 131.931  19.381  1.00  0.00     0.012 A 
HETATM    9  C9  LIG X 999      44.151 131.476  18.267  1.00  0.00    -0.024 A 
HETATM   10  C10 LIG X 999      43.678 131.708  16.966  1.00  0.00     0.041 A 
ENDROOT
BRANCH   1  11
HETATM   11  N1  LIG X 999      43.921 131.489  14.533  1.00  0.00    -0.399 N 
HETATM   12  H1  LIG X 999      44.331 132.245  13.942  1.00  0.00     0.156 HD
HETATM   13  H2  LIG X 999      43.150 130.910  14.134  1.00  0.00     0.156 HD
ENDBRANCH   1  11
TORSDOF 1
ENDMDL
MODEL 8
REMARK VINA RESULT:      -6.6      2.212      3.927
REMARK  1 active torsions:
REMARK  status: ('A' for Active; 'I' for Inactive)
REMARK    1  A    between atoms: N1_1  and  C1_2 
ROOT
HETATM    1  C1  LIG X 999      47.499 130.807  13.318  1.00  0.00     0.026 A 
HETATM    2  C2  LIG X 999      47.767 129.531  13.833  1.00  0.00     0.030 A 
HETATM    3  C3  LIG X 999      47.294 129.162  15.094  1.00  0.00     0.014 A 
HETATM    4  C4  LIG X 999      46.542 130.066  15.858  1.00  0.00    -0.026 A 
HETATM    5  C5  LIG X 999      46.060 129.707  17.125  1.00  0.00     0.012 A 
HETATM    6  C6  LIG X 999      45.312 130.618  17.876  1.00  0.00     0.001 A 
HETATM    7  C7  LIG X 999      45.040 131.891  17.370  1.00  0.00     0.001 A 
HETATM    8  C8  LIG X 999      45.515 132.263  16.107  1.00  0.00     0.012 A 
HETATM    9  C9  LIG X 999      46.266 131.357  15.343  1.00  0.00    -0.024 A 
HETATM   10  C10 LIG X 999      46.748 131.718  14.076  1.00  0.00     0.041 A 
ENDROOT
BRANCH   1  11
HETATM   11  N1  LIG X 999      47.988 131.178  12.027  1.00  0.00    -0.399 N 
HETATM   12  H1  LIG X 999      48.175 132.179  11.794  1.00  0.00     0.156 HD
HETATM   13  H2  LIG X 999      48.169 130.456  11.295  1.00  0.00     0.156 HD
ENDBRANCH   1  11
TORSDOF 1
ENDMDL
MODEL 9
REMARK VINA RESULT:      -6.6      2.279      3.555
REMARK  1 active torsions:
REMARK  status: ('A' for Active; 'I' for Inactive)
REMARK    1  A    between atoms: N1_1  and  C1_2 
ROOT
HETATM    1  C1  LIG X 999      43.331 131.851  19.703  1.00  0.00     0.026 A 
HETATM    2  C2  LIG X 999      44.557 131.319  20.125  1.00  0.00     0.030 A 
HETATM    3  C3  LIG X 999      45.497 130.877  19.191  1.00  0.00     0.014 A 
HETATM    4  C4  LIG X 999      45.222 130.963  17.818  1.00  0.00    -0.026 A 
HETATM    5  C5  LIG X 999      46.159 130.523  16.871  1.00  0.00     0.012 A 
HETATM    6  C6  LIG X 999      45.871 130.614  15.506  1.00  0.00     0.001 A 
HETATM    7  C7  LIG X 999      44.651 131.143  15.078  1.00  0.00     0.001 A 
HETATM    8  C8  LIG X 999      43.709 131.585  16.012  1.00  0.00     0.012 A 
HETATM    9  C9  LIG X 999      43.985 131.500  17.385  1.00  0.00    -0.024 A 
HETATM   10  C10 LIG X 999      43.048 131.940  18.332  1.00  0.00     0.041 A 
ENDROOT
BRANCH   1  11
HETATM   11  N1  LIG X 999      42.374 132.300  20.665  1.00  0.00    -0.399 N 
HETATM   12  H1  LIG X 999      41.866 133.203  20.532  1.00  0.00     0.156 HD
HETATM   13  H2  LIG X 999      42.164 131.734  21.516  1.00  0.00     0.156 HD
ENDBRANCH   1  11
TORSDOF 1
ENDMDL
