REMARK VINA RESULT:      -5.3      2.732      7.790
REMARK  3 active torsions:
REMARK  status: ('A' for Active; 'I' for Inactive)
REMARK    1  A    between atoms: C2_2  and  N1_3 
REMARK    2  A    between atoms: C3_6  and  O1_7 
REMARK    3  A    between atoms: O1_7  and  C4_8 
REMARK       I    between atoms: C4_8  and  N4_10 
ROOT
HETATM    1  N1  LIG X 999      42.750 131.868  22.460  1.00  0.00    -0.070 NA
HETATM    2  N2  LIG X 999      43.135 132.314  23.542  1.00  0.00    -0.162 NA
HETATM    3  N3  LIG X 999      43.511 132.758  24.625  1.00  0.00     0.068 N 
ENDROOT
BRANCH   1   4
HETATM    4  C2  LIG X 999      43.633 131.331  21.461  1.00  0.00     0.128 A 
HETATM    5  C1  LIG X 999      43.581 131.900  20.182  1.00  0.00     0.049 A 
HETATM    6  C13 LIG X 999      44.398 131.426  19.150  1.00  0.00    -0.023 A 
HETATM    7  C8  LIG X 999      45.304 130.362  19.404  1.00  0.00    -0.022 A 
HETATM    8  C12 LIG X 999      44.335 132.001  17.864  1.00  0.00     0.021 A 
HETATM    9  C7  LIG X 999      45.365 129.798  20.684  1.00  0.00     0.052 A 
HETATM   10  C9  LIG X 999      46.140 129.891  18.373  1.00  0.00     0.021 A 
HETATM   11  C3  LIG X 999      44.530 130.264  21.718  1.00  0.00     0.113 A 
HETATM   12  C10 LIG X 999      46.043 130.480  17.112  1.00  0.00    -0.024 A 
HETATM   13  C11 LIG X 999      45.172 131.498  16.866  1.00  0.00    -0.024 A 
HETATM   14  C17 LIG X 999      46.828 130.166  15.899  1.00  0.00     0.276 C 
HETATM   15  C14 LIG X 999      45.292 131.957  15.465  1.00  0.00     0.276 C 
HETATM   16  N5  LIG X 999      46.223 130.988  14.803  1.00  0.00    -0.067 N 
HETATM   17  C15 LIG X 999      45.468 130.115  13.872  1.00  0.00     0.272 C 
HETATM   18  C16 LIG X 999      47.273 131.707  14.046  1.00  0.00     0.272 C 
BRANCH  11  19
HETATM   19  O1  LIG X 999      44.621 129.718  23.007  1.00  0.00    -0.259 OA
BRANCH  19  20
HETATM   20  C4  LIG X 999      44.426 128.364  23.322  1.00  0.00     0.367 C 
HETATM   21  O2  LIG X 999      45.363 127.533  23.157  1.00  0.00    -0.238 OA
HETATM   22  N4  LIG X 999      43.144 127.916  23.790  1.00  0.00    -0.336 N 
HETATM   23  C5  LIG X 999      42.080 128.896  24.022  1.00  0.00     0.154 C 
HETATM   24  C6  LIG X 999      42.922 126.492  24.055  1.00  0.00     0.154 C 
ENDBRANCH  19  20
ENDBRANCH  11  19
ENDBRANCH   1   4
TORSDOF 3
