REMARK VINA RESULT:      -6.9      2.829      6.476
REMARK  3 active torsions:
REMARK  status: ('A' for Active; 'I' for Inactive)
REMARK    1  A    between atoms: C2_2  and  C3_3 
REMARK       I    between atoms: C3_3  and  N1_5 
REMARK    2  A    between atoms: N1_5  and  C4_6 
REMARK    3  A    between atoms: C4_6  and  C6_8 
ROOT
HETATM    1  C6  LIG X 999      44.358 131.194  18.611  1.00  0.00    -0.035 A 
HETATM    2  C7  LIG X 999      45.590 130.853  19.197  1.00  0.00     0.010 A 
HETATM    3  C8  LIG X 999      45.758 130.904  20.582  1.00  0.00     0.013 A 
HETATM    4  C9  LIG X 999      44.698 131.304  21.407  1.00  0.00    -0.026 A 
HETATM    5  C10 LIG X 999      44.856 131.358  22.800  1.00  0.00     0.012 A 
HETATM    6  C11 LIG X 999      43.792 131.761  23.612  1.00  0.00     0.001 A 
HETATM    7  C12 LIG X 999      42.567 132.113  23.041  1.00  0.00     0.001 A 
HETATM    8  C13 LIG X 999      42.396 132.064  21.655  1.00  0.00     0.012 A 
HETATM    9  C14 LIG X 999      43.456 131.660  20.828  1.00  0.00    -0.025 A 
HETATM   10  C15 LIG X 999      43.296 131.607  19.435  1.00  0.00     0.021 A 
ENDROOT
BRANCH   1  11
HETATM   11  C4  LIG X 999      44.181 131.154  17.108  1.00  0.00     0.113 C 
HETATM   12  C5  LIG X 999      42.969 131.995  16.695  1.00  0.00     0.037 C 
BRANCH  11  13
HETATM   13  N1  LIG X 999      45.394 131.633  16.436  1.00  0.00    -0.353 N 
HETATM   14  C3  LIG X 999      45.743 131.216  15.108  1.00  0.00     0.217 C 
HETATM   15  O1  LIG X 999      44.981 130.448  14.461  1.00  0.00    -0.274 OA
HETATM   16  H6  LIG X 999      46.030 132.299  16.931  1.00  0.00     0.163 HD
BRANCH  14  17
HETATM   17  C2  LIG X 999      46.997 131.726  14.465  1.00  0.00     0.098 C 
HETATM   18  C1  LIG X 999      47.299 130.952  13.187  1.00  0.00     0.014 C 
ENDBRANCH  14  17
ENDBRANCH  11  13
ENDBRANCH   1  11
TORSDOF 3
