REMARK VINA RESULT:      -4.8      2.003      5.632
REMARK  5 active torsions:
REMARK  status: ('A' for Active; 'I' for Inactive)
REMARK    1  A    between atoms: O1_2  and  C1_3 
REMARK    2  A    between atoms: C1_3  and  C15_22 
REMARK    3  A    between atoms: N1_4  and  C2_5 
REMARK    4  A    between atoms: C3_6  and  O2_7 
REMARK    5  A    between atoms: O2_7  and  C4_8 
REMARK       I    between atoms: C4_8  and  N2_10 
ROOT
HETATM    1  C2  LIG X 999      44.320 125.643  23.299  1.00  0.00     0.104 A 
HETATM    2  C3  LIG X 999      43.357 125.039  24.134  1.00  0.00     0.110 A 
HETATM    3  C7  LIG X 999      43.576 123.741  24.623  1.00  0.00     0.041 A 
HETATM    4  C8  LIG X 999      44.737 123.044  24.289  1.00  0.00     0.015 A 
HETATM    5  C9  LIG X 999      45.710 123.639  23.476  1.00  0.00    -0.024 A 
HETATM    6  C10 LIG X 999      46.886 122.943  23.156  1.00  0.00     0.012 A 
HETATM    7  C11 LIG X 999      47.860 123.539  22.352  1.00  0.00     0.001 A 
HETATM    8  C12 LIG X 999      47.670 124.833  21.865  1.00  0.00     0.001 A 
HETATM    9  C13 LIG X 999      46.505 125.539  22.174  1.00  0.00     0.014 A 
HETATM   10  C14 LIG X 999      45.511 124.954  22.984  1.00  0.00     0.006 A 
ENDROOT
BRANCH   1  11
HETATM   11  N1  LIG X 999      44.123 126.990  22.836  1.00  0.00    -0.221 NA
HETATM   12  C1  LIG X 999      44.594 128.065  23.401  1.00  0.00     0.176 C 
BRANCH  12  13
HETATM   13  O1  LIG X 999      45.269 128.022  24.624  1.00  0.00    -0.344 OA
HETATM   14  H1  LIG X 999      46.097 128.571  24.818  1.00  0.00     0.219 HD
ENDBRANCH  12  13
BRANCH  12  15
HETATM   15  C15 LIG X 999      44.394 129.367  22.750  1.00  0.00     0.053 A 
HETATM   16  C16 LIG X 999      43.564 130.397  23.157  1.00  0.00     0.156 A 
HETATM   17  N3  LIG X 999      43.673 131.420  22.287  1.00  0.00    -0.185 NA
HETATM   18  N4  LIG X 999      44.530 131.055  21.345  1.00  0.00    -0.285 N 
HETATM   19  C17 LIG X 999      44.958 131.922  20.256  1.00  0.00     0.179 C 
HETATM   20  C18 LIG X 999      45.000 129.820  21.598  1.00  0.00     0.129 A 
ENDBRANCH  12  15
ENDBRANCH   1  11
BRANCH   2  21
HETATM   21  O2  LIG X 999      42.223 125.779  24.499  1.00  0.00    -0.254 OA
BRANCH  21  22
HETATM   22  C4  LIG X 999      41.191 126.169  23.632  1.00  0.00     0.461 C 
HETATM   23  O3  LIG X 999      41.010 127.387  23.357  1.00  0.00    -0.230 OA
HETATM   24  N2  LIG X 999      40.280 125.180  23.118  1.00  0.00     0.009 N 
HETATM   25  H2  LIG X 999      39.595 125.637  22.471  1.00  0.00     0.292 HD
HETATM   26  C5  LIG X 999      39.531 124.567  24.228  1.00  0.00     0.282 C 
HETATM   27  C6  LIG X 999      41.020 124.159  22.362  1.00  0.00     0.282 C 
ENDBRANCH  21  22
ENDBRANCH   2  21
TORSDOF 5
