REMARK VINA RESULT:      -8.3      3.916      5.968
REMARK  2 active torsions:
REMARK  status: ('A' for Active; 'I' for Inactive)
REMARK    1  A    between atoms: C1_1  and  N1_14 
REMARK    2  A    between atoms: C2_2  and  C3_4 
ROOT
HETATM    1  C3  LIG X 999      43.933 131.573  18.885  1.00  0.00     0.003 A 
HETATM    2  C4  LIG X 999      45.153 130.935  19.181  1.00  0.00     0.015 A 
HETATM    3  C5  LIG X 999      46.003 130.511  18.156  1.00  0.00     0.013 A 
HETATM    4  C6  LIG X 999      45.649 130.710  16.816  1.00  0.00    -0.026 A 
HETATM    5  C7  LIG X 999      46.497 130.288  15.780  1.00  0.00     0.012 A 
HETATM    6  C8  LIG X 999      46.130 130.489  14.446  1.00  0.00     0.001 A 
HETATM    7  C9  LIG X 999      44.916 131.108  14.138  1.00  0.00     0.001 A 
HETATM    8  C10 LIG X 999      44.062 131.532  15.160  1.00  0.00     0.012 A 
HETATM    9  C11 LIG X 999      44.420 131.337  16.503  1.00  0.00    -0.025 A 
HETATM   10  C12 LIG X 999      43.570 131.758  17.538  1.00  0.00     0.026 A 
ENDROOT
BRANCH   1  11
HETATM   11  C2  LIG X 999      43.005 132.020  19.955  1.00  0.00     0.132 C 
HETATM   12  C1  LIG X 999      43.138 131.618  21.227  1.00  0.00     0.121 C 
HETATM   13  O1  LIG X 999      41.981 132.904  19.622  1.00  0.00    -0.190 OA
BRANCH  12  14
HETATM   14  N1  LIG X 999      42.236 132.050  22.249  1.00  0.00    -0.406 N 
HETATM   15  H9  LIG X 999      41.979 131.439  23.056  1.00  0.00     0.155 HD
HETATM   16  H10 LIG X 999      41.822 133.006  22.198  1.00  0.00     0.155 HD
ENDBRANCH  12  14
ENDBRANCH   1  11
TORSDOF 2
