REMARK VINA RESULT:      -8.6      1.904      6.654
REMARK  4 active torsions:
REMARK  status: ('A' for Active; 'I' for Inactive)
REMARK    1  A    between atoms: C3_3  and  O1_4 
REMARK    2  A    between atoms: O1_4  and  C4_5 
REMARK    3  A    between atoms: C4_5  and  O2_6 
REMARK    4  A    between atoms: C5_8  and  C6_9 
ROOT
HETATM    1  C1  LIG X 999      47.640 131.021  12.992  1.00  0.00     0.014 C 
HETATM    2  C2  LIG X 999      47.078 130.345  13.816  1.00  0.00    -0.091 C 
HETATM    3  C3  LIG X 999      46.393 129.526  14.816  1.00  0.00     0.270 C 
ENDROOT
BRANCH   3   4
HETATM    4  O1  LIG X 999      45.720 130.379  15.734  1.00  0.00    -0.319 OA
BRANCH   4   5
HETATM    5  C4  LIG X 999      44.586 131.135  15.407  1.00  0.00     0.179 C 
HETATM    6  C5  LIG X 999      43.816 131.651  16.373  1.00  0.00     0.075 C 
BRANCH   5   7
HETATM    7  O2  LIG X 999      44.215 131.345  14.078  1.00  0.00    -0.341 OA
HETATM    8  H4  LIG X 999      43.324 131.042  13.708  1.00  0.00     0.220 HD
ENDBRANCH   5   7
BRANCH   6   9
HETATM    9  C6  LIG X 999      44.091 131.512  17.821  1.00  0.00    -0.031 A 
HETATM   10  C7  LIG X 999      45.310 130.947  18.226  1.00  0.00     0.012 A 
HETATM   11  C8  LIG X 999      45.603 130.782  19.582  1.00  0.00     0.013 A 
HETATM   12  C9  LIG X 999      44.671 131.164  20.558  1.00  0.00    -0.026 A 
HETATM   13  C10 LIG X 999      44.955 131.004  21.922  1.00  0.00     0.012 A 
HETATM   14  C14 LIG X 999      43.426 131.710  20.160  1.00  0.00    -0.025 A 
HETATM   15  C11 LIG X 999      44.013 131.380  22.884  1.00  0.00     0.001 A 
HETATM   16  C12 LIG X 999      42.783 131.915  22.493  1.00  0.00     0.001 A 
HETATM   17  C13 LIG X 999      42.488 132.080  21.136  1.00  0.00     0.012 A 
HETATM   18  C15 LIG X 999      43.141 131.871  18.796  1.00  0.00     0.024 A 
ENDBRANCH   6   9
ENDBRANCH   4   5
ENDBRANCH   3   4
TORSDOF 4
