REMARK VINA RESULT:      -8.2      1.181      6.210
REMARK  1 active torsions:
REMARK  status: ('A' for Active; 'I' for Inactive)
REMARK    1  A    between atoms: C2_2  and  N1_3 
ROOT
HETATM    1  N1  LIG X 999      46.200 130.571  13.752  1.00  0.00    -0.073 NA
HETATM    2  N2  LIG X 999      47.264 129.950  13.771  1.00  0.00    -0.162 NA
HETATM    3  N3  LIG X 999      48.327 129.331  13.788  1.00  0.00     0.068 N 
ENDROOT
BRANCH   1   4
HETATM    4  C2  LIG X 999      45.472 130.880  14.949  1.00  0.00     0.094 A 
HETATM    5  C1  LIG X 999      44.191 131.461  14.907  1.00  0.00     0.035 A 
HETATM    6  C11 LIG X 999      43.506 131.750  16.090  1.00  0.00     0.014 A 
HETATM    7  C10 LIG X 999      44.090 131.463  17.332  1.00  0.00    -0.024 A 
HETATM    8  C4  LIG X 999      45.378 130.880  17.381  1.00  0.00    -0.024 A 
HETATM    9  C9  LIG X 999      43.410 131.751  18.527  1.00  0.00     0.034 A 
HETATM   10  C3  LIG X 999      46.059 130.592  16.189  1.00  0.00     0.046 A 
HETATM   11  C5  LIG X 999      45.964 130.592  18.625  1.00  0.00     0.014 A 
HETATM   12  C6  LIG X 999      45.278 130.883  19.808  1.00  0.00     0.023 A 
HETATM   13  C7  LIG X 999      44.004 131.460  19.761  1.00  0.00     0.045 A 
HETATM   14  C8  LIG X 999      43.304 131.756  20.984  1.00  0.00     0.099 C 
HETATM   15  N4  LIG X 999      42.741 131.993  21.967  1.00  0.00    -0.191 NA
ENDBRANCH   1   4
TORSDOF 1
