REMARK VINA RESULT:      -5.8      2.985      4.545
REMARK  6 active torsions:
REMARK  status: ('A' for Active; 'I' for Inactive)
REMARK    1  A    between atoms: O1_2  and  C2_3 
REMARK    2  A    between atoms: C2_3  and  C3_5 
REMARK    3  A    between atoms: C6_9  and  N1_10 
REMARK    4  A    between atoms: N1_10  and  C7_11 
REMARK    5  A    between atoms: C7_11  and  N2_13 
REMARK    6  A    between atoms: N2_13  and  C8_14 
ROOT
HETATM    1  C7  LIG X 999      44.753 128.416  23.033  1.00  0.00     0.278 C 
HETATM    2  S2  LIG X 999      45.649 127.288  22.242  1.00  0.00    -0.033 SA
ENDROOT
BRANCH   1   3
HETATM    3  N1  LIG X 999      44.109 128.053  24.268  1.00  0.00     0.012 N 
HETATM    4  H6  LIG X 999      44.051 128.907  24.871  1.00  0.00     0.293 HD
HETATM    5  H7  LIG X 999      44.668 127.336  24.785  1.00  0.00     0.293 HD
BRANCH   3   6
HETATM    6  C6  LIG X 999      42.790 127.529  24.016  1.00  0.00     0.164 A 
HETATM    7  C3  LIG X 999      42.482 126.165  23.889  1.00  0.00     0.114 A 
HETATM    8  S1  LIG X 999      40.839 126.041  23.538  1.00  0.00    -0.094 SA
HETATM    9  C4  LIG X 999      40.501 127.685  23.547  1.00  0.00     0.053 A 
HETATM   10  C5  LIG X 999      41.677 128.367  23.821  1.00  0.00     0.046 A 
BRANCH   7  11
HETATM   11  C2  LIG X 999      43.385 125.005  24.000  1.00  0.00     0.302 C 
HETATM   12  O2  LIG X 999      44.474 125.128  24.625  1.00  0.00    -0.259 OA
BRANCH  11  13
HETATM   13  O1  LIG X 999      43.047 123.779  23.421  1.00  0.00    -0.322 OA
HETATM   14  C1  LIG X 999      43.649 123.301  22.225  1.00  0.00     0.213 C 
ENDBRANCH  11  13
ENDBRANCH   7  11
ENDBRANCH   3   6
ENDBRANCH   1   3
BRANCH   1  15
HETATM   15  N2  LIG X 999      44.924 129.804  22.699  1.00  0.00    -0.327 N 
HETATM   16  H8  LIG X 999      45.251 130.450  23.451  1.00  0.00     0.168 HD
BRANCH  15  17
HETATM   17  C8  LIG X 999      44.617 130.357  21.407  1.00  0.00     0.035 A 
HETATM   18  C9  LIG X 999      43.505 131.198  21.218  1.00  0.00     0.030 A 
HETATM   19  C10 LIG X 999      43.237 131.749  19.962  1.00  0.00     0.014 A 
HETATM   20  C11 LIG X 999      44.083 131.478  18.878  1.00  0.00    -0.026 A 
HETATM   21  C12 LIG X 999      43.824 132.028  17.612  1.00  0.00     0.012 A 
HETATM   22  C16 LIG X 999      45.216 130.649  19.063  1.00  0.00    -0.024 A 
HETATM   23  C13 LIG X 999      44.680 131.755  16.541  1.00  0.00     0.001 A 
HETATM   24  C14 LIG X 999      45.797 130.937  16.724  1.00  0.00     0.001 A 
HETATM   25  C15 LIG X 999      46.067 130.385  17.979  1.00  0.00     0.012 A 
HETATM   26  C17 LIG X 999      45.476 130.102  20.328  1.00  0.00     0.041 A 
ENDBRANCH  15  17
ENDBRANCH   1  15
TORSDOF 6
