REMARK VINA RESULT:      -3.9      2.817      5.421
REMARK  4 active torsions:
REMARK  status: ('A' for Active; 'I' for Inactive)
REMARK    1  A    between atoms: C3_3  and  O1_4 
REMARK    2  A    between atoms: O1_4  and  C4_5 
REMARK    3  A    between atoms: C9_12  and  N2_13 
REMARK    4  A    between atoms: C11_17  and  C12_18 
ROOT
HETATM    1  C1  LIG X 999      47.311 122.518  22.166  1.00  0.00     0.014 C 
HETATM    2  C2  LIG X 999      47.110 123.637  22.567  1.00  0.00    -0.091 C 
HETATM    3  C3  LIG X 999      46.867 124.995  23.052  1.00  0.00     0.268 C 
ENDROOT
BRANCH   3   4
HETATM    4  O1  LIG X 999      45.997 125.667  22.146  1.00  0.00    -0.339 OA
BRANCH   4   5
HETATM    5  C4  LIG X 999      44.999 126.581  22.523  1.00  0.00     0.085 A 
HETATM    6  C5  LIG X 999      45.182 127.988  22.348  1.00  0.00     0.052 A 
HETATM    7  C6  LIG X 999      44.166 128.884  22.723  1.00  0.00     0.008 A 
HETATM    8  C7  LIG X 999      43.019 128.346  23.256  1.00  0.00     0.018 A 
HETATM    9  C15 LIG X 999      44.221 130.369  22.637  1.00  0.00     0.059 A 
HETATM   10  C8  LIG X 999      41.970 129.062  23.729  1.00  0.00     0.046 A 
HETATM   11  C10 LIG X 999      42.801 127.019  23.458  1.00  0.00     0.042 A 
HETATM   12  N1  LIG X 999      41.052 128.230  24.257  1.00  0.00    -0.337 N 
HETATM   13  C13 LIG X 999      41.974 130.535  23.682  1.00  0.00     0.033 A 
HETATM   14  H5  LIG X 999      40.159 128.504  24.725  1.00  0.00     0.167 HD
HETATM   15  C9  LIG X 999      41.557 126.974  24.100  1.00  0.00     0.176 A 
HETATM   16  C14 LIG X 999      43.051 131.158  23.154  1.00  0.00     0.034 A 
HETATM   17  C11 LIG X 999      43.785 126.077  23.082  1.00  0.00     0.050 A 
HETATM   18  N5  LIG X 999      45.256 130.964  22.136  1.00  0.00    -0.300 NA
HETATM   19  H9  LIG X 999      45.314 132.004  22.071  1.00  0.00     0.187 HD
BRANCH  15  20
HETATM   20  N2  LIG X 999      40.926 125.800  24.615  1.00  0.00    -0.053 NA
HETATM   21  N3  LIG X 999      40.141 125.143  23.931  1.00  0.00    -0.160 NA
HETATM   22  N4  LIG X 999      39.357 124.485  23.249  1.00  0.00     0.068 N 
ENDBRANCH  15  20
BRANCH  17  23
HETATM   23  C12 LIG X 999      43.603 124.617  23.227  1.00  0.00     0.273 C 
HETATM   24  O2  LIG X 999      43.202 123.903  22.272  1.00  0.00    -0.301 OA
ENDBRANCH  17  23
ENDBRANCH   4   5
ENDBRANCH   3   4
TORSDOF 4
