REMARK VINA RESULT:      -7.6      1.333      2.514
REMARK  1 active torsions:
REMARK  status: ('A' for Active; 'I' for Inactive)
REMARK    1  A    between atoms: C12_13  and  N2_14 
ROOT
HETATM    1  C1  LIG X 999      46.393 131.400  14.824  1.00  0.00     0.272 C 
HETATM    2  N1  LIG X 999      45.498 130.677  15.757  1.00  0.00    -0.067 N 
HETATM    3  C2  LIG X 999      45.163 129.355  15.176  1.00  0.00     0.272 C 
HETATM    4  C3  LIG X 999      44.247 131.460  16.002  1.00  0.00     0.276 C 
HETATM    5  C4  LIG X 999      44.080 131.492  17.470  1.00  0.00    -0.021 A 
HETATM    6  C5  LIG X 999      43.000 132.003  18.182  1.00  0.00     0.022 A 
HETATM    7  C6  LIG X 999      43.034 131.963  19.587  1.00  0.00    -0.023 A 
HETATM    8  C7  LIG X 999      41.956 132.478  20.322  1.00  0.00     0.012 A 
HETATM    9  C8  LIG X 999      41.983 132.462  21.716  1.00  0.00     0.001 A 
HETATM   10  C9  LIG X 999      43.085 131.941  22.389  1.00  0.00     0.001 A 
HETATM   11  C10 LIG X 999      44.170 131.421  21.677  1.00  0.00     0.014 A 
HETATM   12  C11 LIG X 999      44.165 131.409  20.265  1.00  0.00     0.001 A 
HETATM   13  C12 LIG X 999      45.250 130.886  19.499  1.00  0.00     0.045 A 
HETATM   14  C13 LIG X 999      45.162 130.956  18.098  1.00  0.00     0.003 A 
HETATM   15  C14 LIG X 999      46.154 130.501  17.091  1.00  0.00     0.278 C 
ENDROOT
BRANCH  13  16
HETATM   16  N2  LIG X 999      46.410 130.292  20.104  1.00  0.00    -0.398 N 
HETATM   17  H14 LIG X 999      46.780 130.649  21.012  1.00  0.00     0.156 HD
HETATM   18  H15 LIG X 999      46.974 129.549  19.643  1.00  0.00     0.156 HD
ENDBRANCH  13  16
TORSDOF 1
