REMARK VINA RESULT:      -7.0      0.885      2.749
REMARK  1 active torsions:
REMARK  status: ('A' for Active; 'I' for Inactive)
REMARK    1  A    between atoms: C4_4  and  N1_5 
ROOT
HETATM    1  C1  LIG X 999      41.762 133.282  19.987  1.00  0.00     0.049 C 
HETATM    2  C2  LIG X 999      42.576 132.257  20.738  1.00  0.00    -0.045 C 
HETATM    3  C3  LIG X 999      42.261 132.096  22.097  1.00  0.00     0.057 C 
HETATM    4  C4  LIG X 999      43.115 131.386  22.937  1.00  0.00     0.122 C 
HETATM    5  N2  LIG X 999      44.269 130.879  22.445  1.00  0.00    -0.231 NA
HETATM    6  C5  LIG X 999      44.600 130.967  21.130  1.00  0.00     0.070 C 
HETATM    7  C6  LIG X 999      45.840 130.475  20.725  1.00  0.00     0.033 C 
HETATM    8  C7  LIG X 999      46.227 130.549  19.394  1.00  0.00     0.014 C 
HETATM    9  C8  LIG X 999      45.335 131.016  18.424  1.00  0.00    -0.025 C 
HETATM   10  C9  LIG X 999      45.713 130.981  17.073  1.00  0.00     0.012 C 
HETATM   11  C10 LIG X 999      44.798 131.315  16.077  1.00  0.00     0.001 C 
HETATM   12  C11 LIG X 999      43.491 131.646  16.420  1.00  0.00     0.001 C 
HETATM   13  C12 LIG X 999      43.104 131.699  17.762  1.00  0.00     0.013 C 
HETATM   14  C13 LIG X 999      44.037 131.471  18.801  1.00  0.00    -0.013 C 
HETATM   15  C14 LIG X 999      43.710 131.569  20.196  1.00  0.00     0.010 C 
ENDROOT
BRANCH   4  16
HETATM   16  N1  LIG X 999      42.814 131.243  24.326  1.00  0.00    -0.384 N 
HETATM   17  H5  LIG X 999      42.201 130.469  24.666  1.00  0.00     0.157 HD
HETATM   18  H6  LIG X 999      43.211 131.913  25.022  1.00  0.00     0.157 HD
ENDBRANCH   4  16
TORSDOF 1
