REMARK VINA RESULT:      -3.2      6.792      8.853
REMARK  6 active torsions:
REMARK  status: ('A' for Active; 'I' for Inactive)
REMARK    1  A    between atoms: C8_8  and  O1_9 
REMARK    2  A    between atoms: O1_9  and  C9_10 
REMARK    3  A    between atoms: C9_10  and  C10_11 
REMARK    4  A    between atoms: C10_11  and  C11_12 
REMARK    5  A    between atoms: C11_12  and  N1_13 
REMARK    6  A    between atoms: C13_18  and  N4_19 
ROOT
HETATM    1  N1  LIG X 999      47.252 129.092  13.993  1.00  0.00    -0.116 NA
HETATM    2  N2  LIG X 999      48.445 129.271  13.745  1.00  0.00    -0.168 NA
HETATM    3  N3  LIG X 999      49.636 129.448  13.496  1.00  0.00     0.068 N 
ENDROOT
BRANCH   1   4
HETATM    4  C11 LIG X 999      46.290 130.186  13.907  1.00  0.00     0.191 C 
BRANCH   4   5
HETATM    5  C10 LIG X 999      46.948 131.550  14.169  1.00  0.00     0.051 C 
BRANCH   5   6
HETATM    6  C9  LIG X 999      46.117 132.442  15.095  1.00  0.00     0.170 C 
BRANCH   6   7
HETATM    7  O1  LIG X 999      46.127 131.906  16.401  1.00  0.00    -0.384 OA
BRANCH   7   8
HETATM    8  C8  LIG X 999      45.379 130.702  16.467  1.00  0.00     0.146 C 
HETATM    9  C7  LIG X 999      45.800 129.900  17.705  1.00  0.00     0.072 C 
HETATM   10  C5  LIG X 999      45.409 130.586  18.991  1.00  0.00    -0.047 A 
HETATM   11  C4  LIG X 999      44.330 131.505  19.043  1.00  0.00    -0.023 A 
HETATM   12  C6  LIG X 999      46.087 130.246  20.173  1.00  0.00     0.008 A 
HETATM   13  C3  LIG X 999      44.015 132.117  20.271  1.00  0.00     0.010 A 
HETATM   14  C13 LIG X 999      43.592 131.943  17.788  1.00  0.00     0.199 C 
HETATM   15  C2  LIG X 999      44.711 131.780  21.434  1.00  0.00     0.001 A 
HETATM   16  C1  LIG X 999      45.741 130.842  21.386  1.00  0.00     0.001 A 
HETATM   17  C12 LIG X 999      43.885 131.039  16.572  1.00  0.00     0.143 C 
HETATM   18 CL1  LIG X 999      43.337 131.835  15.068  1.00  0.00    -0.120 Cl
BRANCH  14  19
HETATM   19  N4  LIG X 999      42.152 131.946  18.038  1.00  0.00    -0.104 NA
HETATM   20  N5  LIG X 999      41.677 132.517  19.020  1.00  0.00    -0.167 NA
HETATM   21  N6  LIG X 999      41.202 133.087  20.001  1.00  0.00     0.068 N 
ENDBRANCH  14  19
ENDBRANCH   7   8
ENDBRANCH   6   7
ENDBRANCH   5   6
ENDBRANCH   4   5
ENDBRANCH   1   4
TORSDOF 6
