MODEL 1
REMARK VINA RESULT:      -8.7      0.000      0.000
REMARK  3 active torsions:
REMARK  status: ('A' for Active; 'I' for Inactive)
REMARK    1  A    between atoms: N2_3  and  N3_4 
REMARK    2  A    between atoms: C1_5  and  C2_6 
REMARK    3  A    between atoms: C7_12  and  N5_13 
ROOT
HETATM    1  N5  LIG X 999      46.371 130.764  13.685  1.00  0.00    -0.073 NA
HETATM    2  N6  LIG X 999      47.385 130.063  13.697  1.00  0.00    -0.162 NA
HETATM    3  N7  LIG X 999      48.396 129.364  13.706  1.00  0.00     0.068 N 
ENDROOT
BRANCH   1   4
HETATM    4  C7  LIG X 999      45.599 131.016  14.868  1.00  0.00     0.094 A 
HETATM    5  C6  LIG X 999      46.125 130.799  16.155  1.00  0.00     0.046 A 
HETATM    6  C5  LIG X 999      45.345 131.054  17.292  1.00  0.00    -0.021 A 
HETATM    7  C4  LIG X 999      45.871 130.837  18.586  1.00  0.00     0.046 A 
HETATM    8  C10 LIG X 999      44.008 131.539  17.137  1.00  0.00    -0.024 A 
HETATM    9  C3  LIG X 999      45.049 131.109  19.676  1.00  0.00     0.086 A 
HETATM   10  N4  LIG X 999      45.346 130.973  20.981  1.00  0.00    -0.228 NA
HETATM   11  C12 LIG X 999      43.778 131.570  19.524  1.00  0.00     0.063 A 
HETATM   12  C2  LIG X 999      44.200 131.372  21.596  1.00  0.00     0.148 A 
HETATM   13  N8  LIG X 999      43.224 131.742  20.729  1.00  0.00    -0.338 N 
HETATM   14  H8  LIG X 999      42.262 132.084  20.950  1.00  0.00     0.167 HD
HETATM   15  C11 LIG X 999      43.212 131.801  18.273  1.00  0.00     0.044 A 
HETATM   16  C9  LIG X 999      43.499 131.750  15.849  1.00  0.00     0.014 A 
HETATM   17  C8  LIG X 999      44.289 131.490  14.726  1.00  0.00     0.035 A 
BRANCH  12  18
HETATM   18  C1  LIG X 999      44.009 131.410  23.061  1.00  0.00     0.193 C 
HETATM   19  N3  LIG X 999      43.342 130.516  23.729  1.00  0.00    -0.140 NA
BRANCH  19  20
HETATM   20  N2  LIG X 999      42.725 129.410  23.132  1.00  0.00    -0.051 NA
HETATM   21  N1  LIG X 999      41.558 129.063  23.490  1.00  0.00    -0.184 NA
HETATM   22  H1  LIG X 999      41.100 128.238  23.044  1.00  0.00     0.214 HD
ENDBRANCH  19  20
ENDBRANCH  12  18
ENDBRANCH   1   4
TORSDOF 3
ENDMDL
MODEL 2
REMARK VINA RESULT:      -8.4      1.460      7.600
REMARK  3 active torsions:
REMARK  status: ('A' for Active; 'I' for Inactive)
REMARK    1  A    between atoms: N2_3  and  N3_4 
REMARK    2  A    between atoms: C1_5  and  C2_6 
REMARK    3  A    between atoms: C7_12  and  N5_13 
ROOT
HETATM    1  N5  LIG X 999      42.360 131.999  22.265  1.00  0.00    -0.073 NA
HETATM    2  N6  LIG X 999      42.572 131.718  23.446  1.00  0.00    -0.162 NA
HETATM    3  N7  LIG X 999      42.782 131.439  24.625  1.00  0.00     0.068 N 
ENDROOT
BRANCH   1   4
HETATM    4  C7  LIG X 999      43.284 131.665  21.219  1.00  0.00     0.094 A 
HETATM    5  C6  LIG X 999      43.002 131.940  19.868  1.00  0.00     0.046 A 
HETATM    6  C5  LIG X 999      43.925 131.600  18.868  1.00  0.00    -0.021 A 
HETATM    7  C4  LIG X 999      43.645 131.876  17.510  1.00  0.00     0.046 A 
HETATM    8  C10 LIG X 999      45.159 130.973  19.230  1.00  0.00    -0.024 A 
HETATM    9  C3  LIG X 999      44.600 131.515  16.564  1.00  0.00     0.086 A 
HETATM   10  N4  LIG X 999      44.536 131.683  15.231  1.00  0.00    -0.228 NA
HETATM   11  C12 LIG X 999      45.772 130.918  16.912  1.00  0.00     0.063 A 
HETATM   12  C2  LIG X 999      45.718 131.162  14.803  1.00  0.00     0.148 A 
HETATM   13  N8  LIG X 999      46.494 130.686  15.810  1.00  0.00    -0.338 N 
HETATM   14  H8  LIG X 999      47.436 130.242  15.742  1.00  0.00     0.167 HD
HETATM   15  C11 LIG X 999      46.097 130.626  18.234  1.00  0.00     0.044 A 
HETATM   16  C9  LIG X 999      45.425 130.705  20.579  1.00  0.00     0.014 A 
HETATM   17  C8  LIG X 999      44.494 131.049  21.563  1.00  0.00     0.035 A 
BRANCH  12  18
HETATM   18  C1  LIG X 999      46.142 131.105  13.387  1.00  0.00     0.193 C 
HETATM   19  N3  LIG X 999      47.258 130.576  12.985  1.00  0.00    -0.140 NA
BRANCH  19  20
HETATM   20  N2  LIG X 999      48.192 129.995  13.852  1.00  0.00    -0.051 NA
HETATM   21  N1  LIG X 999      48.097 128.767  14.158  1.00  0.00    -0.184 NA
HETATM   22  H1  LIG X 999      48.793 128.336  14.805  1.00  0.00     0.214 HD
ENDBRANCH  19  20
ENDBRANCH  12  18
ENDBRANCH   1   4
TORSDOF 3
ENDMDL
MODEL 3
REMARK VINA RESULT:      -8.3      1.368      7.297
REMARK  3 active torsions:
REMARK  status: ('A' for Active; 'I' for Inactive)
REMARK    1  A    between atoms: N2_3  and  N3_4 
REMARK    2  A    between atoms: C1_5  and  C2_6 
REMARK    3  A    between atoms: C7_12  and  N5_13 
ROOT
HETATM    1  N5  LIG X 999      44.261 131.223  23.487  1.00  0.00    -0.073 NA
HETATM    2  N6  LIG X 999      44.236 130.126  24.048  1.00  0.00    -0.162 NA
HETATM    3  N7  LIG X 999      44.211 129.032  24.609  1.00  0.00     0.068 N 
ENDROOT
BRANCH   1   4
HETATM    4  C7  LIG X 999      44.006 131.374  22.083  1.00  0.00     0.094 A 
HETATM    5  C6  LIG X 999      44.980 131.062  21.117  1.00  0.00     0.046 A 
HETATM    6  C5  LIG X 999      44.701 131.220  19.752  1.00  0.00    -0.021 A 
HETATM    7  C4  LIG X 999      45.678 130.908  18.779  1.00  0.00     0.046 A 
HETATM    8  C10 LIG X 999      43.416 131.701  19.346  1.00  0.00    -0.024 A 
HETATM    9  C3  LIG X 999      45.342 131.086  17.441  1.00  0.00     0.086 A 
HETATM   10  N4  LIG X 999      46.113 130.853  16.363  1.00  0.00    -0.228 NA
HETATM   11  C12 LIG X 999      44.118 131.544  17.058  1.00  0.00     0.063 A 
HETATM   12  C2  LIG X 999      45.298 131.190  15.327  1.00  0.00     0.148 A 
HETATM   13  N8  LIG X 999      44.072 131.617  15.723  1.00  0.00    -0.338 N 
HETATM   14  H8  LIG X 999      43.275 131.929  15.125  1.00  0.00     0.167 HD
HETATM   15  C11 LIG X 999      43.121 131.865  17.975  1.00  0.00     0.044 A 
HETATM   16  C9  LIG X 999      42.457 132.007  20.320  1.00  0.00     0.014 A 
HETATM   17  C8  LIG X 999      42.752 131.844  21.676  1.00  0.00     0.035 A 
BRANCH  12  18
HETATM   18  C1  LIG X 999      45.683 131.110  13.902  1.00  0.00     0.193 C 
HETATM   19  N3  LIG X 999      46.707 130.440  13.464  1.00  0.00    -0.140 NA
BRANCH  19  20
HETATM   20  N2  LIG X 999      47.566 129.714  14.298  1.00  0.00    -0.051 NA
HETATM   21  N1  LIG X 999      48.445 128.949  13.793  1.00  0.00    -0.184 NA
HETATM   22  H1  LIG X 999      49.084 128.408  14.416  1.00  0.00     0.214 HD
ENDBRANCH  19  20
ENDBRANCH  12  18
ENDBRANCH   1   4
TORSDOF 3
ENDMDL
MODEL 4
REMARK VINA RESULT:      -8.1      1.044      2.015
REMARK  3 active torsions:
REMARK  status: ('A' for Active; 'I' for Inactive)
REMARK    1  A    between atoms: N2_3  and  N3_4 
REMARK    2  A    between atoms: C1_5  and  C2_6 
REMARK    3  A    between atoms: C7_12  and  N5_13 
ROOT
HETATM    1  N5  LIG X 999      45.284 131.082  14.172  1.00  0.00    -0.073 NA
HETATM    2  N6  LIG X 999      46.310 131.045  13.491  1.00  0.00    -0.162 NA
HETATM    3  N7  LIG X 999      47.333 131.007  12.810  1.00  0.00     0.068 N 
ENDROOT
BRANCH   1   4
HETATM    4  C7  LIG X 999      45.305 130.953  15.601  1.00  0.00     0.094 A 
HETATM    5  C6  LIG X 999      44.292 131.503  16.408  1.00  0.00     0.046 A 
HETATM    6  C5  LIG X 999      44.342 131.360  17.803  1.00  0.00    -0.021 A 
HETATM    7  C4  LIG X 999      43.325 131.912  18.616  1.00  0.00     0.046 A 
HETATM    8  C10 LIG X 999      45.429 130.650  18.401  1.00  0.00    -0.024 A 
HETATM    9  C3  LIG X 999      43.429 131.737  19.992  1.00  0.00     0.086 A 
HETATM   10  N4  LIG X 999      42.581 132.175  20.941  1.00  0.00    -0.228 NA
HETATM   11  C12 LIG X 999      44.466 131.061  20.559  1.00  0.00     0.063 A 
HETATM   12  C2  LIG X 999      43.157 131.732  22.091  1.00  0.00     0.148 A 
HETATM   13  N8  LIG X 999      44.311 131.047  21.887  1.00  0.00    -0.338 N 
HETATM   14  H8  LIG X 999      44.935 130.610  22.602  1.00  0.00     0.167 HD
HETATM   15  C11 LIG X 999      45.491 130.499  19.804  1.00  0.00     0.044 A 
HETATM   16  C9  LIG X 999      46.430 130.108  17.584  1.00  0.00     0.014 A 
HETATM   17  C8  LIG X 999      46.366 130.260  16.196  1.00  0.00     0.035 A 
BRANCH  12  18
HETATM   18  C1  LIG X 999      42.603 131.958  23.443  1.00  0.00     0.193 C 
HETATM   19  N3  LIG X 999      42.302 131.005  24.273  1.00  0.00    -0.140 NA
BRANCH  19  20
HETATM   20  N2  LIG X 999      42.469 129.646  23.978  1.00  0.00    -0.051 NA
HETATM   21  N1  LIG X 999      41.486 128.961  23.560  1.00  0.00    -0.184 NA
HETATM   22  H1  LIG X 999      41.612 127.948  23.341  1.00  0.00     0.214 HD
ENDBRANCH  19  20
ENDBRANCH  12  18
ENDBRANCH   1   4
TORSDOF 3
ENDMDL
