REMARK VINA RESULT:      -3.5      5.641      8.040
REMARK  4 active torsions:
REMARK  status: ('A' for Active; 'I' for Inactive)
REMARK    1  A    between atoms: C5_5  and  C6_6 
REMARK    2  A    between atoms: C7_7  and  C8_8 
REMARK    3  A    between atoms: C11_13  and  C12_14 
REMARK    4  A    between atoms: C13_17  and  N3_18 
ROOT
HETATM    1  N3  LIG X 999      43.492 131.624  17.333  1.00  0.00    -0.023 NA
HETATM    2  N4  LIG X 999      44.622 131.707  16.852  1.00  0.00    -0.158 NA
HETATM    3  N5  LIG X 999      45.752 131.790  16.372  1.00  0.00     0.068 N 
ENDROOT
BRANCH   1   4
HETATM    4  C13 LIG X 999      43.287 131.757  18.738  1.00  0.00     0.326 A 
HETATM    5  N2  LIG X 999      42.120 132.136  19.286  1.00  0.00    -0.099 NA
HETATM    6  N1  LIG X 999      42.321 132.143  20.594  1.00  0.00    -0.124 NA
HETATM    7  C12 LIG X 999      43.606 131.774  20.791  1.00  0.00     0.184 A 
HETATM    8  O3  LIG X 999      44.203 131.527  19.647  1.00  0.00    -0.255 OA
BRANCH   7   9
HETATM    9  C11 LIG X 999      44.251 131.615  22.154  1.00  0.00     0.054 C 
HETATM   10  C3  LIG X 999      43.244 132.003  23.293  1.00  0.00     0.030 C 
HETATM   11  C2  LIG X 999      43.961 132.235  24.607  1.00  0.00    -0.021 C 
HETATM   12  C4  LIG X 999      42.110 130.967  23.446  1.00  0.00     0.027 C 
HETATM   13  C1  LIG X 999      45.182 132.776  24.623  1.00  0.00    -0.004 C 
HETATM   14  C15 LIG X 999      45.905 133.032  23.365  1.00  0.00    -0.003 C 
HETATM   15  C14 LIG X 999      45.458 132.538  22.205  1.00  0.00    -0.008 C 
HETATM   16  C5  LIG X 999      42.656 129.540  23.635  1.00  0.00     0.066 C 
HETATM   17  C9  LIG X 999      43.586 129.158  22.475  1.00  0.00     0.019 C 
HETATM   18  C10 LIG X 999      44.746 130.155  22.355  1.00  0.00     0.024 C 
BRANCH  16  19
HETATM   19  C6  LIG X 999      41.541 128.585  23.720  1.00  0.00    -0.090 C 
HETATM   20  C7  LIG X 999      40.627 127.802  23.789  1.00  0.00     0.005 C 
BRANCH  20  21
HETATM   21  C8  LIG X 999      39.539 126.870  23.870  1.00  0.00     0.258 C 
HETATM   22  O1  LIG X 999      38.354 127.290  23.924  1.00  0.00    -0.637 OA
HETATM   23  O2  LIG X 999      39.794 125.506  23.889  1.00  0.00    -0.637 OA
ENDBRANCH  20  21
ENDBRANCH  16  19
ENDBRANCH   7   9
ENDBRANCH   1   4
TORSDOF 4
