REMARK VINA RESULT:      -8.3      4.131      6.466
REMARK  3 active torsions:
REMARK  status: ('A' for Active; 'I' for Inactive)
REMARK    1  A    between atoms: O1_2  and  C1_3 
REMARK    2  A    between atoms: C1_3  and  C3_8 
REMARK    3  A    between atoms: C2_4  and  N1_5 
ROOT
HETATM    1  N1  LIG X 999      43.326 131.608  20.050  1.00  0.00    -0.082 NA
HETATM    2  N2  LIG X 999      42.411 132.365  20.372  1.00  0.00    -0.163 NA
HETATM    3  N3  LIG X 999      41.497 133.122  20.696  1.00  0.00     0.068 N 
ENDROOT
BRANCH   1   4
HETATM    4  C2  LIG X 999      43.897 131.672  18.743  1.00  0.00     0.193 C 
HETATM    5  C1  LIG X 999      45.042 131.031  18.456  1.00  0.00     0.096 C 
BRANCH   5   6
HETATM    6  O1  LIG X 999      45.686 130.259  19.428  1.00  0.00    -0.358 OA
HETATM    7  H1  LIG X 999      46.102 129.357  19.231  1.00  0.00     0.217 HD
ENDBRANCH   5   6
BRANCH   5   8
HETATM    8  C3  LIG X 999      45.650 131.099  17.102  1.00  0.00    -0.001 A 
HETATM    9  C4  LIG X 999      45.431 132.238  16.308  1.00  0.00     0.015 A 
HETATM   10  C5  LIG X 999      45.978 132.332  15.026  1.00  0.00     0.013 A 
HETATM   11  C6  LIG X 999      46.748 131.282  14.508  1.00  0.00    -0.026 A 
HETATM   12  C7  LIG X 999      47.301 131.367  13.221  1.00  0.00     0.012 A 
HETATM   13  C11 LIG X 999      46.964 130.122  15.289  1.00  0.00    -0.025 A 
HETATM   14  C8  LIG X 999      48.061 130.310  12.713  1.00  0.00     0.001 A 
HETATM   15  C9  LIG X 999      48.273 129.163  13.482  1.00  0.00     0.001 A 
HETATM   16  C10 LIG X 999      47.728 129.067  14.767  1.00  0.00     0.012 A 
HETATM   17  C12 LIG X 999      46.412 130.036  16.577  1.00  0.00     0.026 A 
ENDBRANCH   5   8
ENDBRANCH   1   4
TORSDOF 3
