REMARK VINA RESULT:      -7.8      2.032      2.838
REMARK  3 active torsions:
REMARK  status: ('A' for Active; 'I' for Inactive)
REMARK    1  A    between atoms: O1_2  and  C1_3 
REMARK    2  A    between atoms: C1_3  and  C3_8 
REMARK    3  A    between atoms: C2_4  and  N1_5 
ROOT
HETATM    1  C3  LIG X 999      45.548 131.152  17.488  1.00  0.00    -0.001 A 
HETATM    2  C4  LIG X 999      45.300 132.302  16.716  1.00  0.00     0.015 A 
HETATM    3  C5  LIG X 999      45.785 132.402  15.411  1.00  0.00     0.013 A 
HETATM    4  C6  LIG X 999      46.526 131.352  14.850  1.00  0.00    -0.026 A 
HETATM    5  C7  LIG X 999      47.018 131.443  13.539  1.00  0.00     0.012 A 
HETATM    6  C8  LIG X 999      47.755 130.389  12.993  1.00  0.00     0.001 A 
HETATM    7  C9  LIG X 999      48.005 129.239  13.747  1.00  0.00     0.001 A 
HETATM    8  C10 LIG X 999      47.520 129.136  15.054  1.00  0.00     0.012 A 
HETATM    9  C11 LIG X 999      46.778 130.188  15.615  1.00  0.00    -0.025 A 
HETATM   10  C12 LIG X 999      46.285 130.096  16.926  1.00  0.00     0.026 A 
ENDROOT
BRANCH   1  11
HETATM   11  C1  LIG X 999      45.027 131.034  18.875  1.00  0.00     0.090 C 
HETATM   12  C2  LIG X 999      45.785 130.524  19.856  1.00  0.00     0.118 C 
BRANCH  11  13
HETATM   13  O1  LIG X 999      43.725 131.447  19.161  1.00  0.00    -0.358 OA
HETATM   14  H1  LIG X 999      43.097 131.780  18.439  1.00  0.00     0.217 HD
ENDBRANCH  11  13
BRANCH  12  15
HETATM   15  N1  LIG X 999      45.301 130.408  21.196  1.00  0.00    -0.406 N 
HETATM   16  H3  LIG X 999      44.291 130.201  21.361  1.00  0.00     0.155 HD
HETATM   17  H4  LIG X 999      45.927 130.519  22.023  1.00  0.00     0.155 HD
ENDBRANCH  12  15
ENDBRANCH   1  11
TORSDOF 3
