REMARK VINA RESULT:      -7.2      1.665      2.748
REMARK  3 active torsions:
REMARK  status: ('A' for Active; 'I' for Inactive)
REMARK    1  A    between atoms: C6_6  and  C7_7 
REMARK    2  A    between atoms: C7_7  and  C8_9 
REMARK    3  A    between atoms: C8_9  and  N1_10 
ROOT
HETATM    1  N1  LIG X 999      45.491 131.368  14.353  1.00  0.00    -0.108 NA
HETATM    2  N2  LIG X 999      44.280 131.511  14.182  1.00  0.00    -0.167 NA
HETATM    3  N3  LIG X 999      43.070 131.654  14.013  1.00  0.00     0.068 N 
ENDROOT
BRANCH   1   4
HETATM    4  C8  LIG X 999      46.117 131.713  15.624  1.00  0.00     0.272 C 
BRANCH   4   5
HETATM    5  C7  LIG X 999      45.954 130.609  16.639  1.00  0.00     0.181 C 
HETATM    6  O1  LIG X 999      46.372 129.453  16.358  1.00  0.00    -0.290 OA
BRANCH   5   7
HETATM    7  C6  LIG X 999      45.363 130.863  17.980  1.00  0.00     0.012 A 
HETATM    8  C5  LIG X 999      44.137 131.547  18.088  1.00  0.00     0.027 A 
HETATM    9  C4  LIG X 999      43.563 131.795  19.345  1.00  0.00    -0.025 A 
HETATM   10  C3  LIG X 999      42.344 132.482  19.452  1.00  0.00     0.012 A 
HETATM   11  C11 LIG X 999      44.219 131.349  20.516  1.00  0.00    -0.026 A 
HETATM   12  C2  LIG X 999      41.781 132.723  20.708  1.00  0.00     0.001 A 
HETATM   13  C1  LIG X 999      42.429 132.281  21.865  1.00  0.00     0.001 A 
HETATM   14  C12 LIG X 999      43.644 131.596  21.772  1.00  0.00     0.012 A 
HETATM   15  C10 LIG X 999      45.435 130.662  20.409  1.00  0.00     0.013 A 
HETATM   16  C9  LIG X 999      46.001 130.420  19.155  1.00  0.00     0.016 A 
ENDBRANCH   5   7
ENDBRANCH   4   5
ENDBRANCH   1   4
TORSDOF 3
