REMARK VINA RESULT:      -8.1      0.749      1.855
REMARK  3 active torsions:
REMARK  status: ('A' for Active; 'I' for Inactive)
REMARK    1  A    between atoms: C6_6  and  C7_7 
REMARK    2  A    between atoms: C7_7  and  C8_9 
REMARK    3  A    between atoms: C8_9  and  N1_10 
ROOT
HETATM    1  N1  LIG X 999      46.230 130.714  14.111  1.00  0.00    -0.108 NA
HETATM    2  N2  LIG X 999      47.250 130.129  13.747  1.00  0.00    -0.167 NA
HETATM    3  N3  LIG X 999      48.269 129.545  13.383  1.00  0.00     0.068 N 
ENDROOT
BRANCH   1   4
HETATM    4  C8  LIG X 999      46.232 131.568  15.293  1.00  0.00     0.272 C 
BRANCH   4   5
HETATM    5  C7  LIG X 999      44.902 131.511  16.001  1.00  0.00     0.181 C 
HETATM    6  O1  LIG X 999      43.842 131.571  15.319  1.00  0.00    -0.290 OA
BRANCH   5   7
HETATM    7  C6  LIG X 999      44.811 131.360  17.479  1.00  0.00     0.012 A 
HETATM    8  C5  LIG X 999      43.723 131.884  18.206  1.00  0.00     0.027 A 
HETATM    9  C4  LIG X 999      43.653 131.733  19.600  1.00  0.00    -0.025 A 
HETATM   10  C3  LIG X 999      42.567 132.255  20.322  1.00  0.00     0.012 A 
HETATM   11  C11 LIG X 999      44.683 131.049  20.284  1.00  0.00    -0.026 A 
HETATM   12  C2  LIG X 999      42.508 132.099  21.710  1.00  0.00     0.001 A 
HETATM   13  C1  LIG X 999      43.527 131.422  22.386  1.00  0.00     0.001 A 
HETATM   14  C12 LIG X 999      44.612 130.898  21.678  1.00  0.00     0.012 A 
HETATM   15  C10 LIG X 999      45.767 130.529  19.565  1.00  0.00     0.013 A 
HETATM   16  C9  LIG X 999      45.829 130.684  18.178  1.00  0.00     0.016 A 
ENDBRANCH   5   7
ENDBRANCH   4   5
ENDBRANCH   1   4
TORSDOF 3
