MODEL 1
REMARK VINA RESULT:      -8.6      0.000      0.000
REMARK  1 active torsions:
REMARK  status: ('A' for Active; 'I' for Inactive)
REMARK    1  A    between atoms: C2_2  and  N1_3 
ROOT
HETATM    1  N1  LIG X 999      46.522 130.622  13.393  1.00  0.00    -0.073 NA
HETATM    2  N2  LIG X 999      47.603 130.034  13.463  1.00  0.00    -0.162 NA
HETATM    3  N3  LIG X 999      48.681 129.447  13.531  1.00  0.00     0.068 N 
ENDROOT
BRANCH   1   4
HETATM    4  C2  LIG X 999      45.736 130.922  14.554  1.00  0.00     0.094 A 
HETATM    5  C1  LIG X 999      44.470 131.527  14.454  1.00  0.00     0.035 A 
HETATM    6  C10 LIG X 999      43.724 131.808  15.602  1.00  0.00     0.014 A 
HETATM    7  C9  LIG X 999      44.232 131.491  16.869  1.00  0.00    -0.025 A 
HETATM    8  C4  LIG X 999      45.515 130.877  16.978  1.00  0.00    -0.023 A 
HETATM    9  C8  LIG X 999      43.487 131.771  18.032  1.00  0.00     0.030 A 
HETATM   10  C3  LIG X 999      46.251 130.601  15.817  1.00  0.00     0.046 A 
HETATM   11  C5  LIG X 999      46.034 130.554  18.249  1.00  0.00     0.022 A 
HETATM   12  C6  LIG X 999      45.267 130.847  19.378  1.00  0.00    -0.015 A 
HETATM   13  C7  LIG X 999      44.041 131.433  19.264  1.00  0.00     0.049 A 
HETATM   14  C14 LIG X 999      45.606 130.598  20.815  1.00  0.00     0.286 A 
HETATM   15  C11 LIG X 999      43.525 131.595  20.597  1.00  0.00     0.351 A 
HETATM   16  O1  LIG X 999      42.402 132.109  20.858  1.00  0.00    -0.259 OA
HETATM   17  N4  LIG X 999      44.434 131.103  21.604  1.00  0.00    -0.005 N 
HETATM   18  C12 LIG X 999      43.795 130.013  22.371  1.00  0.00     0.283 C 
HETATM   19  C13 LIG X 999      44.831 132.206  22.506  1.00  0.00     0.283 C 
ENDBRANCH   1   4
TORSDOF 1
ENDMDL
MODEL 2
REMARK VINA RESULT:      -8.4      2.044      6.633
REMARK  1 active torsions:
REMARK  status: ('A' for Active; 'I' for Inactive)
REMARK    1  A    between atoms: C2_2  and  N1_3 
ROOT
HETATM    1  N1  LIG X 999      43.876 131.397  23.548  1.00  0.00    -0.073 NA
HETATM    2  N2  LIG X 999      44.247 130.353  24.087  1.00  0.00    -0.162 NA
HETATM    3  N3  LIG X 999      44.618 129.311  24.625  1.00  0.00     0.068 N 
ENDROOT
BRANCH   1   4
HETATM    4  C2  LIG X 999      43.735 131.519  22.126  1.00  0.00     0.094 A 
HETATM    5  C1  LIG X 999      42.605 132.120  21.543  1.00  0.00     0.035 A 
HETATM    6  C10 LIG X 999      42.493 132.227  20.154  1.00  0.00     0.014 A 
HETATM    7  C9  LIG X 999      43.508 131.733  19.325  1.00  0.00    -0.025 A 
HETATM    8  C4  LIG X 999      44.657 131.122  19.908  1.00  0.00    -0.023 A 
HETATM    9  C8  LIG X 999      43.404 131.836  17.923  1.00  0.00     0.030 A 
HETATM   10  C3  LIG X 999      44.755 131.023  21.304  1.00  0.00     0.046 A 
HETATM   11  C5  LIG X 999      45.685 130.623  19.081  1.00  0.00     0.022 A 
HETATM   12  C6  LIG X 999      45.546 130.743  17.697  1.00  0.00    -0.015 A 
HETATM   13  C7  LIG X 999      44.445 131.329  17.148  1.00  0.00     0.049 A 
HETATM   14  C14 LIG X 999      46.495 130.292  16.631  1.00  0.00     0.286 A 
HETATM   15  C11 LIG X 999      44.613 131.292  15.720  1.00  0.00     0.351 A 
HETATM   16  O1  LIG X 999      43.771 131.753  14.900  1.00  0.00    -0.259 OA
HETATM   17  N4  LIG X 999      45.854 130.668  15.328  1.00  0.00    -0.005 N 
HETATM   18  C12 LIG X 999      46.688 131.631  14.578  1.00  0.00     0.283 C 
HETATM   19  C13 LIG X 999      45.578 129.472  14.503  1.00  0.00     0.283 C 
ENDBRANCH   1   4
TORSDOF 1
ENDMDL
MODEL 3
REMARK VINA RESULT:      -7.3      1.698      3.056
REMARK  1 active torsions:
REMARK  status: ('A' for Active; 'I' for Inactive)
REMARK    1  A    between atoms: C2_2  and  N1_3 
ROOT
HETATM    1  N1  LIG X 999      44.898 131.703  15.163  1.00  0.00    -0.073 NA
HETATM    2  N2  LIG X 999      45.692 131.319  14.302  1.00  0.00    -0.162 NA
HETATM    3  N3  LIG X 999      46.484 130.937  13.443  1.00  0.00     0.068 N 
ENDROOT
BRANCH   1   4
HETATM    4  C2  LIG X 999      45.012 131.317  16.539  1.00  0.00     0.094 A 
HETATM    5  C1  LIG X 999      46.028 130.450  16.982  1.00  0.00     0.035 A 
HETATM    6  C10 LIG X 999      46.117 130.090  18.330  1.00  0.00     0.014 A 
HETATM    7  C9  LIG X 999      45.192 130.591  19.256  1.00  0.00    -0.025 A 
HETATM    8  C4  LIG X 999      44.161 131.471  18.814  1.00  0.00    -0.023 A 
HETATM    9  C8  LIG X 999      45.275 130.234  20.617  1.00  0.00     0.030 A 
HETATM   10  C3  LIG X 999      44.085 131.822  17.459  1.00  0.00     0.046 A 
HETATM   11  C5  LIG X 999      43.226 131.979  19.740  1.00  0.00     0.022 A 
HETATM   12  C6  LIG X 999      43.340 131.603  21.080  1.00  0.00    -0.015 A 
HETATM   13  C7  LIG X 999      44.330 130.762  21.493  1.00  0.00     0.049 A 
HETATM   14  C14 LIG X 999      42.474 132.011  22.230  1.00  0.00     0.286 A 
HETATM   15  C11 LIG X 999      44.165 130.579  22.910  1.00  0.00     0.351 A 
HETATM   16  O1  LIG X 999      44.918 129.854  23.618  1.00  0.00    -0.259 OA
HETATM   17  N4  LIG X 999      43.042 131.319  23.435  1.00  0.00    -0.005 N 
HETATM   18  C12 LIG X 999      43.507 132.294  24.444  1.00  0.00     0.283 C 
HETATM   19  C13 LIG X 999      42.060 130.388  24.030  1.00  0.00     0.283 C 
ENDBRANCH   1   4
TORSDOF 1
ENDMDL
MODEL 4
REMARK VINA RESULT:      -6.6      1.579      2.296
REMARK  1 active torsions:
REMARK  status: ('A' for Active; 'I' for Inactive)
REMARK    1  A    between atoms: C2_2  and  N1_3 
ROOT
HETATM    1  N1  LIG X 999      45.541 131.219  15.431  1.00  0.00    -0.073 NA
HETATM    2  N2  LIG X 999      46.420 130.361  15.330  1.00  0.00    -0.162 NA
HETATM    3  N3  LIG X 999      47.296 129.505  15.228  1.00  0.00     0.068 N 
ENDROOT
BRANCH   1   4
HETATM    4  C2  LIG X 999      44.775 131.396  16.631  1.00  0.00     0.094 A 
HETATM    5  C1  LIG X 999      43.428 131.798  16.596  1.00  0.00     0.035 A 
HETATM    6  C10 LIG X 999      42.704 131.962  17.780  1.00  0.00     0.014 A 
HETATM    7  C9  LIG X 999      43.316 131.727  19.019  1.00  0.00    -0.025 A 
HETATM    8  C4  LIG X 999      44.681 131.319  19.062  1.00  0.00    -0.023 A 
HETATM    9  C8  LIG X 999      42.594 131.890  20.218  1.00  0.00     0.030 A 
HETATM   10  C3  LIG X 999      45.394 131.159  17.865  1.00  0.00     0.046 A 
HETATM   11  C5  LIG X 999      45.305 131.081  20.304  1.00  0.00     0.022 A 
HETATM   12  C6  LIG X 999      44.558 131.252  21.471  1.00  0.00    -0.015 A 
HETATM   13  C7  LIG X 999      43.253 131.642  21.420  1.00  0.00     0.049 A 
HETATM   14  C14 LIG X 999      45.000 131.060  22.888  1.00  0.00     0.286 A 
HETATM   15  C11 LIG X 999      42.783 131.724  22.777  1.00  0.00     0.351 A 
HETATM   16  O1  LIG X 999      41.608 132.059  23.095  1.00  0.00    -0.259 OA
HETATM   17  N4  LIG X 999      43.805 131.379  23.736  1.00  0.00    -0.005 N 
HETATM   18  C12 LIG X 999      43.379 130.203  24.526  1.00  0.00     0.283 C 
HETATM   19  C13 LIG X 999      44.070 132.530  24.625  1.00  0.00     0.283 C 
ENDBRANCH   1   4
TORSDOF 1
ENDMDL
MODEL 5
REMARK VINA RESULT:      -5.9      2.292      7.077
REMARK  1 active torsions:
REMARK  status: ('A' for Active; 'I' for Inactive)
REMARK    1  A    between atoms: C2_2  and  N1_3 
ROOT
HETATM    1  N1  LIG X 999      42.634 131.706  23.123  1.00  0.00    -0.073 NA
HETATM    2  N2  LIG X 999      42.112 130.880  23.875  1.00  0.00    -0.162 NA
HETATM    3  N3  LIG X 999      41.592 130.057  24.625  1.00  0.00     0.068 N 
ENDROOT
BRANCH   1   4
HETATM    4  C2  LIG X 999      43.486 131.323  22.035  1.00  0.00     0.094 A 
HETATM    5  C1  LIG X 999      44.633 130.533  22.237  1.00  0.00     0.035 A 
HETATM    6  C10 LIG X 999      45.446 130.173  21.159  1.00  0.00     0.014 A 
HETATM    7  C9  LIG X 999      45.127 130.597  19.862  1.00  0.00    -0.025 A 
HETATM    8  C4  LIG X 999      43.966 131.397  19.650  1.00  0.00    -0.023 A 
HETATM    9  C8  LIG X 999      45.941 130.238  18.769  1.00  0.00     0.030 A 
HETATM   10  C3  LIG X 999      43.160 131.750  20.742  1.00  0.00     0.046 A 
HETATM   11  C5  LIG X 999      43.637 131.827  18.348  1.00  0.00     0.022 A 
HETATM   12  C6  LIG X 999      44.467 131.452  17.290  1.00  0.00    -0.015 A 
HETATM   13  C7  LIG X 999      45.575 130.687  17.502  1.00  0.00     0.049 A 
HETATM   14  C14 LIG X 999      44.322 131.786  15.839  1.00  0.00     0.286 A 
HETATM   15  C11 LIG X 999      46.200 130.484  16.223  1.00  0.00     0.351 A 
HETATM   16  O1  LIG X 999      47.257 129.814  16.055  1.00  0.00    -0.259 OA
HETATM   17  N4  LIG X 999      45.484 131.132  15.150  1.00  0.00    -0.005 N 
HETATM   18  C12 LIG X 999      45.028 130.126  14.168  1.00  0.00     0.283 C 
HETATM   19  C13 LIG X 999      46.353 132.134  14.498  1.00  0.00     0.283 C 
ENDBRANCH   1   4
TORSDOF 1
ENDMDL
