MODEL 1
REMARK VINA RESULT:      -7.2      0.000      0.000
REMARK  5 active torsions:
REMARK  status: ('A' for Active; 'I' for Inactive)
REMARK    1  A    between atoms: O1_2  and  C1_3 
REMARK    2  A    between atoms: C1_3  and  C13_17 
REMARK    3  A    between atoms: N1_4  and  C2_5 
REMARK    4  A    between atoms: C3_6  and  O2_7 
REMARK    5  A    between atoms: C13_17  and  C15_19 
ROOT
HETATM    1  C2  LIG X 999      44.551 131.606  17.244  1.00  0.00     0.103 A 
HETATM    2  C3  LIG X 999      43.275 131.914  16.726  1.00  0.00     0.097 A 
HETATM    3  C5  LIG X 999      42.185 132.054  17.605  1.00  0.00     0.040 A 
HETATM    4  C6  LIG X 999      42.349 131.860  18.976  1.00  0.00     0.015 A 
HETATM    5  C7  LIG X 999      43.600 131.515  19.497  1.00  0.00    -0.024 A 
HETATM    6  C8  LIG X 999      43.758 131.303  20.876  1.00  0.00     0.012 A 
HETATM    7  C9  LIG X 999      45.007 130.957  21.396  1.00  0.00     0.001 A 
HETATM    8  C10 LIG X 999      46.107 130.822  20.548  1.00  0.00     0.001 A 
HETATM    9  C11 LIG X 999      45.966 131.031  19.174  1.00  0.00     0.014 A 
HETATM   10  C12 LIG X 999      44.712 131.378  18.629  1.00  0.00     0.006 A 
ENDROOT
BRANCH   1  11
HETATM   11  N1  LIG X 999      45.675 131.452  16.362  1.00  0.00    -0.225 NA
HETATM   12  C1  LIG X 999      46.123 130.312  15.922  1.00  0.00     0.142 C 
BRANCH  12  13
HETATM   13  O1  LIG X 999      45.465 129.123  16.245  1.00  0.00    -0.348 OA
HETATM   14  H1  LIG X 999      44.456 129.078  16.320  1.00  0.00     0.219 HD
ENDBRANCH  12  13
BRANCH  12  15
HETATM   15  C13 LIG X 999      47.342 130.285  15.032  1.00  0.00     0.058 C 
HETATM   16  C14 LIG X 999      47.461 128.912  14.354  1.00  0.00     0.018 C 
BRANCH  15  17
HETATM   17  C15 LIG X 999      47.271 131.439  14.007  1.00  0.00     0.008 C 
HETATM   18  C16 LIG X 999      47.746 131.023  12.615  1.00  0.00     0.006 C 
ENDBRANCH  15  17
ENDBRANCH  12  15
ENDBRANCH   1  11
BRANCH   2  19
HETATM   19  O2  LIG X 999      43.122 132.049  15.337  1.00  0.00    -0.354 OA
HETATM   20  C4  LIG X 999      43.538 131.083  14.377  1.00  0.00     0.210 C 
ENDBRANCH   2  19
TORSDOF 5
ENDMDL
MODEL 2
REMARK VINA RESULT:      -6.1      1.576      5.454
REMARK  5 active torsions:
REMARK  status: ('A' for Active; 'I' for Inactive)
REMARK    1  A    between atoms: O1_2  and  C1_3 
REMARK    2  A    between atoms: C1_3  and  C13_17 
REMARK    3  A    between atoms: N1_4  and  C2_5 
REMARK    4  A    between atoms: C3_6  and  O2_7 
REMARK    5  A    between atoms: C13_17  and  C15_19 
ROOT
HETATM    1  C2  LIG X 999      44.930 130.859  16.947  1.00  0.00     0.103 A 
HETATM    2  C3  LIG X 999      43.662 131.462  16.807  1.00  0.00     0.097 A 
HETATM    3  C5  LIG X 999      43.192 131.799  15.525  1.00  0.00     0.040 A 
HETATM    4  C6  LIG X 999      43.981 131.573  14.397  1.00  0.00     0.015 A 
HETATM    5  C7  LIG X 999      45.256 131.014  14.527  1.00  0.00    -0.024 A 
HETATM    6  C8  LIG X 999      46.056 130.805  13.391  1.00  0.00     0.012 A 
HETATM    7  C9  LIG X 999      47.329 130.247  13.521  1.00  0.00     0.001 A 
HETATM    8  C10 LIG X 999      47.815 129.893  14.781  1.00  0.00     0.001 A 
HETATM    9  C11 LIG X 999      47.031 130.095  15.919  1.00  0.00     0.014 A 
HETATM   10  C12 LIG X 999      45.744 130.659  15.809  1.00  0.00     0.006 A 
ENDROOT
BRANCH   1  11
HETATM   11  N1  LIG X 999      45.430 130.514  18.249  1.00  0.00    -0.225 NA
HETATM   12  C1  LIG X 999      45.515 131.336  19.254  1.00  0.00     0.142 C 
BRANCH  12  13
HETATM   13  O1  LIG X 999      45.042 132.645  19.138  1.00  0.00    -0.348 OA
HETATM   14  H1  LIG X 999      44.065 132.871  19.285  1.00  0.00     0.219 HD
ENDBRANCH  12  13
BRANCH  12  15
HETATM   15  C13 LIG X 999      46.100 130.857  20.561  1.00  0.00     0.058 C 
HETATM   16  C14 LIG X 999      46.574 132.058  21.392  1.00  0.00     0.018 C 
BRANCH  15  17
HETATM   17  C15 LIG X 999      45.064 129.995  21.317  1.00  0.00     0.008 C 
HETATM   18  C16 LIG X 999      43.972 130.832  21.983  1.00  0.00     0.006 C 
ENDBRANCH  15  17
ENDBRANCH  12  15
ENDBRANCH   1  11
BRANCH   2  19
HETATM   19  O2  LIG X 999      42.908 131.732  17.961  1.00  0.00    -0.354 OA
HETATM   20  C4  LIG X 999      41.720 132.516  17.990  1.00  0.00     0.210 C 
ENDBRANCH   2  19
TORSDOF 5
ENDMDL
MODEL 3
REMARK VINA RESULT:      -5.5      2.986      6.278
REMARK  5 active torsions:
REMARK  status: ('A' for Active; 'I' for Inactive)
REMARK    1  A    between atoms: O1_2  and  C1_3 
REMARK    2  A    between atoms: C1_3  and  C13_17 
REMARK    3  A    between atoms: N1_4  and  C2_5 
REMARK    4  A    between atoms: C3_6  and  O2_7 
REMARK    5  A    between atoms: C13_17  and  C15_19 
ROOT
HETATM    1  C2  LIG X 999      43.652 131.637  20.029  1.00  0.00     0.103 A 
HETATM    2  C3  LIG X 999      42.411 132.310  20.001  1.00  0.00     0.097 A 
HETATM    3  C5  LIG X 999      41.791 132.572  18.766  1.00  0.00     0.040 A 
HETATM    4  C6  LIG X 999      42.405 132.201  17.570  1.00  0.00     0.015 A 
HETATM    5  C7  LIG X 999      43.653 131.570  17.582  1.00  0.00    -0.024 A 
HETATM    6  C8  LIG X 999      44.278 131.214  16.376  1.00  0.00     0.012 A 
HETATM    7  C9  LIG X 999      45.524 130.584  16.388  1.00  0.00     0.001 A 
HETATM    8  C10 LIG X 999      46.156 130.303  17.600  1.00  0.00     0.001 A 
HETATM    9  C11 LIG X 999      45.547 130.650  18.808  1.00  0.00     0.014 A 
HETATM   10  C12 LIG X 999      44.290 131.289  18.817  1.00  0.00     0.006 A 
ENDROOT
BRANCH   1  11
HETATM   11  N1  LIG X 999      44.304 131.367  21.280  1.00  0.00    -0.225 NA
HETATM   12  C1  LIG X 999      43.754 130.751  22.286  1.00  0.00     0.142 C 
BRANCH  12  13
HETATM   13  O1  LIG X 999      42.461 130.235  22.177  1.00  0.00    -0.348 OA
HETATM   14  H1  LIG X 999      42.225 129.538  21.480  1.00  0.00     0.219 HD
ENDBRANCH  12  13
BRANCH  12  15
HETATM   15  C13 LIG X 999      44.536 130.568  23.564  1.00  0.00     0.058 C 
HETATM   16  C14 LIG X 999      44.125 131.639  24.585  1.00  0.00     0.018 C 
BRANCH  15  17
HETATM   17  C15 LIG X 999      44.332 129.135  24.105  1.00  0.00     0.008 C 
HETATM   18  C16 LIG X 999      44.918 128.066  23.183  1.00  0.00     0.006 C 
ENDBRANCH  15  17
ENDBRANCH  12  15
ENDBRANCH   1  11
BRANCH   2  19
HETATM   19  O2  LIG X 999      41.838 132.724  21.215  1.00  0.00    -0.354 OA
HETATM   20  C4  LIG X 999      40.728 133.609  21.328  1.00  0.00     0.210 C 
ENDBRANCH   2  19
TORSDOF 5
ENDMDL
MODEL 4
REMARK VINA RESULT:      -5.4      3.100      4.855
REMARK  5 active torsions:
REMARK  status: ('A' for Active; 'I' for Inactive)
REMARK    1  A    between atoms: O1_2  and  C1_3 
REMARK    2  A    between atoms: C1_3  and  C13_17 
REMARK    3  A    between atoms: N1_4  and  C2_5 
REMARK    4  A    between atoms: C3_6  and  O2_7 
REMARK    5  A    between atoms: C13_17  and  C15_19 
ROOT
HETATM    1  C2  LIG X 999      43.659 130.879  21.645  1.00  0.00     0.103 A 
HETATM    2  C3  LIG X 999      42.834 131.880  22.202  1.00  0.00     0.097 A 
HETATM    3  C5  LIG X 999      42.507 131.827  23.569  1.00  0.00     0.040 A 
HETATM    4  C6  LIG X 999      42.965 130.781  24.370  1.00  0.00     0.015 A 
HETATM    5  C7  LIG X 999      43.749 129.761  23.820  1.00  0.00    -0.024 A 
HETATM    6  C8  LIG X 999      44.193 128.699  24.625  1.00  0.00     0.012 A 
HETATM    7  C9  LIG X 999      44.976 127.681  24.076  1.00  0.00     0.001 A 
HETATM    8  C10 LIG X 999      45.323 127.714  22.725  1.00  0.00     0.001 A 
HETATM    9  C11 LIG X 999      44.890 128.765  21.913  1.00  0.00     0.014 A 
HETATM   10  C12 LIG X 999      44.097 129.801  22.447  1.00  0.00     0.006 A 
ENDROOT
BRANCH   1  11
HETATM   11  N1  LIG X 999      43.998 130.911  20.249  1.00  0.00    -0.225 NA
HETATM   12  C1  LIG X 999      45.017 131.544  19.747  1.00  0.00     0.142 C 
BRANCH  12  13
HETATM   13  O1  LIG X 999      45.919 132.205  20.583  1.00  0.00    -0.348 OA
HETATM   14  H1  LIG X 999      45.960 132.014  21.577  1.00  0.00     0.219 HD
ENDBRANCH  12  13
BRANCH  12  15
HETATM   15  C13 LIG X 999      45.239 131.535  18.254  1.00  0.00     0.058 C 
HETATM   16  C14 LIG X 999      45.966 130.246  17.842  1.00  0.00     0.018 C 
BRANCH  15  17
HETATM   17  C15 LIG X 999      43.889 131.704  17.521  1.00  0.00     0.008 C 
HETATM   18  C16 LIG X 999      43.991 131.420  16.022  1.00  0.00     0.006 C 
ENDBRANCH  15  17
ENDBRANCH  12  15
ENDBRANCH   1  11
BRANCH   2  19
HETATM   19  O2  LIG X 999      42.339 132.893  21.365  1.00  0.00    -0.354 OA
HETATM   20  C4  LIG X 999      41.616 132.669  20.160  1.00  0.00     0.210 C 
ENDBRANCH   2  19
TORSDOF 5
ENDMDL
MODEL 5
REMARK VINA RESULT:      -5.3      3.853      6.716
REMARK  5 active torsions:
REMARK  status: ('A' for Active; 'I' for Inactive)
REMARK    1  A    between atoms: O1_2  and  C1_3 
REMARK    2  A    between atoms: C1_3  and  C13_17 
REMARK    3  A    between atoms: N1_4  and  C2_5 
REMARK    4  A    between atoms: C3_6  and  O2_7 
REMARK    5  A    between atoms: C13_17  and  C15_19 
ROOT
HETATM    1  C2  LIG X 999      43.983 130.718  21.591  1.00  0.00     0.103 A 
HETATM    2  C3  LIG X 999      42.952 131.531  22.111  1.00  0.00     0.097 A 
HETATM    3  C5  LIG X 999      42.322 132.471  21.276  1.00  0.00     0.040 A 
HETATM    4  C6  LIG X 999      42.727 132.628  19.950  1.00  0.00     0.015 A 
HETATM    5  C7  LIG X 999      43.774 131.857  19.435  1.00  0.00    -0.024 A 
HETATM    6  C8  LIG X 999      44.192 132.030  18.106  1.00  0.00     0.012 A 
HETATM    7  C9  LIG X 999      45.238 131.260  17.591  1.00  0.00     0.001 A 
HETATM    8  C10 LIG X 999      45.873 130.313  18.395  1.00  0.00     0.001 A 
HETATM    9  C11 LIG X 999      45.468 130.129  19.720  1.00  0.00     0.014 A 
HETATM   10  C12 LIG X 999      44.416 130.898  20.258  1.00  0.00     0.006 A 
ENDROOT
BRANCH   1  11
HETATM   11  N1  LIG X 999      44.643 129.757  22.431  1.00  0.00    -0.225 NA
HETATM   12  C1  LIG X 999      44.046 128.795  23.070  1.00  0.00     0.142 C 
BRANCH  12  13
HETATM   13  O1  LIG X 999      42.673 128.591  22.916  1.00  0.00    -0.348 OA
HETATM   14  H1  LIG X 999      41.993 129.188  23.373  1.00  0.00     0.219 HD
ENDBRANCH  12  13
BRANCH  12  15
HETATM   15  C13 LIG X 999      44.851 127.876  23.956  1.00  0.00     0.058 C 
HETATM   16  C14 LIG X 999      43.925 126.850  24.625  1.00  0.00     0.018 C 
BRANCH  15  17
HETATM   17  C15 LIG X 999      45.973 127.203  23.135  1.00  0.00     0.008 C 
HETATM   18  C16 LIG X 999      45.447 126.123  22.188  1.00  0.00     0.006 C 
ENDBRANCH  15  17
ENDBRANCH  12  15
ENDBRANCH   1  11
BRANCH   2  19
HETATM   19  O2  LIG X 999      42.599 131.395  23.464  1.00  0.00    -0.354 OA
HETATM   20  C4  LIG X 999      43.177 132.138  24.532  1.00  0.00     0.210 C 
ENDBRANCH   2  19
TORSDOF 5
ENDMDL
MODEL 6
REMARK VINA RESULT:      -5.1      7.971      9.770
REMARK  5 active torsions:
REMARK  status: ('A' for Active; 'I' for Inactive)
REMARK    1  A    between atoms: O1_2  and  C1_3 
REMARK    2  A    between atoms: C1_3  and  C13_17 
REMARK    3  A    between atoms: N1_4  and  C2_5 
REMARK    4  A    between atoms: C3_6  and  O2_7 
REMARK    5  A    between atoms: C13_17  and  C15_19 
ROOT
HETATM    1  C2  LIG X 999      41.821 125.611  24.077  1.00  0.00     0.103 A 
HETATM    2  C3  LIG X 999      41.737 127.000  23.840  1.00  0.00     0.097 A 
HETATM    3  C5  LIG X 999      40.479 127.629  23.838  1.00  0.00     0.040 A 
HETATM    4  C6  LIG X 999      39.314 126.887  24.036  1.00  0.00     0.015 A 
HETATM    5  C7  LIG X 999      39.381 125.504  24.231  1.00  0.00    -0.024 A 
HETATM    6  C8  LIG X 999      38.205 124.758  24.412  1.00  0.00     0.012 A 
HETATM    7  C9  LIG X 999      38.272 123.377  24.607  1.00  0.00     0.001 A 
HETATM    8  C10 LIG X 999      39.509 122.729  24.624  1.00  0.00     0.001 A 
HETATM    9  C11 LIG X 999      40.687 123.459  24.447  1.00  0.00     0.014 A 
HETATM   10  C12 LIG X 999      40.640 124.853  24.246  1.00  0.00     0.006 A 
ENDROOT
BRANCH   1  11
HETATM   11  N1  LIG X 999      43.097 124.950  24.076  1.00  0.00    -0.225 NA
HETATM   12  C1  LIG X 999      43.679 124.460  23.021  1.00  0.00     0.142 C 
BRANCH  12  13
HETATM   13  O1  LIG X 999      43.099 124.615  21.760  1.00  0.00    -0.348 OA
HETATM   14  H1  LIG X 999      42.287 125.202  21.617  1.00  0.00     0.219 HD
ENDBRANCH  12  13
BRANCH  12  15
HETATM   15  C13 LIG X 999      45.003 123.750  23.162  1.00  0.00     0.058 C 
HETATM   16  C14 LIG X 999      45.194 122.765  22.000  1.00  0.00     0.018 C 
BRANCH  15  17
HETATM   17  C15 LIG X 999      46.148 124.783  23.247  1.00  0.00     0.008 C 
HETATM   18  C16 LIG X 999      47.033 124.790  22.000  1.00  0.00     0.006 C 
ENDBRANCH  15  17
ENDBRANCH  12  15
ENDBRANCH   1  11
BRANCH   2  19
HETATM   19  O2  LIG X 999      42.918 127.717  23.587  1.00  0.00    -0.354 OA
HETATM   20  C4  LIG X 999      43.364 128.839  24.341  1.00  0.00     0.210 C 
ENDBRANCH   2  19
TORSDOF 5
ENDMDL
MODEL 7
REMARK VINA RESULT:      -5.1      5.476      7.781
REMARK  5 active torsions:
REMARK  status: ('A' for Active; 'I' for Inactive)
REMARK    1  A    between atoms: O1_2  and  C1_3 
REMARK    2  A    between atoms: C1_3  and  C13_17 
REMARK    3  A    between atoms: N1_4  and  C2_5 
REMARK    4  A    between atoms: C3_6  and  O2_7 
REMARK    5  A    between atoms: C13_17  and  C15_19 
ROOT
HETATM    1  C2  LIG X 999      44.439 128.047  22.831  1.00  0.00     0.103 A 
HETATM    2  C3  LIG X 999      43.528 127.985  23.908  1.00  0.00     0.097 A 
HETATM    3  C5  LIG X 999      42.806 129.137  24.272  1.00  0.00     0.040 A 
HETATM    4  C6  LIG X 999      43.006 130.343  23.601  1.00  0.00     0.015 A 
HETATM    5  C7  LIG X 999      43.936 130.426  22.559  1.00  0.00    -0.024 A 
HETATM    6  C8  LIG X 999      44.148 131.646  21.896  1.00  0.00     0.012 A 
HETATM    7  C9  LIG X 999      45.076 131.730  20.857  1.00  0.00     0.001 A 
HETATM    8  C10 LIG X 999      45.798 130.600  20.468  1.00  0.00     0.001 A 
HETATM    9  C11 LIG X 999      45.597 129.379  21.117  1.00  0.00     0.014 A 
HETATM   10  C12 LIG X 999      44.666 129.275  22.170  1.00  0.00     0.006 A 
ENDROOT
BRANCH   1  11
HETATM   11  N1  LIG X 999      45.191 126.883  22.449  1.00  0.00    -0.225 NA
HETATM   12  C1  LIG X 999      46.163 126.367  23.142  1.00  0.00     0.142 C 
BRANCH  12  13
HETATM   13  O1  LIG X 999      46.503 126.900  24.387  1.00  0.00    -0.348 OA
HETATM   14  H1  LIG X 999      47.297 126.554  24.913  1.00  0.00     0.219 HD
ENDBRANCH  12  13
BRANCH  12  15
HETATM   15  C13 LIG X 999      46.902 125.164  22.606  1.00  0.00     0.058 C 
HETATM   16  C14 LIG X 999      48.416 125.419  22.653  1.00  0.00     0.018 C 
BRANCH  15  17
HETATM   17  C15 LIG X 999      46.497 123.902  23.399  1.00  0.00     0.008 C 
HETATM   18  C16 LIG X 999      45.152 123.329  22.953  1.00  0.00     0.006 C 
ENDBRANCH  15  17
ENDBRANCH  12  15
ENDBRANCH   1  11
BRANCH   2  19
HETATM   19  O2  LIG X 999      43.384 126.775  24.606  1.00  0.00    -0.354 OA
HETATM   20  C4  LIG X 999      42.351 125.823  24.376  1.00  0.00     0.210 C 
ENDBRANCH   2  19
TORSDOF 5
ENDMDL
MODEL 8
REMARK VINA RESULT:      -5.1      7.439      8.995
REMARK  5 active torsions:
REMARK  status: ('A' for Active; 'I' for Inactive)
REMARK    1  A    between atoms: O1_2  and  C1_3 
REMARK    2  A    between atoms: C1_3  and  C13_17 
REMARK    3  A    between atoms: N1_4  and  C2_5 
REMARK    4  A    between atoms: C3_6  and  O2_7 
REMARK    5  A    between atoms: C13_17  and  C15_19 
ROOT
HETATM    1  C2  LIG X 999      42.191 125.980  23.919  1.00  0.00     0.103 A 
HETATM    2  C3  LIG X 999      40.838 125.827  24.289  1.00  0.00     0.097 A 
HETATM    3  C5  LIG X 999      40.025 126.966  24.437  1.00  0.00     0.040 A 
HETATM    4  C6  LIG X 999      40.553 128.244  24.251  1.00  0.00     0.015 A 
HETATM    5  C7  LIG X 999      41.903 128.410  23.924  1.00  0.00    -0.024 A 
HETATM    6  C8  LIG X 999      42.435 129.699  23.756  1.00  0.00     0.012 A 
HETATM    7  C9  LIG X 999      43.783 129.865  23.429  1.00  0.00     0.001 A 
HETATM    8  C10 LIG X 999      44.608 128.752  23.266  1.00  0.00     0.001 A 
HETATM    9  C11 LIG X 999      44.092 127.464  23.430  1.00  0.00     0.014 A 
HETATM   10  C12 LIG X 999      42.735 127.275  23.762  1.00  0.00     0.006 A 
ENDROOT
BRANCH   1  11
HETATM   11  N1  LIG X 999      43.038 124.829  23.770  1.00  0.00    -0.225 NA
HETATM   12  C1  LIG X 999      43.148 124.124  22.683  1.00  0.00     0.142 C 
BRANCH  12  13
HETATM   13  O1  LIG X 999      42.468 124.503  21.524  1.00  0.00    -0.348 OA
HETATM   14  H1  LIG X 999      41.646 124.004  21.204  1.00  0.00     0.219 HD
ENDBRANCH  12  13
BRANCH  12  15
HETATM   15  C13 LIG X 999      44.044 122.908  22.670  1.00  0.00     0.058 C 
HETATM   16  C14 LIG X 999      44.180 122.375  21.237  1.00  0.00     0.018 C 
BRANCH  15  17
HETATM   17  C15 LIG X 999      45.412 123.256  23.297  1.00  0.00     0.008 C 
HETATM   18  C16 LIG X 999      46.282 124.114  22.378  1.00  0.00     0.006 C 
ENDBRANCH  15  17
ENDBRANCH  12  15
ENDBRANCH   1  11
BRANCH   2  19
HETATM   19  O2  LIG X 999      40.342 124.534  24.526  1.00  0.00    -0.354 OA
HETATM   20  C4  LIG X 999      39.483 123.820  23.643  1.00  0.00     0.210 C 
ENDBRANCH   2  19
TORSDOF 5
ENDMDL
MODEL 9
REMARK VINA RESULT:      -4.8      8.720     10.562
REMARK  5 active torsions:
REMARK  status: ('A' for Active; 'I' for Inactive)
REMARK    1  A    between atoms: O1_2  and  C1_3 
REMARK    2  A    between atoms: C1_3  and  C13_17 
REMARK    3  A    between atoms: N1_4  and  C2_5 
REMARK    4  A    between atoms: C3_6  and  O2_7 
REMARK    5  A    between atoms: C13_17  and  C15_19 
ROOT
HETATM    1  C2  LIG X 999      51.383 136.560  22.966  1.00  0.00     0.103 A 
HETATM    2  C3  LIG X 999      52.623 137.170  23.253  1.00  0.00     0.097 A 
HETATM    3  C5  LIG X 999      53.619 136.437  23.923  1.00  0.00     0.040 A 
HETATM    4  C6  LIG X 999      53.381 135.125  24.333  1.00  0.00     0.015 A 
HETATM    5  C7  LIG X 999      52.142 134.523  24.090  1.00  0.00    -0.024 A 
HETATM    6  C8  LIG X 999      51.899 133.208  24.520  1.00  0.00     0.012 A 
HETATM    7  C9  LIG X 999      50.662 132.606  24.278  1.00  0.00     0.001 A 
HETATM    8  C10 LIG X 999      49.660 133.308  23.606  1.00  0.00     0.001 A 
HETATM    9  C11 LIG X 999      49.887 134.616  23.171  1.00  0.00     0.014 A 
HETATM   10  C12 LIG X 999      51.128 135.242  23.408  1.00  0.00     0.006 A 
ENDROOT
BRANCH   1  11
HETATM   11  N1  LIG X 999      50.351 137.295  22.289  1.00  0.00    -0.225 NA
HETATM   12  C1  LIG X 999      50.153 137.284  21.003  1.00  0.00     0.142 C 
BRANCH  12  13
HETATM   13  O1  LIG X 999      50.928 136.468  20.177  1.00  0.00    -0.348 OA
HETATM   14  H1  LIG X 999      50.557 135.614  19.777  1.00  0.00     0.219 HD
ENDBRANCH  12  13
BRANCH  12  15
HETATM   15  C13 LIG X 999      49.058 138.138  20.411  1.00  0.00     0.058 C 
HETATM   16  C14 LIG X 999      49.407 139.624  20.576  1.00  0.00     0.018 C 
BRANCH  15  17
HETATM   17  C15 LIG X 999      48.831 137.751  18.933  1.00  0.00     0.008 C 
HETATM   18  C16 LIG X 999      47.833 138.670  18.227  1.00  0.00     0.006 C 
ENDBRANCH  15  17
ENDBRANCH  12  15
ENDBRANCH   1  11
BRANCH   2  19
HETATM   19  O2  LIG X 999      52.820 138.510  22.882  1.00  0.00    -0.354 OA
HETATM   20  C4  LIG X 999      52.717 139.621  23.766  1.00  0.00     0.210 C 
ENDBRANCH   2  19
TORSDOF 5
ENDMDL
