REMARK VINA RESULT:      -3.9      3.512      5.682
REMARK  4 active torsions:
REMARK  status: ('A' for Active; 'I' for Inactive)
REMARK    1  A    between atoms: C4_4  and  N1_5 
REMARK    2  A    between atoms: C7_10  and  S1_11 
REMARK    3  A    between atoms: S1_11  and  C8_12 
REMARK    4  A    between atoms: C8_12  and  C9_13 
ROOT
HETATM    1  N1  LIG X 999      41.343 132.445  19.729  1.00  0.00    -0.071 NA
HETATM    2  N2  LIG X 999      40.893 133.144  20.635  1.00  0.00    -0.162 NA
HETATM    3  N3  LIG X 999      40.443 133.857  21.531  1.00  0.00     0.068 N 
ENDROOT
BRANCH   1   4
HETATM    4  C4  LIG X 999      42.711 131.995  19.681  1.00  0.00     0.108 A 
HETATM    5  C3  LIG X 999      43.465 131.721  20.841  1.00  0.00     0.008 A 
HETATM    6  C2  LIG X 999      44.769 131.333  20.759  1.00  0.00    -0.021 A 
HETATM    7  C15 LIG X 999      43.053 131.751  22.271  1.00  0.00     0.278 C 
HETATM    8  C1  LIG X 999      45.404 131.146  19.538  1.00  0.00     0.018 A 
HETATM    9  C18 LIG X 999      45.339 131.112  22.107  1.00  0.00     0.276 C 
HETATM   10  C6  LIG X 999      44.674 131.319  18.345  1.00  0.00    -0.035 A 
HETATM   11  C5  LIG X 999      43.331 131.802  18.417  1.00  0.00    -0.018 A 
HETATM   12  C7  LIG X 999      45.373 131.102  17.011  1.00  0.00     0.081 C 
HETATM   13  C14 LIG X 999      42.519 132.042  17.161  1.00  0.00     0.042 C 
HETATM   14  C13 LIG X 999      43.369 132.142  15.893  1.00  0.00     0.006 C 
HETATM   15  C12 LIG X 999      44.383 131.005  15.843  1.00  0.00     0.020 C 
HETATM   16  N4  LIG X 999      44.163 131.093  23.024  1.00  0.00    -0.067 N 
HETATM   17  C16 LIG X 999      43.798 129.692  23.342  1.00  0.00     0.272 C 
HETATM   18  C17 LIG X 999      44.459 131.817  24.280  1.00  0.00     0.272 C 
BRANCH  12  19
HETATM   19  S1  LIG X 999      46.360 129.547  17.025  1.00  0.00    -0.147 SA
BRANCH  19  20
HETATM   20  C8  LIG X 999      45.936 128.991  15.341  1.00  0.00     0.168 C 
BRANCH  20  21
HETATM   21  C9  LIG X 999      46.675 129.772  14.346  1.00  0.00    -0.097 C 
HETATM   22  C10 LIG X 999      47.279 130.416  13.523  1.00  0.00    -0.110 C 
HETATM   23  C11 LIG X 999      48.011 131.199  12.526  1.00  0.00     0.112 C 
ENDBRANCH  20  21
ENDBRANCH  19  20
ENDBRANCH  12  19
ENDBRANCH   1   4
TORSDOF 4
