MODEL 1
REMARK VINA RESULT:      -8.9      0.000      0.000
REMARK  4 active torsions:
REMARK  status: ('A' for Active; 'I' for Inactive)
REMARK    1  A    between atoms: C3_3  and  O1_4 
REMARK    2  A    between atoms: O1_4  and  C4_5 
REMARK    3  A    between atoms: C4_5  and  O2_6 
REMARK    4  A    between atoms: C5_8  and  C6_9 
ROOT
HETATM    1  C1  LIG X 999      44.297 130.642  22.350  1.00  0.00     0.014 C 
HETATM    2  C2  LIG X 999      44.428 131.306  21.352  1.00  0.00    -0.091 C 
HETATM    3  C3  LIG X 999      44.583 132.110  20.140  1.00  0.00     0.270 C 
ENDROOT
BRANCH   3   4
HETATM    4  O1  LIG X 999      44.086 131.377  19.029  1.00  0.00    -0.319 OA
BRANCH   4   5
HETATM    5  C4  LIG X 999      43.134 131.876  18.128  1.00  0.00     0.179 C 
HETATM    6  C5  LIG X 999      43.337 131.782  16.809  1.00  0.00     0.075 C 
BRANCH   5   7
HETATM    7  O2  LIG X 999      41.972 132.504  18.579  1.00  0.00    -0.341 OA
HETATM    8  H4  LIG X 999      41.875 133.510  18.612  1.00  0.00     0.220 HD
ENDBRANCH   5   7
BRANCH   6   9
HETATM    9  C6  LIG X 999      44.519 131.140  16.191  1.00  0.00    -0.031 A 
HETATM   10  C7  LIG X 999      45.175 130.116  16.891  1.00  0.00     0.012 A 
HETATM   11  C8  LIG X 999      46.304 129.495  16.352  1.00  0.00     0.013 A 
HETATM   12  C9  LIG X 999      46.808 129.901  15.108  1.00  0.00    -0.026 A 
HETATM   13  C10 LIG X 999      47.940 129.283  14.557  1.00  0.00     0.012 A 
HETATM   14  C14 LIG X 999      46.171 130.952  14.405  1.00  0.00    -0.025 A 
HETATM   15  C11 LIG X 999      48.438 129.704  13.321  1.00  0.00     0.001 A 
HETATM   16  C12 LIG X 999      47.812 130.744  12.627  1.00  0.00     0.001 A 
HETATM   17  C13 LIG X 999      46.683 131.367  13.166  1.00  0.00     0.012 A 
HETATM   18  C15 LIG X 999      45.038 131.570  14.955  1.00  0.00     0.024 A 
ENDBRANCH   6   9
ENDBRANCH   4   5
ENDBRANCH   3   4
TORSDOF 4
ENDMDL
MODEL 2
REMARK VINA RESULT:      -8.6      1.904      6.654
REMARK  4 active torsions:
REMARK  status: ('A' for Active; 'I' for Inactive)
REMARK    1  A    between atoms: C3_3  and  O1_4 
REMARK    2  A    between atoms: O1_4  and  C4_5 
REMARK    3  A    between atoms: C4_5  and  O2_6 
REMARK    4  A    between atoms: C5_8  and  C6_9 
ROOT
HETATM    1  C1  LIG X 999      47.640 131.021  12.992  1.00  0.00     0.014 C 
HETATM    2  C2  LIG X 999      47.078 130.345  13.816  1.00  0.00    -0.091 C 
HETATM    3  C3  LIG X 999      46.393 129.526  14.816  1.00  0.00     0.270 C 
ENDROOT
BRANCH   3   4
HETATM    4  O1  LIG X 999      45.720 130.379  15.734  1.00  0.00    -0.319 OA
BRANCH   4   5
HETATM    5  C4  LIG X 999      44.586 131.135  15.407  1.00  0.00     0.179 C 
HETATM    6  C5  LIG X 999      43.816 131.651  16.373  1.00  0.00     0.075 C 
BRANCH   5   7
HETATM    7  O2  LIG X 999      44.215 131.345  14.078  1.00  0.00    -0.341 OA
HETATM    8  H4  LIG X 999      43.324 131.042  13.708  1.00  0.00     0.220 HD
ENDBRANCH   5   7
BRANCH   6   9
HETATM    9  C6  LIG X 999      44.091 131.512  17.821  1.00  0.00    -0.031 A 
HETATM   10  C7  LIG X 999      45.310 130.947  18.226  1.00  0.00     0.012 A 
HETATM   11  C8  LIG X 999      45.603 130.782  19.582  1.00  0.00     0.013 A 
HETATM   12  C9  LIG X 999      44.671 131.164  20.558  1.00  0.00    -0.026 A 
HETATM   13  C10 LIG X 999      44.955 131.004  21.922  1.00  0.00     0.012 A 
HETATM   14  C14 LIG X 999      43.426 131.710  20.160  1.00  0.00    -0.025 A 
HETATM   15  C11 LIG X 999      44.013 131.380  22.884  1.00  0.00     0.001 A 
HETATM   16  C12 LIG X 999      42.783 131.915  22.493  1.00  0.00     0.001 A 
HETATM   17  C13 LIG X 999      42.488 132.080  21.136  1.00  0.00     0.012 A 
HETATM   18  C15 LIG X 999      43.141 131.871  18.796  1.00  0.00     0.024 A 
ENDBRANCH   6   9
ENDBRANCH   4   5
ENDBRANCH   3   4
TORSDOF 4
ENDMDL
MODEL 3
REMARK VINA RESULT:      -8.3      1.755      2.969
REMARK  4 active torsions:
REMARK  status: ('A' for Active; 'I' for Inactive)
REMARK    1  A    between atoms: C3_3  and  O1_4 
REMARK    2  A    between atoms: O1_4  and  C4_5 
REMARK    3  A    between atoms: C4_5  and  O2_6 
REMARK    4  A    between atoms: C5_8  and  C6_9 
ROOT
HETATM    1  C1  LIG X 999      44.933 127.488  22.822  1.00  0.00     0.014 C 
HETATM    2  C2  LIG X 999      44.588 128.643  22.864  1.00  0.00    -0.091 C 
HETATM    3  C3  LIG X 999      44.168 130.043  22.912  1.00  0.00     0.270 C 
ENDROOT
BRANCH   3   4
HETATM    4  O1  LIG X 999      43.927 130.502  21.589  1.00  0.00    -0.319 OA
BRANCH   4   5
HETATM    5  C4  LIG X 999      43.077 131.572  21.277  1.00  0.00     0.179 C 
HETATM    6  C5  LIG X 999      43.083 132.105  20.049  1.00  0.00     0.075 C 
BRANCH   5   7
HETATM    7  O2  LIG X 999      42.229 132.125  22.237  1.00  0.00    -0.341 OA
HETATM    8  H4  LIG X 999      42.002 131.650  23.100  1.00  0.00     0.220 HD
ENDBRANCH   5   7
BRANCH   6   9
HETATM    9  C6  LIG X 999      43.926 131.618  18.934  1.00  0.00    -0.031 A 
HETATM   10  C7  LIG X 999      45.151 131.003  19.231  1.00  0.00     0.012 A 
HETATM   11  C8  LIG X 999      45.985 130.544  18.208  1.00  0.00     0.013 A 
HETATM   12  C9  LIG X 999      45.613 130.710  16.866  1.00  0.00    -0.026 A 
HETATM   13  C10 LIG X 999      46.442 130.252  15.831  1.00  0.00     0.012 A 
HETATM   14  C14 LIG X 999      44.392 131.353  16.553  1.00  0.00    -0.025 A 
HETATM   15  C11 LIG X 999      46.064 130.432  14.497  1.00  0.00     0.001 A 
HETATM   16  C12 LIG X 999      44.861 131.070  14.187  1.00  0.00     0.001 A 
HETATM   17  C13 LIG X 999      44.026 131.531  15.210  1.00  0.00     0.012 A 
HETATM   18  C15 LIG X 999      43.562 131.812  17.587  1.00  0.00     0.024 A 
ENDBRANCH   6   9
ENDBRANCH   4   5
ENDBRANCH   3   4
TORSDOF 4
ENDMDL
MODEL 4
REMARK VINA RESULT:      -8.0      1.862      6.397
REMARK  4 active torsions:
REMARK  status: ('A' for Active; 'I' for Inactive)
REMARK    1  A    between atoms: C3_3  and  O1_4 
REMARK    2  A    between atoms: O1_4  and  C4_5 
REMARK    3  A    between atoms: C4_5  and  O2_6 
REMARK    4  A    between atoms: C5_8  and  C6_9 
ROOT
HETATM    1  C1  LIG X 999      47.900 129.594  13.726  1.00  0.00     0.014 C 
HETATM    2  C2  LIG X 999      47.361 129.687  14.800  1.00  0.00    -0.091 C 
HETATM    3  C3  LIG X 999      46.705 129.798  16.103  1.00  0.00     0.270 C 
ENDROOT
BRANCH   3   4
HETATM    4  O1  LIG X 999      45.299 129.874  15.910  1.00  0.00    -0.319 OA
BRANCH   4   5
HETATM    5  C4  LIG X 999      44.662 130.917  15.224  1.00  0.00     0.179 C 
HETATM    6  C5  LIG X 999      43.869 131.773  15.879  1.00  0.00     0.075 C 
BRANCH   5   7
HETATM    7  O2  LIG X 999      44.813 131.073  13.845  1.00  0.00    -0.341 OA
HETATM    8  H4  LIG X 999      45.557 130.628  13.326  1.00  0.00     0.220 HD
ENDBRANCH   5   7
BRANCH   6   9
HETATM    9  C6  LIG X 999      43.621 131.729  17.338  1.00  0.00    -0.031 A 
HETATM   10  C7  LIG X 999      42.322 131.964  17.810  1.00  0.00     0.012 A 
HETATM   11  C8  LIG X 999      42.047 131.948  19.180  1.00  0.00     0.013 A 
HETATM   12  C9  LIG X 999      43.076 131.714  20.104  1.00  0.00    -0.026 A 
HETATM   13  C10 LIG X 999      42.811 131.695  21.481  1.00  0.00     0.012 A 
HETATM   14  C14 LIG X 999      44.397 131.502  19.641  1.00  0.00    -0.025 A 
HETATM   15  C11 LIG X 999      43.848 131.470  22.392  1.00  0.00     0.001 A 
HETATM   16  C12 LIG X 999      45.152 131.265  21.936  1.00  0.00     0.001 A 
HETATM   17  C13 LIG X 999      45.429 131.281  20.566  1.00  0.00     0.012 A 
HETATM   18  C15 LIG X 999      44.662 131.521  18.263  1.00  0.00     0.024 A 
ENDBRANCH   6   9
ENDBRANCH   4   5
ENDBRANCH   3   4
TORSDOF 4
ENDMDL
MODEL 5
REMARK VINA RESULT:      -7.5      2.092      6.848
REMARK  4 active torsions:
REMARK  status: ('A' for Active; 'I' for Inactive)
REMARK    1  A    between atoms: C3_3  and  O1_4 
REMARK    2  A    between atoms: O1_4  and  C4_5 
REMARK    3  A    between atoms: C4_5  and  O2_6 
REMARK    4  A    between atoms: C5_8  and  C6_9 
ROOT
HETATM    1  C1  LIG X 999      47.626 131.266  13.001  1.00  0.00     0.014 C 
HETATM    2  C2  LIG X 999      46.531 131.106  13.479  1.00  0.00    -0.091 C 
HETATM    3  C3  LIG X 999      45.204 130.910  14.062  1.00  0.00     0.270 C 
ENDROOT
BRANCH   3   4
HETATM    4  O1  LIG X 999      45.309 130.024  15.169  1.00  0.00    -0.319 OA
BRANCH   4   5
HETATM    5  C4  LIG X 999      46.490 129.820  15.895  1.00  0.00     0.179 C 
HETATM    6  C5  LIG X 999      46.557 130.160  17.188  1.00  0.00     0.075 C 
BRANCH   5   7
HETATM    7  O2  LIG X 999      47.629 129.289  15.288  1.00  0.00    -0.341 OA
HETATM    8  H4  LIG X 999      48.247 128.644  15.763  1.00  0.00     0.220 HD
ENDBRANCH   5   7
BRANCH   6   9
HETATM    9  C6  LIG X 999      45.428 130.728  17.959  1.00  0.00    -0.031 A 
HETATM   10  C7  LIG X 999      44.380 131.349  17.264  1.00  0.00     0.012 A 
HETATM   11  C8  LIG X 999      43.303 131.914  17.953  1.00  0.00     0.013 A 
HETATM   12  C9  LIG X 999      43.267 131.881  19.354  1.00  0.00    -0.026 A 
HETATM   13  C10 LIG X 999      42.191 132.444  20.056  1.00  0.00     0.012 A 
HETATM   14  C14 LIG X 999      44.332 131.282  20.068  1.00  0.00    -0.025 A 
HETATM   15  C11 LIG X 999      42.171 132.414  21.454  1.00  0.00     0.001 A 
HETATM   16  C12 LIG X 999      43.224 131.825  22.159  1.00  0.00     0.001 A 
HETATM   17  C13 LIG X 999      44.302 131.261  21.471  1.00  0.00     0.012 A 
HETATM   18  C15 LIG X 999      45.410 130.718  19.367  1.00  0.00     0.024 A 
ENDBRANCH   6   9
ENDBRANCH   4   5
ENDBRANCH   3   4
TORSDOF 4
ENDMDL
MODEL 6
REMARK VINA RESULT:      -7.4      2.692      5.030
REMARK  4 active torsions:
REMARK  status: ('A' for Active; 'I' for Inactive)
REMARK    1  A    between atoms: C3_3  and  O1_4 
REMARK    2  A    between atoms: O1_4  and  C4_5 
REMARK    3  A    between atoms: C4_5  and  O2_6 
REMARK    4  A    between atoms: C5_8  and  C6_9 
ROOT
HETATM    1  C1  LIG X 999      46.170 126.137  22.116  1.00  0.00     0.014 C 
HETATM    2  C2  LIG X 999      45.338 126.883  22.568  1.00  0.00    -0.091 C 
HETATM    3  C3  LIG X 999      44.328 127.789  23.114  1.00  0.00     0.270 C 
ENDROOT
BRANCH   3   4
HETATM    4  O1  LIG X 999      44.420 129.042  22.449  1.00  0.00    -0.319 OA
BRANCH   4   5
HETATM    5  C4  LIG X 999      44.401 130.279  23.110  1.00  0.00     0.179 C 
HETATM    6  C5  LIG X 999      44.281 131.415  22.414  1.00  0.00     0.075 C 
BRANCH   5   7
HETATM    7  O2  LIG X 999      44.534 130.359  24.497  1.00  0.00    -0.341 OA
HETATM    8  H4  LIG X 999      45.409 130.593  24.946  1.00  0.00     0.220 HD
ENDBRANCH   5   7
BRANCH   6   9
HETATM    9  C6  LIG X 999      44.128 131.479  20.942  1.00  0.00    -0.031 A 
HETATM   10  C7  LIG X 999      42.908 131.917  20.408  1.00  0.00     0.012 A 
HETATM   11  C8  LIG X 999      42.715 131.977  19.025  1.00  0.00     0.013 A 
HETATM   12  C9  LIG X 999      43.738 131.581  18.152  1.00  0.00    -0.026 A 
HETATM   13  C10 LIG X 999      43.556 131.637  16.762  1.00  0.00     0.012 A 
HETATM   14  C14 LIG X 999      44.965 131.111  18.680  1.00  0.00    -0.025 A 
HETATM   15  C11 LIG X 999      44.581 131.231  15.903  1.00  0.00     0.001 A 
HETATM   16  C12 LIG X 999      45.791 130.763  16.423  1.00  0.00     0.001 A 
HETATM   17  C13 LIG X 999      45.984 130.702  17.806  1.00  0.00     0.012 A 
HETATM   18  C15 LIG X 999      45.149 131.054  20.070  1.00  0.00     0.024 A 
ENDBRANCH   6   9
ENDBRANCH   4   5
ENDBRANCH   3   4
TORSDOF 4
ENDMDL
MODEL 7
REMARK VINA RESULT:      -6.9      1.858      7.298
REMARK  4 active torsions:
REMARK  status: ('A' for Active; 'I' for Inactive)
REMARK    1  A    between atoms: C3_3  and  O1_4 
REMARK    2  A    between atoms: O1_4  and  C4_5 
REMARK    3  A    between atoms: C4_5  and  O2_6 
REMARK    4  A    between atoms: C5_8  and  C6_9 
ROOT
HETATM    1  C1  LIG X 999      46.541 131.019  13.395  1.00  0.00     0.014 C 
HETATM    2  C2  LIG X 999      45.638 130.885  14.182  1.00  0.00    -0.091 C 
HETATM    3  C3  LIG X 999      44.544 130.725  15.140  1.00  0.00     0.270 C 
ENDROOT
BRANCH   3   4
HETATM    4  O1  LIG X 999      45.038 130.955  16.453  1.00  0.00    -0.319 OA
BRANCH   4   5
HETATM    5  C4  LIG X 999      46.139 130.281  17.001  1.00  0.00     0.179 C 
HETATM    6  C5  LIG X 999      46.257 130.145  18.327  1.00  0.00     0.075 C 
BRANCH   5   7
HETATM    7  O2  LIG X 999      47.148 129.763  16.188  1.00  0.00    -0.341 OA
HETATM    8  H4  LIG X 999      47.914 129.215  16.554  1.00  0.00     0.220 HD
ENDBRANCH   5   7
BRANCH   6   9
HETATM    9  C6  LIG X 999      45.263 130.640  19.307  1.00  0.00    -0.031 A 
HETATM   10  C7  LIG X 999      44.305 131.574  18.885  1.00  0.00     0.012 A 
HETATM   11  C8  LIG X 999      43.359 132.079  19.781  1.00  0.00     0.013 A 
HETATM   12  C9  LIG X 999      43.368 131.671  21.122  1.00  0.00    -0.026 A 
HETATM   13  C10 LIG X 999      42.423 132.172  22.030  1.00  0.00     0.012 A 
HETATM   14  C14 LIG X 999      44.348 130.751  21.566  1.00  0.00    -0.025 A 
HETATM   15  C11 LIG X 999      42.449 131.764  23.367  1.00  0.00     0.001 A 
HETATM   16  C12 LIG X 999      43.418 130.858  23.807  1.00  0.00     0.001 A 
HETATM   17  C13 LIG X 999      44.365 130.352  22.912  1.00  0.00     0.012 A 
HETATM   18  C15 LIG X 999      45.294 130.249  20.659  1.00  0.00     0.024 A 
ENDBRANCH   6   9
ENDBRANCH   4   5
ENDBRANCH   3   4
TORSDOF 4
ENDMDL
MODEL 8
REMARK VINA RESULT:      -6.8      2.209      3.676
REMARK  4 active torsions:
REMARK  status: ('A' for Active; 'I' for Inactive)
REMARK    1  A    between atoms: C3_3  and  O1_4 
REMARK    2  A    between atoms: O1_4  and  C4_5 
REMARK    3  A    between atoms: C4_5  and  O2_6 
REMARK    4  A    between atoms: C5_8  and  C6_9 
ROOT
HETATM    1  C1  LIG X 999      47.997 135.342  21.659  1.00  0.00     0.014 C 
HETATM    2  C2  LIG X 999      47.747 134.164  21.610  1.00  0.00    -0.091 C 
HETATM    3  C3  LIG X 999      47.442 132.734  21.548  1.00  0.00     0.270 C 
ENDROOT
BRANCH   3   4
HETATM    4  O1  LIG X 999      46.202 132.553  20.877  1.00  0.00    -0.319 OA
BRANCH   4   5
HETATM    5  C4  LIG X 999      45.174 131.725  21.350  1.00  0.00     0.179 C 
HETATM    6  C5  LIG X 999      44.367 131.092  20.491  1.00  0.00     0.075 C 
BRANCH   5   7
HETATM    7  O2  LIG X 999      44.948 131.562  22.718  1.00  0.00    -0.341 OA
HETATM    8  H4  LIG X 999      44.054 131.757  23.148  1.00  0.00     0.220 HD
ENDBRANCH   5   7
BRANCH   6   9
HETATM    9  C6  LIG X 999      44.492 131.169  19.018  1.00  0.00    -0.031 A 
HETATM   10  C7  LIG X 999      43.475 131.797  18.285  1.00  0.00     0.012 A 
HETATM   11  C8  LIG X 999      43.545 131.878  16.892  1.00  0.00     0.013 A 
HETATM   12  C9  LIG X 999      44.630 131.314  16.206  1.00  0.00    -0.026 A 
HETATM   13  C10 LIG X 999      44.711 131.390  14.807  1.00  0.00     0.012 A 
HETATM   14  C14 LIG X 999      45.650 130.654  16.932  1.00  0.00    -0.025 A 
HETATM   15  C11 LIG X 999      45.794 130.815  14.135  1.00  0.00     0.001 A 
HETATM   16  C12 LIG X 999      46.799 130.160  14.851  1.00  0.00     0.001 A 
HETATM   17  C13 LIG X 999      46.729 130.077  16.245  1.00  0.00     0.012 A 
HETATM   18  C15 LIG X 999      45.570 130.577  18.331  1.00  0.00     0.024 A 
ENDBRANCH   6   9
ENDBRANCH   4   5
ENDBRANCH   3   4
TORSDOF 4
ENDMDL
MODEL 9
REMARK VINA RESULT:      -6.8      1.821      6.736
REMARK  4 active torsions:
REMARK  status: ('A' for Active; 'I' for Inactive)
REMARK    1  A    between atoms: C3_3  and  O1_4 
REMARK    2  A    between atoms: O1_4  and  C4_5 
REMARK    3  A    between atoms: C4_5  and  O2_6 
REMARK    4  A    between atoms: C5_8  and  C6_9 
ROOT
HETATM    1  C1  LIG X 999      47.174 129.748  14.130  1.00  0.00     0.014 C 
HETATM    2  C2  LIG X 999      46.438 129.575  15.069  1.00  0.00    -0.091 C 
HETATM    3  C3  LIG X 999      45.543 129.366  16.207  1.00  0.00     0.270 C 
ENDROOT
BRANCH   3   4
HETATM    4  O1  LIG X 999      44.763 130.537  16.405  1.00  0.00    -0.319 OA
BRANCH   4   5
HETATM    5  C4  LIG X 999      45.307 131.821  16.552  1.00  0.00     0.179 C 
HETATM    6  C5  LIG X 999      45.244 132.451  17.731  1.00  0.00     0.075 C 
BRANCH   5   7
HETATM    7  O2  LIG X 999      45.898 132.484  15.476  1.00  0.00    -0.341 OA
HETATM    8  H4  LIG X 999      46.347 133.385  15.572  1.00  0.00     0.220 HD
ENDBRANCH   5   7
BRANCH   6   9
HETATM    9  C6  LIG X 999      44.650 131.868  18.956  1.00  0.00    -0.031 A 
HETATM   10  C7  LIG X 999      43.432 132.380  19.426  1.00  0.00     0.012 A 
HETATM   11  C8  LIG X 999      42.845 131.871  20.588  1.00  0.00     0.013 A 
HETATM   12  C9  LIG X 999      43.479 130.850  21.310  1.00  0.00    -0.026 A 
HETATM   13  C10 LIG X 999      42.898 130.331  22.477  1.00  0.00     0.012 A 
HETATM   14  C14 LIG X 999      44.723 130.344  20.861  1.00  0.00    -0.025 A 
HETATM   15  C11 LIG X 999      43.546 129.319  23.193  1.00  0.00     0.001 A 
HETATM   16  C12 LIG X 999      44.775 128.822  22.752  1.00  0.00     0.001 A 
HETATM   17  C13 LIG X 999      45.364 129.331  21.591  1.00  0.00     0.012 A 
HETATM   18  C15 LIG X 999      45.305 130.862  19.694  1.00  0.00     0.024 A 
ENDBRANCH   6   9
ENDBRANCH   4   5
ENDBRANCH   3   4
TORSDOF 4
ENDMDL
