REMARK VINA RESULT:      -5.3      4.585      6.183
REMARK  4 active torsions:
REMARK  status: ('A' for Active; 'I' for Inactive)
REMARK    1  A    between atoms: C1_1  and  C2_6 
REMARK    2  A    between atoms: N1_2  and  N2_3 
REMARK    3  A    between atoms: C2_6  and  C3_8 
REMARK    4  A    between atoms: C11_16  and  N4_17 
ROOT
HETATM    1  N4  LIG X 999      44.988 126.868  22.362  1.00  0.00    -0.105 NA
HETATM    2  N5  LIG X 999      46.023 126.217  22.210  1.00  0.00    -0.167 NA
HETATM    3  N6  LIG X 999      47.055 125.567  22.058  1.00  0.00     0.068 N 
ENDROOT
BRANCH   1   4
HETATM    4  C11 LIG X 999      44.518 127.245  23.692  1.00  0.00     0.179 C 
HETATM    5  C10 LIG X 999      43.121 126.696  23.889  1.00  0.00    -0.024 A 
HETATM    6  C5  LIG X 999      41.972 127.515  23.760  1.00  0.00    -0.049 A 
HETATM    7  C9  LIG X 999      42.961 125.317  24.113  1.00  0.00     0.010 A 
HETATM    8  C4  LIG X 999      42.078 129.013  23.597  1.00  0.00     0.051 C 
HETATM    9  C6  LIG X 999      40.697 126.942  23.900  1.00  0.00     0.007 A 
HETATM   10  C3  LIG X 999      43.452 129.455  23.067  1.00  0.00     0.068 C 
HETATM   11  C12 LIG X 999      44.568 128.773  23.874  1.00  0.00     0.048 C 
HETATM   12  C7  LIG X 999      40.556 125.572  24.129  1.00  0.00     0.001 A 
HETATM   13  C8  LIG X 999      41.686 124.761  24.235  1.00  0.00     0.001 A 
BRANCH  10  14
HETATM   14  C2  LIG X 999      43.579 130.957  23.132  1.00  0.00     0.172 C 
HETATM   15  O1  LIG X 999      44.300 131.490  24.020  1.00  0.00    -0.291 OA
BRANCH  14  16
HETATM   16  C1  LIG X 999      42.842 131.809  22.186  1.00  0.00     0.190 C 
HETATM   17  N1  LIG X 999      43.013 131.671  20.910  1.00  0.00    -0.165 NA
BRANCH  17  18
HETATM   18  N2  LIG X 999      42.325 132.468  19.983  1.00  0.00    -0.177 N 
HETATM   19  H2  LIG X 999      41.932 133.397  20.259  1.00  0.00     0.214 HD
HETATM   20  N3  LIG X 999      42.177 132.061  18.790  1.00  0.00    -0.031 N 
ENDBRANCH  17  18
ENDBRANCH  14  16
ENDBRANCH  10  14
ENDBRANCH   1   4
TORSDOF 4
