MODEL 1
REMARK VINA RESULT:      -8.2      0.000      0.000
REMARK  3 active torsions:
REMARK  status: ('A' for Active; 'I' for Inactive)
REMARK    1  A    between atoms: C1_2  and  C2_4 
REMARK       I    between atoms: N1_6  and  C4_7 
REMARK    2  A    between atoms: C4_7  and  C5_9 
REMARK    3  A    between atoms: C6_10  and  C7_11 
ROOT
HETATM    1  C5  LIG X 999      44.598 130.832  20.799  1.00  0.00     0.000 C 
HETATM    2  C6  LIG X 999      44.744 130.914  19.606  1.00  0.00    -0.057 C 
ENDROOT
BRANCH   1   3
HETATM    3  C4  LIG X 999      44.421 130.723  22.222  1.00  0.00     0.300 C 
HETATM    4  N1  LIG X 999      44.619 129.471  22.894  1.00  0.00    -0.317 N 
HETATM    5  C3  LIG X 999      44.992 128.241  22.256  1.00  0.00     0.172 C 
HETATM    6  C17 LIG X 999      44.484 129.276  24.320  1.00  0.00     0.298 C 
HETATM    7  C2  LIG X 999      44.952 127.240  23.403  1.00  0.00     0.242 C 
HETATM    8  O4  LIG X 999      44.846 127.946  24.625  1.00  0.00    -0.354 OA
HETATM    9  O3  LIG X 999      44.089 131.747  22.878  1.00  0.00    -0.258 OA
BRANCH   7  10
HETATM   10  C1  LIG X 999      46.177 126.375  23.420  1.00  0.00     0.204 C 
HETATM   11  O1  LIG X 999      46.839 126.237  24.482  1.00  0.00    -0.646 OA
HETATM   12  O2  LIG X 999      46.558 125.682  22.277  1.00  0.00    -0.646 OA
ENDBRANCH   7  10
ENDBRANCH   1   3
BRANCH   2  13
HETATM   13  C7  LIG X 999      44.919 131.005  18.180  1.00  0.00     0.019 A 
HETATM   14  C8  LIG X 999      44.013 131.746  17.410  1.00  0.00     0.021 A 
HETATM   15  C9  LIG X 999      44.177 131.839  16.026  1.00  0.00     0.013 A 
HETATM   16  C10 LIG X 999      45.251 131.191  15.397  1.00  0.00    -0.026 A 
HETATM   17  C11 LIG X 999      45.425 131.278  14.007  1.00  0.00     0.012 A 
HETATM   18  C15 LIG X 999      46.169 130.441  16.173  1.00  0.00    -0.025 A 
HETATM   19  C12 LIG X 999      46.500 130.628  13.393  1.00  0.00     0.001 A 
HETATM   20  C13 LIG X 999      47.404 129.887  14.158  1.00  0.00     0.001 A 
HETATM   21  C14 LIG X 999      47.243 129.792  15.543  1.00  0.00     0.012 A 
HETATM   22  C16 LIG X 999      45.995 130.353  17.563  1.00  0.00     0.032 A 
ENDBRANCH   2  13
TORSDOF 3
ENDMDL
MODEL 2
REMARK VINA RESULT:      -7.8      2.340      3.420
REMARK  3 active torsions:
REMARK  status: ('A' for Active; 'I' for Inactive)
REMARK    1  A    between atoms: C1_2  and  C2_4 
REMARK       I    between atoms: N1_6  and  C4_7 
REMARK    2  A    between atoms: C4_7  and  C5_9 
REMARK    3  A    between atoms: C6_10  and  C7_11 
ROOT
HETATM    1  C5  LIG X 999      43.494 131.889  18.933  1.00  0.00     0.000 C 
HETATM    2  C6  LIG X 999      44.224 131.430  18.092  1.00  0.00    -0.057 C 
ENDROOT
BRANCH   1   3
HETATM    3  C4  LIG X 999      42.630 132.442  19.941  1.00  0.00     0.300 C 
HETATM    4  N1  LIG X 999      42.650 131.936  21.284  1.00  0.00    -0.317 N 
HETATM    5  C3  LIG X 999      43.487 130.870  21.753  1.00  0.00     0.172 C 
HETATM    6  C17 LIG X 999      41.834 132.445  22.363  1.00  0.00     0.298 C 
HETATM    7  C2  LIG X 999      43.023 130.683  23.191  1.00  0.00     0.242 C 
HETATM    8  O4  LIG X 999      42.193 131.771  23.550  1.00  0.00    -0.354 OA
HETATM    9  O3  LIG X 999      41.851 133.383  19.632  1.00  0.00    -0.258 OA
BRANCH   7  10
HETATM   10  C1  LIG X 999      44.184 130.594  24.136  1.00  0.00     0.204 C 
HETATM   11  O1  LIG X 999      44.655 129.471  24.456  1.00  0.00    -0.646 OA
HETATM   12  O2  LIG X 999      44.777 131.753  24.623  1.00  0.00    -0.646 OA
ENDBRANCH   7  10
ENDBRANCH   1   3
BRANCH   2  13
HETATM   13  C7  LIG X 999      45.101 130.885  17.089  1.00  0.00     0.019 A 
HETATM   14  C8  LIG X 999      45.500 129.545  17.162  1.00  0.00     0.021 A 
HETATM   15  C9  LIG X 999      46.351 129.010  16.191  1.00  0.00     0.013 A 
HETATM   16  C10 LIG X 999      46.813 129.813  15.137  1.00  0.00    -0.026 A 
HETATM   17  C11 LIG X 999      47.668 129.285  14.157  1.00  0.00     0.012 A 
HETATM   18  C15 LIG X 999      46.412 131.169  15.061  1.00  0.00    -0.025 A 
HETATM   19  C12 LIG X 999      48.120 130.096  13.111  1.00  0.00     0.001 A 
HETATM   20  C13 LIG X 999      47.725 131.434  13.037  1.00  0.00     0.001 A 
HETATM   21  C14 LIG X 999      46.873 131.972  14.006  1.00  0.00     0.012 A 
HETATM   22  C16 LIG X 999      45.556 131.697  16.041  1.00  0.00     0.032 A 
ENDBRANCH   2  13
TORSDOF 3
ENDMDL
MODEL 3
REMARK VINA RESULT:      -6.7      1.904      2.224
REMARK  3 active torsions:
REMARK  status: ('A' for Active; 'I' for Inactive)
REMARK    1  A    between atoms: C1_2  and  C2_4 
REMARK       I    between atoms: N1_6  and  C4_7 
REMARK    2  A    between atoms: C4_7  and  C5_9 
REMARK    3  A    between atoms: C6_10  and  C7_11 
ROOT
HETATM    1  C5  LIG X 999      44.050 131.406  20.841  1.00  0.00     0.000 C 
HETATM    2  C6  LIG X 999      44.260 131.353  19.656  1.00  0.00    -0.057 C 
ENDROOT
BRANCH   1   3
HETATM    3  C4  LIG X 999      43.807 131.463  22.258  1.00  0.00     0.300 C 
HETATM    4  N1  LIG X 999      43.043 130.440  22.914  1.00  0.00    -0.317 N 
HETATM    5  C3  LIG X 999      42.457 129.303  22.265  1.00  0.00     0.172 C 
HETATM    6  C17 LIG X 999      42.768 130.406  24.332  1.00  0.00     0.298 C 
HETATM    7  C2  LIG X 999      41.688 128.629  23.394  1.00  0.00     0.242 C 
HETATM    8  O4  LIG X 999      42.076 129.211  24.624  1.00  0.00    -0.354 OA
HETATM    9  O3  LIG X 999      44.277 132.425  22.923  1.00  0.00    -0.258 OA
BRANCH   7  10
HETATM   10  C1  LIG X 999      41.943 127.152  23.427  1.00  0.00     0.204 C 
HETATM   11  O1  LIG X 999      40.987 126.342  23.301  1.00  0.00    -0.646 OA
HETATM   12  O2  LIG X 999      43.241 126.670  23.545  1.00  0.00    -0.646 OA
ENDBRANCH   7  10
ENDBRANCH   1   3
BRANCH   2  13
HETATM   13  C7  LIG X 999      44.515 131.285  18.241  1.00  0.00     0.019 A 
HETATM   14  C8  LIG X 999      43.601 131.842  17.338  1.00  0.00     0.021 A 
HETATM   15  C9  LIG X 999      43.843 131.780  15.963  1.00  0.00     0.013 A 
HETATM   16  C10 LIG X 999      45.004 131.158  15.478  1.00  0.00    -0.026 A 
HETATM   17  C11 LIG X 999      45.256 131.091  14.099  1.00  0.00     0.012 A 
HETATM   18  C15 LIG X 999      45.929 130.593  16.389  1.00  0.00    -0.025 A 
HETATM   19  C12 LIG X 999      46.417 130.469  13.629  1.00  0.00     0.001 A 
HETATM   20  C13 LIG X 999      47.330 129.911  14.527  1.00  0.00     0.001 A 
HETATM   21  C14 LIG X 999      47.090 129.971  15.903  1.00  0.00     0.012 A 
HETATM   22  C16 LIG X 999      45.677 130.660  17.769  1.00  0.00     0.032 A 
ENDBRANCH   2  13
TORSDOF 3
ENDMDL
MODEL 4
REMARK VINA RESULT:      -5.8      3.118      7.764
REMARK  3 active torsions:
REMARK  status: ('A' for Active; 'I' for Inactive)
REMARK    1  A    between atoms: C1_2  and  C2_4 
REMARK       I    between atoms: N1_6  and  C4_7 
REMARK    2  A    between atoms: C4_7  and  C5_9 
REMARK    3  A    between atoms: C6_10  and  C7_11 
ROOT
HETATM    1  C5  LIG X 999      44.472 128.638  22.876  1.00  0.00     0.000 C 
HETATM    2  C6  LIG X 999      45.187 127.679  23.012  1.00  0.00    -0.057 C 
ENDROOT
BRANCH   1   3
HETATM    3  C4  LIG X 999      43.624 129.790  22.719  1.00  0.00     0.300 C 
HETATM    4  N1  LIG X 999      43.805 130.690  21.616  1.00  0.00    -0.317 N 
HETATM    5  C3  LIG X 999      44.805 130.557  20.596  1.00  0.00     0.172 C 
HETATM    6  C17 LIG X 999      42.988 131.857  21.369  1.00  0.00     0.298 C 
HETATM    7  C2  LIG X 999      44.612 131.818  19.766  1.00  0.00     0.242 C 
HETATM    8  O4  LIG X 999      43.399 132.439  20.149  1.00  0.00    -0.354 OA
HETATM    9  O3  LIG X 999      42.713 130.001  23.564  1.00  0.00    -0.258 OA
BRANCH   7  10
HETATM   10  C1  LIG X 999      44.585 131.512  18.299  1.00  0.00     0.204 C 
HETATM   11  O1  LIG X 999      43.519 131.651  17.643  1.00  0.00    -0.646 OA
HETATM   12  O2  LIG X 999      45.748 131.122  17.645  1.00  0.00    -0.646 OA
ENDBRANCH   7  10
ENDBRANCH   1   3
BRANCH   2  13
HETATM   13  C7  LIG X 999      46.048 126.536  23.176  1.00  0.00     0.019 A 
HETATM   14  C8  LIG X 999      46.498 126.178  24.453  1.00  0.00     0.021 A 
HETATM   15  C9  LIG X 999      47.333 125.070  24.620  1.00  0.00     0.013 A 
HETATM   16  C10 LIG X 999      47.726 124.309  23.509  1.00  0.00    -0.026 A 
HETATM   17  C11 LIG X 999      48.564 123.194  23.666  1.00  0.00     0.012 A 
HETATM   18  C15 LIG X 999      47.273 124.670  22.216  1.00  0.00    -0.025 A 
HETATM   19  C12 LIG X 999      48.948 122.444  22.550  1.00  0.00     0.001 A 
HETATM   20  C13 LIG X 999      48.502 122.800  21.275  1.00  0.00     0.001 A 
HETATM   21  C14 LIG X 999      47.666 123.908  21.105  1.00  0.00     0.012 A 
HETATM   22  C16 LIG X 999      46.434 125.785  22.059  1.00  0.00     0.032 A 
ENDBRANCH   2  13
TORSDOF 3
ENDMDL
MODEL 5
REMARK VINA RESULT:      -5.5      6.858      9.050
REMARK  3 active torsions:
REMARK  status: ('A' for Active; 'I' for Inactive)
REMARK    1  A    between atoms: C1_2  and  C2_4 
REMARK       I    between atoms: N1_6  and  C4_7 
REMARK    2  A    between atoms: C4_7  and  C5_9 
REMARK    3  A    between atoms: C6_10  and  C7_11 
ROOT
HETATM    1  C5  LIG X 999      48.987 125.380  22.415  1.00  0.00     0.000 C 
HETATM    2  C6  LIG X 999      47.788 125.260  22.434  1.00  0.00    -0.057 C 
ENDROOT
BRANCH   1   3
HETATM    3  C4  LIG X 999      50.418 125.528  22.402  1.00  0.00     0.300 C 
HETATM    4  N1  LIG X 999      51.212 124.899  21.385  1.00  0.00    -0.317 N 
HETATM    5  C3  LIG X 999      50.697 124.086  20.320  1.00  0.00     0.172 C 
HETATM    6  C17 LIG X 999      52.649 125.011  21.282  1.00  0.00     0.298 C 
HETATM    7  C2  LIG X 999      51.962 123.603  19.623  1.00  0.00     0.242 C 
HETATM    8  O4  LIG X 999      53.065 124.343  20.110  1.00  0.00    -0.354 OA
HETATM    9  O3  LIG X 999      50.971 126.221  23.297  1.00  0.00    -0.258 OA
BRANCH   7  10
HETATM   10  C1  LIG X 999      51.862 123.757  18.135  1.00  0.00     0.204 C 
HETATM   11  O1  LIG X 999      52.445 124.713  17.558  1.00  0.00    -0.646 OA
HETATM   12  O2  LIG X 999      51.169 122.818  17.380  1.00  0.00    -0.646 OA
ENDBRANCH   7  10
ENDBRANCH   1   3
BRANCH   2  13
HETATM   13  C7  LIG X 999      46.356 125.121  22.462  1.00  0.00     0.019 A 
HETATM   14  C8  LIG X 999      45.552 126.224  22.773  1.00  0.00     0.021 A 
HETATM   15  C9  LIG X 999      44.161 126.096  22.802  1.00  0.00     0.013 A 
HETATM   16  C10 LIG X 999      43.560 124.859  22.521  1.00  0.00    -0.026 A 
HETATM   17  C11 LIG X 999      42.163 124.720  22.547  1.00  0.00     0.012 A 
HETATM   18  C15 LIG X 999      44.371 123.741  22.206  1.00  0.00    -0.025 A 
HETATM   19  C12 LIG X 999      41.578 123.482  22.263  1.00  0.00     0.001 A 
HETATM   20  C13 LIG X 999      42.378 122.379  21.954  1.00  0.00     0.001 A 
HETATM   21  C14 LIG X 999      43.770 122.505  21.924  1.00  0.00     0.012 A 
HETATM   22  C16 LIG X 999      45.768 123.881  22.180  1.00  0.00     0.032 A 
ENDBRANCH   2  13
TORSDOF 3
ENDMDL
MODEL 6
REMARK VINA RESULT:      -5.4      4.007      7.486
REMARK  3 active torsions:
REMARK  status: ('A' for Active; 'I' for Inactive)
REMARK    1  A    between atoms: C1_2  and  C2_4 
REMARK       I    between atoms: N1_6  and  C4_7 
REMARK    2  A    between atoms: C4_7  and  C5_9 
REMARK    3  A    between atoms: C6_10  and  C7_11 
ROOT
HETATM    1  C5  LIG X 999      44.568 127.184  23.252  1.00  0.00     0.000 C 
HETATM    2  C6  LIG X 999      45.347 126.339  22.893  1.00  0.00    -0.057 C 
ENDROOT
BRANCH   1   3
HETATM    3  C4  LIG X 999      43.644 128.198  23.687  1.00  0.00     0.300 C 
HETATM    4  N1  LIG X 999      43.645 129.500  23.085  1.00  0.00    -0.317 N 
HETATM    5  C3  LIG X 999      44.527 129.925  22.036  1.00  0.00     0.172 C 
HETATM    6  C17 LIG X 999      42.741 130.569  23.444  1.00  0.00     0.298 C 
HETATM    7  C2  LIG X 999      44.168 131.395  21.866  1.00  0.00     0.242 C 
HETATM    8  O4  LIG X 999      42.975 131.660  22.579  1.00  0.00    -0.354 OA
HETATM    9  O3  LIG X 999      42.827 127.928  24.607  1.00  0.00    -0.258 OA
BRANCH   7  10
HETATM   10  C1  LIG X 999      43.988 131.754  20.422  1.00  0.00     0.204 C 
HETATM   11  O1  LIG X 999      42.834 131.808  19.923  1.00  0.00    -0.646 OA
HETATM   12  O2  LIG X 999      45.091 132.078  19.641  1.00  0.00    -0.646 OA
ENDBRANCH   7  10
ENDBRANCH   1   3
BRANCH   2  13
HETATM   13  C7  LIG X 999      46.283 125.330  22.468  1.00  0.00     0.019 A 
HETATM   14  C8  LIG X 999      45.822 124.063  22.091  1.00  0.00     0.021 A 
HETATM   15  C9  LIG X 999      46.724 123.080  21.677  1.00  0.00     0.013 A 
HETATM   16  C10 LIG X 999      48.100 123.355  21.639  1.00  0.00    -0.026 A 
HETATM   17  C11 LIG X 999      49.015 122.375  21.225  1.00  0.00     0.012 A 
HETATM   18  C15 LIG X 999      48.569 124.636  22.021  1.00  0.00    -0.025 A 
HETATM   19  C12 LIG X 999      50.383 122.664  21.190  1.00  0.00     0.001 A 
HETATM   20  C13 LIG X 999      50.846 123.926  21.568  1.00  0.00     0.001 A 
HETATM   21  C14 LIG X 999      49.945 124.912  21.982  1.00  0.00     0.012 A 
HETATM   22  C16 LIG X 999      47.654 125.618  22.435  1.00  0.00     0.032 A 
ENDBRANCH   2  13
TORSDOF 3
ENDMDL
