REMARK VINA RESULT:      -5.0      1.966      2.835
REMARK  5 active torsions:
REMARK  status: ('A' for Active; 'I' for Inactive)
REMARK    1  A    between atoms: C3_3  and  C4_4 
REMARK    2  A    between atoms: C4_4  and  S1_5 
REMARK    3  A    between atoms: S1_5  and  C5_6 
REMARK    4  A    between atoms: C6_7  and  N1_8 
REMARK    5  A    between atoms: C10_12  and  N2_13 
ROOT
HETATM    1  C1  LIG X 999      46.368 126.007  22.007  1.00  0.00     0.112 C 
HETATM    2  C2  LIG X 999      45.585 127.165  22.436  1.00  0.00    -0.110 C 
HETATM    3  C3  LIG X 999      44.937 128.110  22.808  1.00  0.00    -0.097 C 
ENDROOT
BRANCH   3   4
HETATM    4  C4  LIG X 999      44.143 129.247  23.283  1.00  0.00     0.173 C 
BRANCH   4   5
HETATM    5  S1  LIG X 999      44.991 130.820  22.910  1.00  0.00    -0.115 SA
BRANCH   5   6
HETATM    6  C5  LIG X 999      43.604 131.536  21.986  1.00  0.00     0.038 A 
HETATM    7  C6  LIG X 999      42.517 132.102  22.687  1.00  0.00     0.043 A 
HETATM    8  C7  LIG X 999      41.464 132.686  21.980  1.00  0.00     0.031 A 
HETATM    9  C8  LIG X 999      41.472 132.735  20.589  1.00  0.00     0.017 A 
HETATM   10  C9  LIG X 999      42.539 132.189  19.854  1.00  0.00     0.002 A 
HETATM   11  C10 LIG X 999      42.572 132.243  18.428  1.00  0.00     0.045 A 
HETATM   12  C14 LIG X 999      43.602 131.542  20.564  1.00  0.00    -0.004 A 
HETATM   13  C11 LIG X 999      43.638 131.619  17.766  1.00  0.00     0.003 A 
HETATM   14  C12 LIG X 999      44.626 130.980  18.445  1.00  0.00    -0.021 A 
HETATM   15  C18 LIG X 999      43.896 131.541  16.305  1.00  0.00     0.278 C 
HETATM   16  C13 LIG X 999      44.637 130.917  19.831  1.00  0.00     0.023 A 
HETATM   17  C15 LIG X 999      45.627 130.409  17.518  1.00  0.00     0.276 C 
HETATM   18  N3  LIG X 999      45.233 130.883  16.155  1.00  0.00    -0.067 N 
HETATM   19  C16 LIG X 999      45.151 129.746  15.211  1.00  0.00     0.272 C 
HETATM   20  C17 LIG X 999      46.228 131.859  15.649  1.00  0.00     0.272 C 
BRANCH   7  21
HETATM   21  N1  LIG X 999      42.459 132.094  24.121  1.00  0.00    -0.398 N 
HETATM   22  H6  LIG X 999      43.001 131.388  24.669  1.00  0.00     0.156 HD
HETATM   23  H7  LIG X 999      41.891 132.779  24.665  1.00  0.00     0.156 HD
ENDBRANCH   7  21
BRANCH  11  24
HETATM   24  N2  LIG X 999      41.570 132.929  17.657  1.00  0.00    -0.398 N 
HETATM   25  H10 LIG X 999      41.506 132.850  16.621  1.00  0.00     0.156 HD
HETATM   26  H11 LIG X 999      40.795 133.445  18.129  1.00  0.00     0.156 HD
ENDBRANCH  11  24
ENDBRANCH   5   6
ENDBRANCH   4   5
ENDBRANCH   3   4
TORSDOF 5
