REMARK VINA RESULT:      -8.5      0.000      0.000
REMARK  1 active torsions:
REMARK  status: ('A' for Active; 'I' for Inactive)
REMARK    1  A    between atoms: N1_1  and  C1_2 
ROOT
HETATM    1  C1  LIG X 999      45.502 130.696  15.368  1.00  0.00     0.103 A 
HETATM    2  C2  LIG X 999      46.113 130.380  16.586  1.00  0.00     0.049 A 
HETATM    3  C3  LIG X 999      45.483 130.724  17.786  1.00  0.00     0.001 A 
HETATM    4  C4  LIG X 999      46.067 130.423  19.023  1.00  0.00     0.015 A 
HETATM    5  C5  LIG X 999      45.420 130.776  20.208  1.00  0.00     0.013 A 
HETATM    6  C6  LIG X 999      44.182 131.434  20.173  1.00  0.00    -0.023 A 
HETATM    7  C7  LIG X 999      43.534 131.788  21.367  1.00  0.00     0.012 A 
HETATM    8  C8  LIG X 999      42.302 132.444  21.331  1.00  0.00     0.001 A 
HETATM    9  C9  LIG X 999      41.707 132.752  20.106  1.00  0.00     0.001 A 
HETATM   10  C10 LIG X 999      42.339 132.406  18.909  1.00  0.00     0.015 A 
HETATM   11  C11 LIG X 999      43.581 131.745  18.926  1.00  0.00     0.009 A 
HETATM   12  C12 LIG X 999      44.237 131.388  17.731  1.00  0.00     0.101 A 
HETATM   13  O1  LIG X 999      43.690 131.670  16.549  1.00  0.00    -0.272 OA
HETATM   14  C13 LIG X 999      44.263 131.356  15.391  1.00  0.00     0.314 A 
HETATM   15  O2  LIG X 999      43.681 131.657  14.316  1.00  0.00    -0.257 OA
ENDROOT
BRANCH   1  16
HETATM   16  N1  LIG X 999      46.139 130.347  14.134  1.00  0.00    -0.394 N 
HETATM   17  H1  LIG X 999      45.591 130.251  13.250  1.00  0.00     0.156 HD
HETATM   18  H2  LIG X 999      47.170 130.181  14.093  1.00  0.00     0.156 HD
ENDBRANCH   1  16
TORSDOF 1
