REMARK VINA RESULT:      -4.1      2.085      3.132
REMARK  5 active torsions:
REMARK  status: ('A' for Active; 'I' for Inactive)
REMARK    1  A    between atoms: C3_3  and  O1_4 
REMARK    2  A    between atoms: O1_4  and  C4_5 
REMARK    3  A    between atoms: C5_6  and  C6_7 
REMARK    4  A    between atoms: C6_7  and  O2_8 
REMARK    5  A    between atoms: C17_20  and  N1_21 
ROOT
HETATM    1  C1  LIG X 999      45.908 132.448  20.979  1.00  0.00     0.014 C 
HETATM    2  C2  LIG X 999      45.679 131.267  21.056  1.00  0.00    -0.091 C 
HETATM    3  C3  LIG X 999      45.401 129.834  21.151  1.00  0.00     0.268 C 
ENDROOT
BRANCH   3   4
HETATM    4  O1  LIG X 999      45.023 129.516  22.486  1.00  0.00    -0.337 OA
BRANCH   4   5
HETATM    5  C4  LIG X 999      44.145 128.463  22.759  1.00  0.00     0.106 C 
HETATM    6  C5  LIG X 999      42.786 128.731  23.013  1.00  0.00     0.012 C 
HETATM    7  C7  LIG X 999      41.942 127.675  23.445  1.00  0.00    -0.014 C 
HETATM    8  C8  LIG X 999      40.609 127.925  23.850  1.00  0.00     0.013 C 
HETATM    9  C12 LIG X 999      42.452 126.346  23.526  1.00  0.00    -0.012 C 
HETATM   10  C9  LIG X 999      39.832 126.918  24.415  1.00  0.00     0.001 C 
HETATM   11  C10 LIG X 999      40.375 125.658  24.625  1.00  0.00     0.001 C 
HETATM   12  C11 LIG X 999      41.676 125.379  24.209  1.00  0.00     0.013 C 
HETATM   13  C13 LIG X 999      43.754 126.055  23.014  1.00  0.00     0.011 C 
HETATM   14  C14 LIG X 999      44.237 124.741  22.719  1.00  0.00    -0.045 C 
HETATM   15  C18 LIG X 999      44.629 127.141  22.748  1.00  0.00     0.080 C 
HETATM   16  C15 LIG X 999      43.349 123.539  22.499  1.00  0.00     0.049 C 
HETATM   17  C16 LIG X 999      45.601 124.555  22.461  1.00  0.00     0.061 C 
HETATM   18  C17 LIG X 999      46.455 125.654  22.352  1.00  0.00     0.165 C 
HETATM   19  N4  LIG X 999      45.943 126.907  22.451  1.00  0.00    -0.336 N 
HETATM   20  H15 LIG X 999      46.601 127.703  22.287  1.00  0.00     0.168 HD
BRANCH   6  21
HETATM   21  C6  LIG X 999      42.261 130.148  22.861  1.00  0.00     0.206 C 
BRANCH  21  22
HETATM   22  O2  LIG X 999      43.141 131.042  23.486  1.00  0.00    -0.396 OA
HETATM   23  H6  LIG X 999      42.740 131.944  23.379  1.00  0.00     0.209 HD
ENDBRANCH  21  22
ENDBRANCH   6  21
BRANCH  18  24
HETATM   24  N1  LIG X 999      47.853 125.493  22.068  1.00  0.00    -0.054 NA
HETATM   25  N2  LIG X 999      48.313 124.461  21.576  1.00  0.00    -0.160 NA
HETATM   26  N3  LIG X 999      48.775 123.431  21.086  1.00  0.00     0.068 N 
ENDBRANCH  18  24
ENDBRANCH   4   5
ENDBRANCH   3   4
TORSDOF 5
