MODEL 1
REMARK VINA RESULT:      -8.2      0.000      0.000
REMARK  3 active torsions:
REMARK  status: ('A' for Active; 'I' for Inactive)
REMARK    1  A    between atoms: C6_6  and  C7_7 
REMARK    2  A    between atoms: C7_7  and  C8_9 
REMARK    3  A    between atoms: C8_9  and  N1_10 
ROOT
HETATM    1  N1  LIG X 999      46.782 131.341  13.885  1.00  0.00    -0.108 NA
HETATM    2  N2  LIG X 999      47.551 130.401  13.683  1.00  0.00    -0.167 NA
HETATM    3  N3  LIG X 999      48.320 129.462  13.481  1.00  0.00     0.068 N 
ENDROOT
BRANCH   1   4
HETATM    4  C8  LIG X 999      46.434 131.751  15.241  1.00  0.00     0.272 C 
BRANCH   4   5
HETATM    5  C7  LIG X 999      44.987 131.449  15.540  1.00  0.00     0.181 C 
HETATM    6  O1  LIG X 999      44.225 131.107  14.594  1.00  0.00    -0.290 OA
BRANCH   5   7
HETATM    7  C6  LIG X 999      44.446 131.520  16.924  1.00  0.00     0.012 A 
HETATM    8  C5  LIG X 999      45.261 131.266  18.046  1.00  0.00     0.027 A 
HETATM    9  C4  LIG X 999      44.735 131.336  19.345  1.00  0.00    -0.025 A 
HETATM   10  C3  LIG X 999      45.548 131.083  20.462  1.00  0.00     0.012 A 
HETATM   11  C11 LIG X 999      43.373 131.665  19.534  1.00  0.00    -0.026 A 
HETATM   12  C2  LIG X 999      45.014 131.156  21.751  1.00  0.00     0.001 A 
HETATM   13  C1  LIG X 999      43.667 131.481  21.937  1.00  0.00     0.001 A 
HETATM   14  C12 LIG X 999      42.847 131.735  20.834  1.00  0.00     0.012 A 
HETATM   15  C10 LIG X 999      42.560 131.915  18.421  1.00  0.00     0.013 A 
HETATM   16  C9  LIG X 999      43.091 131.843  17.131  1.00  0.00     0.016 A 
ENDBRANCH   5   7
ENDBRANCH   4   5
ENDBRANCH   1   4
TORSDOF 3
ENDMDL
MODEL 2
REMARK VINA RESULT:      -8.1      0.749      1.855
REMARK  3 active torsions:
REMARK  status: ('A' for Active; 'I' for Inactive)
REMARK    1  A    between atoms: C6_6  and  C7_7 
REMARK    2  A    between atoms: C7_7  and  C8_9 
REMARK    3  A    between atoms: C8_9  and  N1_10 
ROOT
HETATM    1  N1  LIG X 999      46.230 130.714  14.111  1.00  0.00    -0.108 NA
HETATM    2  N2  LIG X 999      47.250 130.129  13.747  1.00  0.00    -0.167 NA
HETATM    3  N3  LIG X 999      48.269 129.545  13.383  1.00  0.00     0.068 N 
ENDROOT
BRANCH   1   4
HETATM    4  C8  LIG X 999      46.232 131.568  15.293  1.00  0.00     0.272 C 
BRANCH   4   5
HETATM    5  C7  LIG X 999      44.902 131.511  16.001  1.00  0.00     0.181 C 
HETATM    6  O1  LIG X 999      43.842 131.571  15.319  1.00  0.00    -0.290 OA
BRANCH   5   7
HETATM    7  C6  LIG X 999      44.811 131.360  17.479  1.00  0.00     0.012 A 
HETATM    8  C5  LIG X 999      43.723 131.884  18.206  1.00  0.00     0.027 A 
HETATM    9  C4  LIG X 999      43.653 131.733  19.600  1.00  0.00    -0.025 A 
HETATM   10  C3  LIG X 999      42.567 132.255  20.322  1.00  0.00     0.012 A 
HETATM   11  C11 LIG X 999      44.683 131.049  20.284  1.00  0.00    -0.026 A 
HETATM   12  C2  LIG X 999      42.508 132.099  21.710  1.00  0.00     0.001 A 
HETATM   13  C1  LIG X 999      43.527 131.422  22.386  1.00  0.00     0.001 A 
HETATM   14  C12 LIG X 999      44.612 130.898  21.678  1.00  0.00     0.012 A 
HETATM   15  C10 LIG X 999      45.767 130.529  19.565  1.00  0.00     0.013 A 
HETATM   16  C9  LIG X 999      45.829 130.684  18.178  1.00  0.00     0.016 A 
ENDBRANCH   5   7
ENDBRANCH   4   5
ENDBRANCH   1   4
TORSDOF 3
ENDMDL
MODEL 3
REMARK VINA RESULT:      -8.0      4.074      6.496
REMARK  3 active torsions:
REMARK  status: ('A' for Active; 'I' for Inactive)
REMARK    1  A    between atoms: C6_6  and  C7_7 
REMARK    2  A    between atoms: C7_7  and  C8_9 
REMARK    3  A    between atoms: C8_9  and  N1_10 
ROOT
HETATM    1  N1  LIG X 999      43.358 132.047  20.402  1.00  0.00    -0.108 NA
HETATM    2  N2  LIG X 999      43.316 131.328  21.400  1.00  0.00    -0.167 NA
HETATM    3  N3  LIG X 999      43.273 130.609  22.397  1.00  0.00     0.068 N 
ENDROOT
BRANCH   1   4
HETATM    4  C8  LIG X 999      44.520 132.045  19.520  1.00  0.00     0.272 C 
BRANCH   4   5
HETATM    5  C7  LIG X 999      44.116 131.741  18.099  1.00  0.00     0.181 C 
HETATM    6  O1  LIG X 999      42.952 132.043  17.715  1.00  0.00    -0.290 OA
BRANCH   5   7
HETATM    7  C6  LIG X 999      45.065 131.120  17.135  1.00  0.00     0.012 A 
HETATM    8  C5  LIG X 999      45.424 131.769  15.936  1.00  0.00     0.027 A 
HETATM    9  C4  LIG X 999      46.319 131.168  15.037  1.00  0.00    -0.025 A 
HETATM   10  C3  LIG X 999      46.676 131.816  13.843  1.00  0.00     0.012 A 
HETATM   11  C11 LIG X 999      46.868 129.900  15.335  1.00  0.00    -0.026 A 
HETATM   12  C2  LIG X 999      47.569 131.209  12.955  1.00  0.00     0.001 A 
HETATM   13  C1  LIG X 999      48.111 129.955  13.250  1.00  0.00     0.001 A 
HETATM   14  C12 LIG X 999      47.764 129.301  14.435  1.00  0.00     0.012 A 
HETATM   15  C10 LIG X 999      46.511 129.253  16.524  1.00  0.00     0.013 A 
HETATM   16  C9  LIG X 999      45.619 129.856  17.414  1.00  0.00     0.016 A 
ENDBRANCH   5   7
ENDBRANCH   4   5
ENDBRANCH   1   4
TORSDOF 3
ENDMDL
MODEL 4
REMARK VINA RESULT:      -8.0      4.130      6.515
REMARK  3 active torsions:
REMARK  status: ('A' for Active; 'I' for Inactive)
REMARK    1  A    between atoms: C6_6  and  C7_7 
REMARK    2  A    between atoms: C7_7  and  C8_9 
REMARK    3  A    between atoms: C8_9  and  N1_10 
ROOT
HETATM    1  N1  LIG X 999      43.656 132.236  20.194  1.00  0.00    -0.108 NA
HETATM    2  N2  LIG X 999      43.519 131.690  21.288  1.00  0.00    -0.167 NA
HETATM    3  N3  LIG X 999      43.382 131.144  22.382  1.00  0.00     0.068 N 
ENDROOT
BRANCH   1   4
HETATM    4  C8  LIG X 999      43.634 131.463  18.957  1.00  0.00     0.272 C 
BRANCH   4   5
HETATM    5  C7  LIG X 999      45.007 130.934  18.628  1.00  0.00     0.181 C 
HETATM    6  O1  LIG X 999      45.668 130.344  19.527  1.00  0.00    -0.290 OA
BRANCH   5   7
HETATM    7  C6  LIG X 999      45.588 131.069  17.264  1.00  0.00     0.012 A 
HETATM    8  C5  LIG X 999      46.342 130.029  16.681  1.00  0.00     0.027 A 
HETATM    9  C4  LIG X 999      46.883 130.172  15.394  1.00  0.00    -0.025 A 
HETATM   10  C3  LIG X 999      47.633 129.136  14.814  1.00  0.00     0.012 A 
HETATM   11  C11 LIG X 999      46.673 131.370  14.673  1.00  0.00    -0.026 A 
HETATM   12  C2  LIG X 999      48.168 129.289  13.532  1.00  0.00     0.001 A 
HETATM   13  C1  LIG X 999      47.959 130.474  12.819  1.00  0.00     0.001 A 
HETATM   14  C12 LIG X 999      47.215 131.512  13.386  1.00  0.00     0.012 A 
HETATM   15  C10 LIG X 999      45.927 132.405  15.251  1.00  0.00     0.013 A 
HETATM   16  C9  LIG X 999      45.391 132.255  16.533  1.00  0.00     0.016 A 
ENDBRANCH   5   7
ENDBRANCH   4   5
ENDBRANCH   1   4
TORSDOF 3
ENDMDL
MODEL 5
REMARK VINA RESULT:      -7.8      4.317      6.216
REMARK  3 active torsions:
REMARK  status: ('A' for Active; 'I' for Inactive)
REMARK    1  A    between atoms: C6_6  and  C7_7 
REMARK    2  A    between atoms: C7_7  and  C8_9 
REMARK    3  A    between atoms: C8_9  and  N1_10 
ROOT
HETATM    1  N1  LIG X 999      42.942 131.013  21.595  1.00  0.00    -0.108 NA
HETATM    2  N2  LIG X 999      43.731 130.238  22.136  1.00  0.00    -0.167 NA
HETATM    3  N3  LIG X 999      44.520 129.463  22.675  1.00  0.00     0.068 N 
ENDROOT
BRANCH   1   4
HETATM    4  C8  LIG X 999      43.417 132.139  20.800  1.00  0.00     0.272 C 
BRANCH   4   5
HETATM    5  C7  LIG X 999      43.051 131.965  19.347  1.00  0.00     0.181 C 
HETATM    6  O1  LIG X 999      41.883 132.260  18.970  1.00  0.00    -0.290 OA
BRANCH   5   7
HETATM    7  C6  LIG X 999      44.040 131.480  18.347  1.00  0.00     0.012 A 
HETATM    8  C5  LIG X 999      43.854 131.693  16.966  1.00  0.00     0.027 A 
HETATM    9  C4  LIG X 999      44.796 131.229  16.035  1.00  0.00    -0.025 A 
HETATM   10  C3  LIG X 999      44.609 131.443  14.660  1.00  0.00     0.012 A 
HETATM   11  C11 LIG X 999      45.945 130.538  16.484  1.00  0.00    -0.026 A 
HETATM   12  C2  LIG X 999      45.554 130.976  13.742  1.00  0.00     0.001 A 
HETATM   13  C1  LIG X 999      46.689 130.293  14.187  1.00  0.00     0.001 A 
HETATM   14  C12 LIG X 999      46.887 130.074  15.553  1.00  0.00     0.012 A 
HETATM   15  C10 LIG X 999      46.131 130.322  17.856  1.00  0.00     0.013 A 
HETATM   16  C9  LIG X 999      45.189 130.788  18.776  1.00  0.00     0.016 A 
ENDBRANCH   5   7
ENDBRANCH   4   5
ENDBRANCH   1   4
TORSDOF 3
ENDMDL
MODEL 6
REMARK VINA RESULT:      -7.7      4.770      6.515
REMARK  3 active torsions:
REMARK  status: ('A' for Active; 'I' for Inactive)
REMARK    1  A    between atoms: C6_6  and  C7_7 
REMARK    2  A    between atoms: C7_7  and  C8_9 
REMARK    3  A    between atoms: C8_9  and  N1_10 
ROOT
HETATM    1  N1  LIG X 999      43.147 130.807  22.115  1.00  0.00    -0.108 NA
HETATM    2  N2  LIG X 999      43.111 131.351  23.219  1.00  0.00    -0.167 NA
HETATM    3  N3  LIG X 999      43.075 131.893  24.322  1.00  0.00     0.068 N 
ENDROOT
BRANCH   1   4
HETATM    4  C8  LIG X 999      43.290 131.592  20.894  1.00  0.00     0.272 C 
BRANCH   4   5
HETATM    5  C7  LIG X 999      44.567 131.240  20.174  1.00  0.00     0.181 C 
HETATM    6  O1  LIG X 999      45.588 130.935  20.852  1.00  0.00    -0.290 OA
BRANCH   5   7
HETATM    7  C6  LIG X 999      44.645 131.219  18.688  1.00  0.00     0.012 A 
HETATM    8  C5  LIG X 999      45.749 130.653  18.018  1.00  0.00     0.027 A 
HETATM    9  C4  LIG X 999      45.806 130.642  16.615  1.00  0.00    -0.025 A 
HETATM   10  C3  LIG X 999      46.907 130.078  15.949  1.00  0.00     0.012 A 
HETATM   11  C11 LIG X 999      44.748 131.203  15.864  1.00  0.00    -0.026 A 
HETATM   12  C2  LIG X 999      46.954 130.072  14.552  1.00  0.00     0.001 A 
HETATM   13  C1  LIG X 999      45.907 130.627  13.811  1.00  0.00     0.001 A 
HETATM   14  C12 LIG X 999      44.807 131.191  14.462  1.00  0.00     0.012 A 
HETATM   15  C10 LIG X 999      43.652 131.768  16.528  1.00  0.00     0.013 A 
HETATM   16  C9  LIG X 999      43.601 131.776  17.924  1.00  0.00     0.016 A 
ENDBRANCH   5   7
ENDBRANCH   4   5
ENDBRANCH   1   4
TORSDOF 3
ENDMDL
MODEL 7
REMARK VINA RESULT:      -7.1      4.910      6.678
REMARK  3 active torsions:
REMARK  status: ('A' for Active; 'I' for Inactive)
REMARK    1  A    between atoms: C6_6  and  C7_7 
REMARK    2  A    between atoms: C7_7  and  C8_9 
REMARK    3  A    between atoms: C8_9  and  N1_10 
ROOT
HETATM    1  N1  LIG X 999      43.433 130.125  22.442  1.00  0.00    -0.108 NA
HETATM    2  N2  LIG X 999      42.745 129.981  23.453  1.00  0.00    -0.167 NA
HETATM    3  N3  LIG X 999      42.058 129.838  24.463  1.00  0.00     0.068 N 
ENDROOT
BRANCH   1   4
HETATM    4  C8  LIG X 999      43.919 131.441  22.041  1.00  0.00     0.272 C 
BRANCH   4   5
HETATM    5  C7  LIG X 999      43.400 131.813  20.676  1.00  0.00     0.181 C 
HETATM    6  O1  LIG X 999      42.323 132.465  20.587  1.00  0.00    -0.290 OA
BRANCH   5   7
HETATM    7  C6  LIG X 999      44.140 131.454  19.436  1.00  0.00     0.012 A 
HETATM    8  C5  LIG X 999      43.616 131.740  18.158  1.00  0.00     0.027 A 
HETATM    9  C4  LIG X 999      44.327 131.394  16.998  1.00  0.00    -0.025 A 
HETATM   10  C3  LIG X 999      43.804 131.679  15.727  1.00  0.00     0.012 A 
HETATM   11  C11 LIG X 999      45.582 130.752  17.109  1.00  0.00    -0.026 A 
HETATM   12  C2  LIG X 999      44.520 131.331  14.578  1.00  0.00     0.001 A 
HETATM   13  C1  LIG X 999      45.761 130.696  14.689  1.00  0.00     0.001 A 
HETATM   14  C12 LIG X 999      46.292 130.406  15.949  1.00  0.00     0.012 A 
HETATM   15  C10 LIG X 999      46.103 130.464  18.377  1.00  0.00     0.013 A 
HETATM   16  C9  LIG X 999      45.390 130.812  19.527  1.00  0.00     0.016 A 
ENDBRANCH   5   7
ENDBRANCH   4   5
ENDBRANCH   1   4
TORSDOF 3
ENDMDL
MODEL 8
REMARK VINA RESULT:      -6.2      5.593      6.995
REMARK  3 active torsions:
REMARK  status: ('A' for Active; 'I' for Inactive)
REMARK    1  A    between atoms: C6_6  and  C7_7 
REMARK    2  A    between atoms: C7_7  and  C8_9 
REMARK    3  A    between atoms: C8_9  and  N1_10 
ROOT
HETATM    1  N1  LIG X 999      42.375 129.374  23.276  1.00  0.00    -0.108 NA
HETATM    2  N2  LIG X 999      41.681 128.444  23.685  1.00  0.00    -0.167 NA
HETATM    3  N3  LIG X 999      40.987 127.514  24.095  1.00  0.00     0.068 N 
ENDROOT
BRANCH   1   4
HETATM    4  C8  LIG X 999      42.862 130.407  24.183  1.00  0.00     0.272 C 
BRANCH   4   5
HETATM    5  C7  LIG X 999      43.698 131.422  23.445  1.00  0.00     0.181 C 
HETATM    6  O1  LIG X 999      44.453 132.190  24.104  1.00  0.00    -0.290 OA
BRANCH   5   7
HETATM    7  C6  LIG X 999      43.674 131.520  21.960  1.00  0.00     0.012 A 
HETATM    8  C5  LIG X 999      44.733 131.021  21.173  1.00  0.00     0.027 A 
HETATM    9  C4  LIG X 999      44.695 131.122  19.774  1.00  0.00    -0.025 A 
HETATM   10  C3  LIG X 999      45.750 130.625  18.992  1.00  0.00     0.012 A 
HETATM   11  C11 LIG X 999      43.585 131.731  19.143  1.00  0.00    -0.026 A 
HETATM   12  C2  LIG X 999      45.702 130.731  17.599  1.00  0.00     0.001 A 
HETATM   13  C1  LIG X 999      44.604 131.332  16.977  1.00  0.00     0.001 A 
HETATM   14  C12 LIG X 999      43.548 131.831  17.744  1.00  0.00     0.012 A 
HETATM   15  C10 LIG X 999      42.534 132.229  19.923  1.00  0.00     0.013 A 
HETATM   16  C9  LIG X 999      42.579 132.125  21.315  1.00  0.00     0.016 A 
ENDBRANCH   5   7
ENDBRANCH   4   5
ENDBRANCH   1   4
TORSDOF 3
ENDMDL
MODEL 9
REMARK VINA RESULT:      -6.1      1.601      2.472
REMARK  3 active torsions:
REMARK  status: ('A' for Active; 'I' for Inactive)
REMARK    1  A    between atoms: C6_6  and  C7_7 
REMARK    2  A    between atoms: C7_7  and  C8_9 
REMARK    3  A    between atoms: C8_9  and  N1_10 
ROOT
HETATM    1  N1  LIG X 999      45.603 130.539  16.365  1.00  0.00    -0.108 NA
HETATM    2  N2  LIG X 999      45.832 130.723  15.169  1.00  0.00    -0.167 NA
HETATM    3  N3  LIG X 999      46.060 130.906  13.975  1.00  0.00     0.068 N 
ENDROOT
BRANCH   1   4
HETATM    4  C8  LIG X 999      45.382 131.661  17.271  1.00  0.00     0.272 C 
BRANCH   4   5
HETATM    5  C7  LIG X 999      43.946 131.710  17.727  1.00  0.00     0.181 C 
HETATM    6  O1  LIG X 999      43.028 131.715  16.860  1.00  0.00    -0.290 OA
BRANCH   5   7
HETATM    7  C6  LIG X 999      43.587 131.725  19.171  1.00  0.00     0.012 A 
HETATM    8  C5  LIG X 999      44.282 130.936  20.110  1.00  0.00     0.027 A 
HETATM    9  C4  LIG X 999      43.930 130.962  21.468  1.00  0.00    -0.025 A 
HETATM   10  C3  LIG X 999      44.624 130.175  22.402  1.00  0.00     0.012 A 
HETATM   11  C11 LIG X 999      42.867 131.787  21.903  1.00  0.00    -0.026 A 
HETATM   12  C2  LIG X 999      44.265 130.209  23.753  1.00  0.00     0.001 A 
HETATM   13  C1  LIG X 999      43.214 131.025  24.181  1.00  0.00     0.001 A 
HETATM   14  C12 LIG X 999      42.516 131.812  23.262  1.00  0.00     0.012 A 
HETATM   15  C10 LIG X 999      42.174 132.570  20.972  1.00  0.00     0.013 A 
HETATM   16  C9  LIG X 999      42.530 132.539  19.621  1.00  0.00     0.016 A 
ENDBRANCH   5   7
ENDBRANCH   4   5
ENDBRANCH   1   4
TORSDOF 3
ENDMDL
