REMARK VINA RESULT:      -6.3      4.036      5.990
REMARK  3 active torsions:
REMARK  status: ('A' for Active; 'I' for Inactive)
REMARK    1  A    between atoms: C6_6  and  C7_7 
REMARK    2  A    between atoms: C7_7  and  C8_9 
REMARK    3  A    between atoms: C8_9  and  N1_10 
ROOT
HETATM    1  N1  LIG X 999      47.137 132.533  21.310  1.00  0.00    -0.108 NA
HETATM    2  N2  LIG X 999      47.572 133.620  21.694  1.00  0.00    -0.167 NA
HETATM    3  N3  LIG X 999      48.005 134.705  22.077  1.00  0.00     0.068 N 
ENDROOT
BRANCH   1   4
HETATM    4  C8  LIG X 999      45.706 132.253  21.314  1.00  0.00     0.272 C 
BRANCH   4   5
HETATM    5  C7  LIG X 999      45.380 131.026  20.498  1.00  0.00     0.181 C 
HETATM    6  O1  LIG X 999      45.307 129.908  21.077  1.00  0.00    -0.290 OA
BRANCH   5   7
HETATM    7  C6  LIG X 999      45.092 131.112  19.042  1.00  0.00     0.012 A 
HETATM    8  C5  LIG X 999      46.013 130.593  18.112  1.00  0.00     0.027 A 
HETATM    9  C4  LIG X 999      45.758 130.664  16.734  1.00  0.00    -0.025 A 
HETATM   10  C3  LIG X 999      46.680 130.151  15.808  1.00  0.00     0.012 A 
HETATM   11  C11 LIG X 999      44.561 131.259  16.272  1.00  0.00    -0.026 A 
HETATM   12  C2  LIG X 999      46.415 130.226  14.438  1.00  0.00     0.001 A 
HETATM   13  C1  LIG X 999      45.231 130.813  13.982  1.00  0.00     0.001 A 
HETATM   14  C12 LIG X 999      44.305 131.328  14.893  1.00  0.00     0.012 A 
HETATM   15  C10 LIG X 999      43.640 131.769  17.196  1.00  0.00     0.013 A 
HETATM   16  C9  LIG X 999      43.902 131.696  18.566  1.00  0.00     0.016 A 
ENDBRANCH   5   7
ENDBRANCH   4   5
ENDBRANCH   1   4
TORSDOF 3
