REMARK VINA RESULT:      -6.0      1.761      2.556
REMARK  6 active torsions:
REMARK  status: ('A' for Active; 'I' for Inactive)
REMARK    1  A    between atoms: S1_2  and  C1_3 
REMARK    2  A    between atoms: C1_3  and  N2_15 
REMARK    3  A    between atoms: N1_4  and  C2_5 
REMARK    4  A    between atoms: N2_15  and  C12_18 
REMARK    5  A    between atoms: C13_19  and  C14_20 
REMARK    6  A    between atoms: C14_20  and  O2_22 
ROOT
HETATM    1  C1  LIG X 999      44.153 130.860  22.871  1.00  0.00     0.266 C 
HETATM    2  N1  LIG X 999      43.953 131.861  22.061  1.00  0.00    -0.219 NA
ENDROOT
BRANCH   1   3
HETATM    3  S1  LIG X 999      44.286 131.203  24.624  1.00  0.00    -0.098 SA
HETATM    4  H1  LIG X 999      44.306 132.592  24.402  1.00  0.00     0.110 HD
ENDBRANCH   1   3
BRANCH   1   5
HETATM    5  N2  LIG X 999      44.226 129.494  22.405  1.00  0.00     0.010 N 
HETATM    6  H9  LIG X 999      45.195 129.129  22.552  1.00  0.00     0.293 HD
HETATM    7  H10 LIG X 999      44.042 129.487  21.381  1.00  0.00     0.293 HD
BRANCH   5   8
HETATM    8  C12 LIG X 999      43.317 128.651  23.146  1.00  0.00     0.164 A 
HETATM    9  C13 LIG X 999      43.611 127.357  23.614  1.00  0.00     0.114 A 
HETATM   10  S2  LIG X 999      42.221 126.744  24.336  1.00  0.00    -0.094 SA
HETATM   11  C16 LIG X 999      41.251 128.094  24.109  1.00  0.00     0.053 A 
HETATM   12  C17 LIG X 999      42.001 129.057  23.452  1.00  0.00     0.046 A 
BRANCH   9  13
HETATM   13  C14 LIG X 999      44.878 126.606  23.561  1.00  0.00     0.302 C 
HETATM   14  O1  LIG X 999      45.215 125.834  24.500  1.00  0.00    -0.259 OA
BRANCH  13  15
HETATM   15  O2  LIG X 999      45.688 126.725  22.429  1.00  0.00    -0.322 OA
HETATM   16  C15 LIG X 999      46.813 125.886  22.195  1.00  0.00     0.213 C 
ENDBRANCH  13  15
ENDBRANCH   9  13
ENDBRANCH   5   8
ENDBRANCH   1   5
BRANCH   2  17
HETATM   17  C2  LIG X 999      43.860 131.760  20.635  1.00  0.00     0.060 A 
HETATM   18  C3  LIG X 999      42.670 132.117  19.993  1.00  0.00     0.032 A 
HETATM   19  C4  LIG X 999      42.559 132.016  18.604  1.00  0.00     0.014 A 
HETATM   20  C5  LIG X 999      43.651 131.580  17.840  1.00  0.00    -0.026 A 
HETATM   21  C6  LIG X 999      43.553 131.474  16.444  1.00  0.00     0.012 A 
HETATM   22  C10 LIG X 999      44.868 131.245  18.484  1.00  0.00    -0.024 A 
HETATM   23  C7  LIG X 999      44.654 131.052  15.693  1.00  0.00     0.001 A 
HETATM   24  C8  LIG X 999      45.857 130.729  16.328  1.00  0.00     0.001 A 
HETATM   25  C9  LIG X 999      45.966 130.822  17.719  1.00  0.00     0.012 A 
HETATM   26  C11 LIG X 999      44.964 131.339  19.880  1.00  0.00     0.044 A 
ENDBRANCH   2  17
TORSDOF 6
