REMARK VINA RESULT:      -5.9      1.187      1.356
REMARK  1 active torsions:
REMARK  status: ('A' for Active; 'I' for Inactive)
REMARK    1  A    between atoms: C2_5  and  C3_6 
ROOT
HETATM    1  C3  LIG X 999      45.211 130.490  18.968  1.00  0.00     0.028 A 
HETATM    2  C4  LIG X 999      45.971 129.716  19.858  1.00  0.00     0.017 A 
HETATM    3  C5  LIG X 999      45.703 129.728  21.226  1.00  0.00     0.002 A 
HETATM    4  C6  LIG X 999      44.664 130.509  21.730  1.00  0.00     0.012 A 
HETATM    5  C7  LIG X 999      43.864 131.266  20.864  1.00  0.00    -0.025 A 
HETATM    6  C8  LIG X 999      42.800 132.024  21.378  1.00  0.00     0.012 A 
HETATM    7  C9  LIG X 999      41.971 132.746  20.519  1.00  0.00     0.001 A 
HETATM    8  C10 LIG X 999      42.188 132.707  19.142  1.00  0.00     0.001 A 
HETATM    9  C11 LIG X 999      43.245 131.963  18.613  1.00  0.00     0.013 A 
HETATM   10  C12 LIG X 999      44.119 131.251  19.465  1.00  0.00    -0.011 A 
ENDROOT
BRANCH   1  11
HETATM   11  C2  LIG X 999      45.612 130.484  17.545  1.00  0.00     0.177 A 
HETATM   12  O1  LIG X 999      46.077 129.426  16.913  1.00  0.00    -0.258 OA
HETATM   13  C1  LIG X 999      46.352 129.856  15.701  1.00  0.00     0.260 A 
HETATM   14  N1  LIG X 999      46.833 129.115  14.757  1.00  0.00    -0.261 NA
HETATM   15  N3  LIG X 999      46.078 131.162  15.564  1.00  0.00    -0.262 N 
HETATM   16  H1  LIG X 999      47.030 128.102  14.919  1.00  0.00     0.190 HD
HETATM   17  N2  LIG X 999      45.613 131.564  16.734  1.00  0.00    -0.276 N 
HETATM   18  H10 LIG X 999      46.211 131.766  14.722  1.00  0.00     0.190 HD
HETATM   19  H9  LIG X 999      45.346 132.545  16.968  1.00  0.00     0.189 HD
ENDBRANCH   1  11
TORSDOF 1
