REMARK VINA RESULT:      -5.1      2.805      4.938
REMARK  1 active torsions:
REMARK  status: ('A' for Active; 'I' for Inactive)
REMARK    1  A    between atoms: C7_7  and  N1_8 
ROOT
HETATM    1  N1  LIG X 999      45.966 131.735  14.715  1.00  0.00    -0.110 NA
HETATM    2  N2  LIG X 999      46.786 131.370  13.871  1.00  0.00    -0.167 NA
HETATM    3  N3  LIG X 999      47.604 131.006  13.029  1.00  0.00     0.068 N 
ENDROOT
BRANCH   1   4
HETATM    4  C7  LIG X 999      46.117 131.371  16.122  1.00  0.00     0.153 C 
HETATM    5  C6  LIG X 999      46.044 129.834  16.274  1.00  0.00     0.031 C 
HETATM    6  C5  LIG X 999      45.617 129.374  17.683  1.00  0.00     0.003 C 
HETATM    7  C4  LIG X 999      45.999 130.393  18.761  1.00  0.00     0.009 C 
HETATM    8  C3  LIG X 999      45.343 131.779  18.521  1.00  0.00     0.018 C 
HETATM    9  C2  LIG X 999      44.115 131.943  19.387  1.00  0.00    -0.021 C 
HETATM   10  C8  LIG X 999      45.064 132.081  17.010  1.00  0.00     0.043 C 
HETATM   11  C1  LIG X 999      42.881 131.840  18.895  1.00  0.00    -0.004 C 
HETATM   12  C10 LIG X 999      42.650 131.651  17.457  1.00  0.00    -0.004 C 
HETATM   13  C9  LIG X 999      43.653 131.717  16.582  1.00  0.00    -0.019 C 
ENDBRANCH   1   4
TORSDOF 1
