REMARK VINA RESULT:      -5.1      2.813      4.343
REMARK  3 active torsions:
REMARK  status: ('A' for Active; 'I' for Inactive)
REMARK    1  A    between atoms: C2_2  and  N1_3 
REMARK       I    between atoms: N2_8  and  C7_9 
REMARK    2  A    between atoms: C7_9  and  C8_11 
REMARK    3  A    between atoms: C9_12  and  C10_13 
ROOT
HETATM    1  C8  LIG X 999      45.131 129.289  21.609  1.00  0.00     0.001 C 
HETATM    2  C9  LIG X 999      45.210 129.802  20.521  1.00  0.00    -0.057 C 
ENDROOT
BRANCH   1   3
HETATM    3  C7  LIG X 999      45.035 128.663  22.901  1.00  0.00     0.313 C 
HETATM    4  N2  LIG X 999      45.420 127.292  23.084  1.00  0.00    -0.269 N 
HETATM    5  N1  LIG X 999      45.743 126.460  21.993  1.00  0.00    -0.226 NA
HETATM    6  C6  LIG X 999      45.887 126.816  24.374  1.00  0.00     0.153 C 
HETATM    7  C3  LIG X 999      46.783 125.556  22.519  1.00  0.00     0.119 C 
HETATM    8  C4  LIG X 999      46.709 125.575  24.054  1.00  0.00     0.016 C 
HETATM    9  C5  LIG X 999      46.076 124.298  24.619  1.00  0.00     0.013 C 
HETATM   10  O1  LIG X 999      44.634 129.346  23.881  1.00  0.00    -0.257 OA
BRANCH   5  11
HETATM   11  C2  LIG X 999      44.539 125.697  21.598  1.00  0.00     0.109 C 
HETATM   12  C1  LIG X 999      43.456 125.768  22.670  1.00  0.00     0.023 C 
ENDBRANCH   5  11
ENDBRANCH   1   3
BRANCH   2  13
HETATM   13  C10 LIG X 999      45.305 130.404  19.218  1.00  0.00     0.019 A 
HETATM   14  C11 LIG X 999      44.716 131.651  18.978  1.00  0.00     0.021 A 
HETATM   15  C12 LIG X 999      44.803 132.240  17.713  1.00  0.00     0.013 A 
HETATM   16  C13 LIG X 999      45.481 131.583  16.675  1.00  0.00    -0.026 A 
HETATM   17  C14 LIG X 999      45.575 132.165  15.401  1.00  0.00     0.012 A 
HETATM   18  C18 LIG X 999      46.077 130.322  16.916  1.00  0.00    -0.025 A 
HETATM   19  C15 LIG X 999      46.253 131.500  14.375  1.00  0.00     0.001 A 
HETATM   20  C16 LIG X 999      46.842 130.255  14.612  1.00  0.00     0.001 A 
HETATM   21  C17 LIG X 999      46.756 129.665  15.877  1.00  0.00     0.012 A 
HETATM   22  C19 LIG X 999      45.985 129.739  18.189  1.00  0.00     0.032 A 
ENDBRANCH   2  13
TORSDOF 3
