MODEL 1
REMARK VINA RESULT:      -5.7      0.000      0.000
REMARK  5 active torsions:
REMARK  status: ('A' for Active; 'I' for Inactive)
REMARK    1  A    between atoms: C3_3  and  O1_4 
REMARK    2  A    between atoms: O1_4  and  C4_5 
REMARK    3  A    between atoms: C5_6  and  C6_7 
REMARK    4  A    between atoms: C6_7  and  O2_8 
REMARK    5  A    between atoms: C17_20  and  N1_21 
ROOT
HETATM    1  C1  LIG X 999      43.215 131.232  23.647  1.00  0.00     0.014 C 
HETATM    2  C2  LIG X 999      42.645 130.266  24.088  1.00  0.00    -0.091 C 
HETATM    3  C3  LIG X 999      41.952 129.089  24.623  1.00  0.00     0.268 C 
ENDROOT
BRANCH   3   4
HETATM    4  O1  LIG X 999      41.218 128.430  23.592  1.00  0.00    -0.336 OA
BRANCH   4   5
HETATM    5  C4  LIG X 999      41.003 127.045  23.600  1.00  0.00     0.108 C 
HETATM    6  C5  LIG X 999      39.716 126.519  23.824  1.00  0.00     0.012 C 
HETATM    7  C7  LIG X 999      39.560 125.113  23.962  1.00  0.00    -0.014 C 
HETATM    8  C8  LIG X 999      38.312 124.540  24.308  1.00  0.00     0.013 C 
HETATM    9  C12 LIG X 999      40.691 124.251  23.802  1.00  0.00    -0.012 C 
HETATM   10  C9  LIG X 999      38.201 123.183  24.594  1.00  0.00     0.001 C 
HETATM   11  C10 LIG X 999      39.328 122.375  24.582  1.00  0.00     0.001 C 
HETATM   12  C11 LIG X 999      40.563 122.905  24.214  1.00  0.00     0.013 C 
HETATM   13  C13 LIG X 999      41.927 124.790  23.330  1.00  0.00     0.013 C 
HETATM   14  C14 LIG X 999      43.018 124.020  22.809  1.00  0.00    -0.045 C 
HETATM   15  C18 LIG X 999      42.085 126.198  23.341  1.00  0.00     0.105 C 
HETATM   16  C15 LIG X 999      42.894 122.599  22.314  1.00  0.00     0.049 C 
HETATM   17  C16 LIG X 999      44.258 124.642  22.595  1.00  0.00     0.063 C 
HETATM   18  C17 LIG X 999      44.387 126.025  22.751  1.00  0.00     0.186 C 
HETATM   19  N4  LIG X 999      43.296 126.756  23.075  1.00  0.00    -0.223 NA
BRANCH   6  20
HETATM   20  C6  LIG X 999      38.529 127.468  23.880  1.00  0.00     0.206 C 
BRANCH  20  21
HETATM   21  O2  LIG X 999      37.685 127.242  22.783  1.00  0.00    -0.396 OA
HETATM   22  H6  LIG X 999      36.769 127.505  23.057  1.00  0.00     0.209 HD
ENDBRANCH  20  21
ENDBRANCH   6  20
BRANCH  18  23
HETATM   23  N1  LIG X 999      45.629 126.702  22.519  1.00  0.00    -0.052 NA
HETATM   24  N2  LIG X 999      46.673 126.097  22.270  1.00  0.00    -0.160 NA
HETATM   25  N3  LIG X 999      47.717 125.495  22.021  1.00  0.00     0.068 N 
ENDBRANCH  18  23
ENDBRANCH   4   5
ENDBRANCH   3   4
TORSDOF 5
ENDMDL
MODEL 2
REMARK VINA RESULT:      -5.6      1.458      1.955
REMARK  5 active torsions:
REMARK  status: ('A' for Active; 'I' for Inactive)
REMARK    1  A    between atoms: C3_3  and  O1_4 
REMARK    2  A    between atoms: O1_4  and  C4_5 
REMARK    3  A    between atoms: C5_6  and  C6_7 
REMARK    4  A    between atoms: C6_7  and  O2_8 
REMARK    5  A    between atoms: C17_20  and  N1_21 
ROOT
HETATM    1  C1  LIG X 999      43.999 130.903  22.388  1.00  0.00     0.014 C 
HETATM    2  C2  LIG X 999      44.283 129.779  22.714  1.00  0.00    -0.091 C 
HETATM    3  C3  LIG X 999      44.627 128.409  23.109  1.00  0.00     0.268 C 
ENDROOT
BRANCH   3   4
HETATM    4  O1  LIG X 999      43.681 127.909  24.054  1.00  0.00    -0.336 OA
BRANCH   4   5
HETATM    5  C4  LIG X 999      42.907 126.769  23.800  1.00  0.00     0.108 C 
HETATM    6  C5  LIG X 999      41.522 126.769  24.056  1.00  0.00     0.012 C 
HETATM    7  C7  LIG X 999      40.795 125.555  23.918  1.00  0.00    -0.014 C 
HETATM    8  C8  LIG X 999      39.428 125.470  24.277  1.00  0.00     0.013 C 
HETATM    9  C12 LIG X 999      41.458 124.375  23.457  1.00  0.00    -0.012 C 
HETATM   10  C9  LIG X 999      38.764 124.248  24.289  1.00  0.00     0.001 C 
HETATM   11  C10 LIG X 999      39.450 123.081  23.983  1.00  0.00     0.001 C 
HETATM   12  C11 LIG X 999      40.786 123.139  23.594  1.00  0.00     0.013 C 
HETATM   13  C13 LIG X 999      42.798 124.465  22.969  1.00  0.00     0.013 C 
HETATM   14  C14 LIG X 999      43.458 123.466  22.180  1.00  0.00    -0.045 C 
HETATM   15  C18 LIG X 999      43.531 125.644  23.252  1.00  0.00     0.105 C 
HETATM   16  C15 LIG X 999      42.743 122.375  21.420  1.00  0.00     0.049 C 
HETATM   17  C16 LIG X 999      44.841 123.567  21.960  1.00  0.00     0.063 C 
HETATM   18  C17 LIG X 999      45.539 124.702  22.382  1.00  0.00     0.186 C 
HETATM   19  N4  LIG X 999      44.860 125.712  22.971  1.00  0.00    -0.223 NA
BRANCH   6  20
HETATM   20  C6  LIG X 999      40.841 128.074  24.440  1.00  0.00     0.206 C 
BRANCH  20  21
HETATM   21  O2  LIG X 999      41.233 129.094  23.561  1.00  0.00    -0.396 OA
HETATM   22  H6  LIG X 999      40.664 129.883  23.753  1.00  0.00     0.209 HD
ENDBRANCH  20  21
ENDBRANCH   6  20
BRANCH  18  23
HETATM   23  N1  LIG X 999      46.946 124.855  22.155  1.00  0.00    -0.052 NA
HETATM   24  N2  LIG X 999      47.558 124.177  21.329  1.00  0.00    -0.160 NA
HETATM   25  N3  LIG X 999      48.172 123.500  20.505  1.00  0.00     0.068 N 
ENDBRANCH  18  23
ENDBRANCH   4   5
ENDBRANCH   3   4
TORSDOF 5
ENDMDL
MODEL 3
REMARK VINA RESULT:      -5.4      2.867      4.992
REMARK  5 active torsions:
REMARK  status: ('A' for Active; 'I' for Inactive)
REMARK    1  A    between atoms: C3_3  and  O1_4 
REMARK    2  A    between atoms: O1_4  and  C4_5 
REMARK    3  A    between atoms: C5_6  and  C6_7 
REMARK    4  A    between atoms: C6_7  and  O2_8 
REMARK    5  A    between atoms: C17_20  and  N1_21 
ROOT
HETATM    1  C1  LIG X 999      49.207 125.211  22.379  1.00  0.00     0.014 C 
HETATM    2  C2  LIG X 999      48.131 125.462  22.862  1.00  0.00    -0.091 C 
HETATM    3  C3  LIG X 999      46.822 125.766  23.450  1.00  0.00     0.268 C 
ENDROOT
BRANCH   3   4
HETATM    4  O1  LIG X 999      45.802 125.710  22.454  1.00  0.00    -0.336 OA
BRANCH   4   5
HETATM    5  C4  LIG X 999      44.459 125.477  22.776  1.00  0.00     0.108 C 
HETATM    6  C5  LIG X 999      43.965 124.163  22.894  1.00  0.00     0.012 C 
HETATM    7  C7  LIG X 999      42.571 123.964  23.085  1.00  0.00    -0.014 C 
HETATM    8  C8  LIG X 999      42.005 122.666  23.090  1.00  0.00     0.013 C 
HETATM    9  C12 LIG X 999      41.703 125.092  23.225  1.00  0.00    -0.012 C 
HETATM   10  C9  LIG X 999      40.626 122.485  23.120  1.00  0.00     0.001 C 
HETATM   11  C10 LIG X 999      39.780 123.584  23.107  1.00  0.00     0.001 C 
HETATM   12  C11 LIG X 999      40.309 124.872  23.135  1.00  0.00     0.013 C 
HETATM   13  C13 LIG X 999      42.262 126.401  23.352  1.00  0.00     0.013 C 
HETATM   14  C14 LIG X 999      41.559 127.557  23.826  1.00  0.00    -0.045 C 
HETATM   15  C18 LIG X 999      43.628 126.575  23.016  1.00  0.00     0.105 C 
HETATM   16  C15 LIG X 999      40.278 127.503  24.625  1.00  0.00     0.049 C 
HETATM   17  C16 LIG X 999      42.146 128.824  23.687  1.00  0.00     0.063 C 
HETATM   18  C17 LIG X 999      43.459 128.942  23.222  1.00  0.00     0.186 C 
HETATM   19  N4  LIG X 999      44.164 127.823  22.945  1.00  0.00    -0.223 NA
BRANCH   6  20
HETATM   20  C6  LIG X 999      44.943 122.999  22.846  1.00  0.00     0.206 C 
BRANCH  20  21
HETATM   21  O2  LIG X 999      45.618 122.993  21.617  1.00  0.00    -0.396 OA
HETATM   22  H6  LIG X 999      46.326 122.300  21.673  1.00  0.00     0.209 HD
ENDBRANCH  20  21
ENDBRANCH   6  20
BRANCH  18  23
HETATM   23  N1  LIG X 999      44.104 130.216  23.088  1.00  0.00    -0.052 NA
HETATM   24  N2  LIG X 999      44.572 130.609  22.018  1.00  0.00    -0.160 NA
HETATM   25  N3  LIG X 999      45.041 131.003  20.951  1.00  0.00     0.068 N 
ENDBRANCH  18  23
ENDBRANCH   4   5
ENDBRANCH   3   4
TORSDOF 5
ENDMDL
MODEL 4
REMARK VINA RESULT:      -4.7      1.981      3.135
REMARK  5 active torsions:
REMARK  status: ('A' for Active; 'I' for Inactive)
REMARK    1  A    between atoms: C3_3  and  O1_4 
REMARK    2  A    between atoms: O1_4  and  C4_5 
REMARK    3  A    between atoms: C5_6  and  C6_7 
REMARK    4  A    between atoms: C6_7  and  O2_8 
REMARK    5  A    between atoms: C17_20  and  N1_21 
ROOT
HETATM    1  C1  LIG X 999      44.807 131.466  20.689  1.00  0.00     0.014 C 
HETATM    2  C2  LIG X 999      45.133 130.376  21.084  1.00  0.00    -0.091 C 
HETATM    3  C3  LIG X 999      45.527 129.047  21.564  1.00  0.00     0.268 C 
ENDROOT
BRANCH   3   4
HETATM    4  O1  LIG X 999      44.937 128.779  22.835  1.00  0.00    -0.336 OA
BRANCH   4   5
HETATM    5  C4  LIG X 999      44.012 127.744  23.023  1.00  0.00     0.108 C 
HETATM    6  C5  LIG X 999      42.669 128.028  23.338  1.00  0.00     0.012 C 
HETATM    7  C7  LIG X 999      41.793 126.955  23.657  1.00  0.00    -0.014 C 
HETATM    8  C8  LIG X 999      40.468 127.190  24.098  1.00  0.00     0.013 C 
HETATM    9  C12 LIG X 999      42.263 125.606  23.585  1.00  0.00    -0.012 C 
HETATM   10  C9  LIG X 999      39.669 126.148  24.557  1.00  0.00     0.001 C 
HETATM   11  C10 LIG X 999      40.178 124.860  24.624  1.00  0.00     0.001 C 
HETATM   12  C11 LIG X 999      41.466 124.593  24.167  1.00  0.00     0.013 C 
HETATM   13  C13 LIG X 999      43.549 125.336  23.023  1.00  0.00     0.013 C 
HETATM   14  C14 LIG X 999      44.004 124.050  22.582  1.00  0.00    -0.045 C 
HETATM   15  C18 LIG X 999      44.440 126.424  22.852  1.00  0.00     0.105 C 
HETATM   16  C15 LIG X 999      43.092 122.886  22.273  1.00  0.00     0.049 C 
HETATM   17  C16 LIG X 999      45.359 123.872  22.265  1.00  0.00     0.063 C 
HETATM   18  C17 LIG X 999      46.225 124.969  22.242  1.00  0.00     0.186 C 
HETATM   19  N4  LIG X 999      45.733 126.203  22.492  1.00  0.00    -0.223 NA
BRANCH   6  20
HETATM   20  C6  LIG X 999      42.189 129.471  23.297  1.00  0.00     0.206 C 
BRANCH  20  21
HETATM   21  O2  LIG X 999      43.143 130.308  23.893  1.00  0.00    -0.396 OA
HETATM   22  H6  LIG X 999      42.811 131.239  23.808  1.00  0.00     0.209 HD
ENDBRANCH  20  21
ENDBRANCH   6  20
BRANCH  18  23
HETATM   23  N1  LIG X 999      47.611 124.834  21.900  1.00  0.00    -0.052 NA
HETATM   24  N2  LIG X 999      48.003 124.057  21.028  1.00  0.00    -0.160 NA
HETATM   25  N3  LIG X 999      48.396 123.281  20.158  1.00  0.00     0.068 N 
ENDBRANCH  18  23
ENDBRANCH   4   5
ENDBRANCH   3   4
TORSDOF 5
ENDMDL
MODEL 5
REMARK VINA RESULT:      -3.8      6.978     10.002
REMARK  5 active torsions:
REMARK  status: ('A' for Active; 'I' for Inactive)
REMARK    1  A    between atoms: C3_3  and  O1_4 
REMARK    2  A    between atoms: O1_4  and  C4_5 
REMARK    3  A    between atoms: C5_6  and  C6_7 
REMARK    4  A    between atoms: C6_7  and  O2_8 
REMARK    5  A    between atoms: C17_20  and  N1_21 
ROOT
HETATM    1  C1  LIG X 999      51.729 129.316  24.568  1.00  0.00     0.014 C 
HETATM    2  C2  LIG X 999      52.151 128.206  24.361  1.00  0.00    -0.091 C 
HETATM    3  C3  LIG X 999      52.663 126.856  24.106  1.00  0.00     0.268 C 
ENDROOT
BRANCH   3   4
HETATM    4  O1  LIG X 999      51.610 125.897  24.198  1.00  0.00    -0.336 OA
BRANCH   4   5
HETATM    5  C4  LIG X 999      51.174 125.161  23.088  1.00  0.00     0.108 C 
HETATM    6  C5  LIG X 999      52.091 124.450  22.291  1.00  0.00     0.012 C 
HETATM    7  C7  LIG X 999      51.632 123.831  21.097  1.00  0.00    -0.014 C 
HETATM    8  C8  LIG X 999      52.530 123.207  20.197  1.00  0.00     0.013 C 
HETATM    9  C12 LIG X 999      50.243 123.875  20.759  1.00  0.00    -0.012 C 
HETATM   10  C9  LIG X 999      52.099 122.741  18.960  1.00  0.00     0.001 C 
HETATM   11  C10 LIG X 999      50.779 122.918  18.572  1.00  0.00     0.001 C 
HETATM   12  C11 LIG X 999      49.866 123.499  19.450  1.00  0.00     0.013 C 
HETATM   13  C13 LIG X 999      49.303 124.384  21.708  1.00  0.00     0.013 C 
HETATM   14  C14 LIG X 999      47.884 124.185  21.651  1.00  0.00    -0.045 C 
HETATM   15  C18 LIG X 999      49.804 125.116  22.812  1.00  0.00     0.105 C 
HETATM   16  C15 LIG X 999      47.209 123.106  20.839  1.00  0.00     0.049 C 
HETATM   17  C16 LIG X 999      47.052 124.924  22.507  1.00  0.00     0.063 C 
HETATM   18  C17 LIG X 999      47.608 125.737  23.498  1.00  0.00     0.186 C 
HETATM   19  N4  LIG X 999      48.952 125.773  23.644  1.00  0.00    -0.223 NA
BRANCH   6  20
HETATM   20  C6  LIG X 999      53.538 124.340  22.748  1.00  0.00     0.206 C 
BRANCH  20  21
HETATM   21  O2  LIG X 999      53.623 123.496  23.865  1.00  0.00    -0.396 OA
HETATM   22  H6  LIG X 999      52.794 123.625  24.394  1.00  0.00     0.209 HD
ENDBRANCH  20  21
ENDBRANCH   6  20
BRANCH  18  23
HETATM   23  N1  LIG X 999      46.794 126.489  24.407  1.00  0.00    -0.052 NA
HETATM   24  N2  LIG X 999      45.765 127.065  24.050  1.00  0.00    -0.160 NA
HETATM   25  N3  LIG X 999      44.737 127.640  23.695  1.00  0.00     0.068 N 
ENDBRANCH  18  23
ENDBRANCH   4   5
ENDBRANCH   3   4
TORSDOF 5
ENDMDL
MODEL 6
REMARK VINA RESULT:      -3.3      3.973      6.361
REMARK  5 active torsions:
REMARK  status: ('A' for Active; 'I' for Inactive)
REMARK    1  A    between atoms: C3_3  and  O1_4 
REMARK    2  A    between atoms: O1_4  and  C4_5 
REMARK    3  A    between atoms: C5_6  and  C6_7 
REMARK    4  A    between atoms: C6_7  and  O2_8 
REMARK    5  A    between atoms: C17_20  and  N1_21 
ROOT
HETATM    1  C1  LIG X 999      45.746 131.666  16.637  1.00  0.00     0.014 C 
HETATM    2  C2  LIG X 999      45.737 130.751  17.422  1.00  0.00    -0.091 C 
HETATM    3  C3  LIG X 999      45.724 129.638  18.377  1.00  0.00     0.268 C 
ENDROOT
BRANCH   3   4
HETATM    4  O1  LIG X 999      46.105 130.090  19.676  1.00  0.00    -0.336 OA
BRANCH   4   5
HETATM    5  C4  LIG X 999      45.217 130.078  20.759  1.00  0.00     0.108 C 
HETATM    6  C5  LIG X 999      44.298 131.128  20.947  1.00  0.00     0.012 C 
HETATM    7  C7  LIG X 999      43.509 131.152  22.129  1.00  0.00    -0.014 C 
HETATM    8  C8  LIG X 999      42.658 132.244  22.426  1.00  0.00     0.013 C 
HETATM    9  C12 LIG X 999      43.606 130.081  23.072  1.00  0.00    -0.012 C 
HETATM   10  C9  LIG X 999      42.010 132.336  23.653  1.00  0.00     0.001 C 
HETATM   11  C10 LIG X 999      42.222 131.369  24.625  1.00  0.00     0.001 C 
HETATM   12  C11 LIG X 999      43.028 130.267  24.349  1.00  0.00     0.013 C 
HETATM   13  C13 LIG X 999      44.357 128.912  22.737  1.00  0.00     0.013 C 
HETATM   14  C14 LIG X 999      44.270 127.653  23.416  1.00  0.00    -0.045 C 
HETATM   15  C18 LIG X 999      45.236 128.983  21.628  1.00  0.00     0.105 C 
HETATM   16  C15 LIG X 999      43.120 127.245  24.305  1.00  0.00     0.049 C 
HETATM   17  C16 LIG X 999      45.220 126.657  23.142  1.00  0.00     0.063 C 
HETATM   18  C17 LIG X 999      46.153 126.839  22.117  1.00  0.00     0.186 C 
HETATM   19  N4  LIG X 999      46.104 127.967  21.374  1.00  0.00    -0.223 NA
BRANCH   6  20
HETATM   20  C6  LIG X 999      44.154 132.187  19.864  1.00  0.00     0.206 C 
BRANCH  20  21
HETATM   21  O2  LIG X 999      43.016 131.924  19.087  1.00  0.00    -0.396 OA
HETATM   22  H6  LIG X 999      42.332 131.534  19.691  1.00  0.00     0.209 HD
ENDBRANCH  20  21
ENDBRANCH   6  20
BRANCH  18  23
HETATM   23  N1  LIG X 999      47.125 125.837  21.789  1.00  0.00    -0.052 NA
HETATM   24  N2  LIG X 999      46.973 124.650  22.081  1.00  0.00    -0.160 NA
HETATM   25  N3  LIG X 999      46.823 123.464  22.373  1.00  0.00     0.068 N 
ENDBRANCH  18  23
ENDBRANCH   4   5
ENDBRANCH   3   4
TORSDOF 5
ENDMDL
MODEL 7
REMARK VINA RESULT:      -2.9      2.868      5.278
REMARK  5 active torsions:
REMARK  status: ('A' for Active; 'I' for Inactive)
REMARK    1  A    between atoms: C3_3  and  O1_4 
REMARK    2  A    between atoms: O1_4  and  C4_5 
REMARK    3  A    between atoms: C5_6  and  C6_7 
REMARK    4  A    between atoms: C6_7  and  O2_8 
REMARK    5  A    between atoms: C17_20  and  N1_21 
ROOT
HETATM    1  C1  LIG X 999      48.448 124.804  21.427  1.00  0.00     0.014 C 
HETATM    2  C2  LIG X 999      47.554 125.116  22.172  1.00  0.00    -0.091 C 
HETATM    3  C3  LIG X 999      46.464 125.494  23.078  1.00  0.00     0.268 C 
ENDROOT
BRANCH   3   4
HETATM    4  O1  LIG X 999      45.589 126.427  22.446  1.00  0.00    -0.336 OA
BRANCH   4   5
HETATM    5  C4  LIG X 999      44.320 126.725  22.960  1.00  0.00     0.108 C 
HETATM    6  C5  LIG X 999      43.525 125.717  23.539  1.00  0.00     0.012 C 
HETATM    7  C7  LIG X 999      42.192 126.026  23.923  1.00  0.00    -0.014 C 
HETATM    8  C8  LIG X 999      41.310 125.025  24.398  1.00  0.00     0.013 C 
HETATM    9  C12 LIG X 999      41.701 127.362  23.784  1.00  0.00    -0.012 C 
HETATM   10  C9  LIG X 999      39.966 125.301  24.623  1.00  0.00     0.001 C 
HETATM   11  C10 LIG X 999      39.459 126.562  24.347  1.00  0.00     0.001 C 
HETATM   12  C11 LIG X 999      40.309 127.575  23.910  1.00  0.00     0.013 C 
HETATM   13  C13 LIG X 999      42.605 128.412  23.430  1.00  0.00     0.013 C 
HETATM   14  C14 LIG X 999      42.341 129.813  23.581  1.00  0.00    -0.045 C 
HETATM   15  C18 LIG X 999      43.876 128.050  22.920  1.00  0.00     0.105 C 
HETATM   16  C15 LIG X 999      41.271 130.384  24.480  1.00  0.00     0.049 C 
HETATM   17  C16 LIG X 999      43.209 130.743  22.986  1.00  0.00     0.063 C 
HETATM   18  C17 LIG X 999      44.391 130.312  22.377  1.00  0.00     0.186 C 
HETATM   19  N4  LIG X 999      44.703 128.997  22.402  1.00  0.00    -0.223 NA
BRANCH   6  20
HETATM   20  C6  LIG X 999      44.127 124.339  23.765  1.00  0.00     0.206 C 
BRANCH  20  21
HETATM   21  O2  LIG X 999      43.710 123.463  22.752  1.00  0.00    -0.396 OA
HETATM   22  H6  LIG X 999      43.048 123.951  22.196  1.00  0.00     0.209 HD
ENDBRANCH  20  21
ENDBRANCH   6  20
BRANCH  18  23
HETATM   23  N1  LIG X 999      45.315 131.231  21.780  1.00  0.00    -0.052 NA
HETATM   24  N2  LIG X 999      45.450 131.331  20.560  1.00  0.00    -0.160 NA
HETATM   25  N3  LIG X 999      45.587 131.433  19.342  1.00  0.00     0.068 N 
ENDBRANCH  18  23
ENDBRANCH   4   5
ENDBRANCH   3   4
TORSDOF 5
ENDMDL
