REMARK VINA RESULT:      -6.2      2.714      6.375
REMARK  2 active torsions:
REMARK  status: ('A' for Active; 'I' for Inactive)
REMARK    1  A    between atoms: C3_3  and  S1_4 
REMARK    2  A    between atoms: S1_4  and  C4_5 
ROOT
HETATM    1  C1  LIG X 999      44.097 128.246  24.160  1.00  0.00     0.013 C 
HETATM    2  C2  LIG X 999      43.412 129.130  23.709  1.00  0.00    -0.107 C 
HETATM    3  C3  LIG X 999      42.583 130.205  23.158  1.00  0.00     0.172 C 
ENDROOT
BRANCH   3   4
HETATM    4  S1  LIG X 999      43.562 131.735  22.987  1.00  0.00    -0.118 SA
BRANCH   4   5
HETATM    5  C4  LIG X 999      43.584 131.705  21.191  1.00  0.00     0.002 A 
HETATM    6  C5  LIG X 999      42.489 132.196  20.471  1.00  0.00     0.019 A 
HETATM    7  C6  LIG X 999      42.498 132.177  19.074  1.00  0.00     0.013 A 
HETATM    8  C7  LIG X 999      43.608 131.669  18.383  1.00  0.00    -0.026 A 
HETATM    9  C8  LIG X 999      43.628 131.642  16.980  1.00  0.00     0.012 A 
HETATM   10  C12 LIG X 999      44.721 131.178  19.109  1.00  0.00    -0.025 A 
HETATM   11  C9  LIG X 999      44.742 131.134  16.304  1.00  0.00     0.001 A 
HETATM   12  C10 LIG X 999      45.839 130.650  17.021  1.00  0.00     0.001 A 
HETATM   13  C11 LIG X 999      45.832 130.670  18.419  1.00  0.00     0.012 A 
HETATM   14  C13 LIG X 999      44.700 131.204  20.512  1.00  0.00     0.030 A 
ENDBRANCH   4   5
ENDBRANCH   3   4
TORSDOF 2
