REMARK VINA RESULT:      -7.2      0.000      0.000
REMARK  3 active torsions:
REMARK  status: ('A' for Active; 'I' for Inactive)
REMARK    1  A    between atoms: C3_3  and  S1_4 
REMARK    2  A    between atoms: S1_4  and  N1_7 
REMARK    3  A    between atoms: C10_16  and  N4_17 
ROOT
HETATM    1  N1  LIG X 999      43.635 131.712  21.903  1.00  0.00     0.026 NA
HETATM    2  N2  LIG X 999      43.122 130.841  22.604  1.00  0.00    -0.150 NA
HETATM    3  N3  LIG X 999      42.608 129.972  23.307  1.00  0.00     0.069 N 
ENDROOT
BRANCH   1   4
HETATM    4  S1  LIG X 999      45.014 131.339  20.931  1.00  0.00     0.311 S 
HETATM    5  O1  LIG X 999      45.492 129.954  21.263  1.00  0.00    -0.196 OA
HETATM    6  O2  LIG X 999      46.122 132.310  21.230  1.00  0.00    -0.196 OA
BRANCH   4   7
HETATM    7  C3  LIG X 999      44.578 131.423  19.227  1.00  0.00     0.084 A 
HETATM    8  C2  LIG X 999      43.242 131.586  18.846  1.00  0.00     0.026 A 
HETATM    9  C1  LIG X 999      42.902 131.667  17.494  1.00  0.00     0.009 A 
HETATM   10  C6  LIG X 999      43.890 131.577  16.502  1.00  0.00    -0.050 A 
HETATM   11  C5  LIG X 999      45.246 131.428  16.883  1.00  0.00    -0.023 A 
HETATM   12  C7  LIG X 999      43.487 131.776  15.060  1.00  0.00     0.039 C 
HETATM   13  C4  LIG X 999      45.574 131.352  18.247  1.00  0.00     0.035 A 
HETATM   14  C10 LIG X 999      46.348 131.270  15.851  1.00  0.00     0.179 C 
HETATM   15  C9  LIG X 999      45.937 131.849  14.489  1.00  0.00     0.035 C 
HETATM   16  C8  LIG X 999      44.563 131.322  14.069  1.00  0.00     0.007 C 
BRANCH  14  17
HETATM   17  N4  LIG X 999      46.688 129.858  15.690  1.00  0.00    -0.105 NA
HETATM   18  N5  LIG X 999      47.403 129.471  14.765  1.00  0.00    -0.167 NA
HETATM   19  N6  LIG X 999      48.119 129.085  13.842  1.00  0.00     0.068 N 
ENDBRANCH  14  17
ENDBRANCH   4   7
ENDBRANCH   1   4
TORSDOF 3
