MODEL 1
REMARK VINA RESULT:      -6.2      0.000      0.000
REMARK  3 active torsions:
REMARK  status: ('A' for Active; 'I' for Inactive)
REMARK    1  A    between atoms: C2_2  and  N1_3 
REMARK    2  A    between atoms: C3_6  and  O1_7 
REMARK    3  A    between atoms: O1_7  and  C4_8 
REMARK       I    between atoms: C4_8  and  N4_10 
ROOT
HETATM    1  N1  LIG X 999      43.325 132.124  15.304  1.00  0.00    -0.070 NA
HETATM    2  N2  LIG X 999      43.497 131.419  14.308  1.00  0.00    -0.162 NA
HETATM    3  N3  LIG X 999      43.666 130.723  13.309  1.00  0.00     0.068 N 
ENDROOT
BRANCH   1   4
HETATM    4  C2  LIG X 999      43.878 131.824  16.596  1.00  0.00     0.128 A 
HETATM    5  C1  LIG X 999      43.008 131.867  17.694  1.00  0.00     0.049 A 
HETATM    6  C13 LIG X 999      43.469 131.600  18.988  1.00  0.00    -0.023 A 
HETATM    7  C8  LIG X 999      44.836 131.267  19.191  1.00  0.00    -0.022 A 
HETATM    8  C12 LIG X 999      42.589 131.652  20.088  1.00  0.00     0.021 A 
HETATM    9  C7  LIG X 999      45.704 131.214  18.094  1.00  0.00     0.052 A 
HETATM   10  C9  LIG X 999      45.302 130.983  20.490  1.00  0.00     0.021 A 
HETATM   11  C3  LIG X 999      45.243 131.498  16.795  1.00  0.00     0.113 A 
HETATM   12  C10 LIG X 999      44.401 131.052  21.554  1.00  0.00    -0.024 A 
HETATM   13  C11 LIG X 999      43.093 131.375  21.360  1.00  0.00    -0.024 A 
HETATM   14  C17 LIG X 999      44.660 130.776  22.983  1.00  0.00     0.276 C 
HETATM   15  C14 LIG X 999      42.356 131.348  22.642  1.00  0.00     0.276 C 
HETATM   16  N5  LIG X 999      43.396 131.138  23.699  1.00  0.00    -0.067 N 
HETATM   17  C15 LIG X 999      43.592 132.388  24.473  1.00  0.00     0.272 C 
HETATM   18  C16 LIG X 999      42.989 130.056  24.625  1.00  0.00     0.272 C 
BRANCH  11  19
HETATM   19  O1  LIG X 999      46.111 131.409  15.696  1.00  0.00    -0.259 OA
BRANCH  19  20
HETATM   20  C4  LIG X 999      46.838 130.264  15.337  1.00  0.00     0.367 C 
HETATM   21  O2  LIG X 999      46.945 129.301  16.147  1.00  0.00    -0.238 OA
HETATM   22  N4  LIG X 999      47.499 130.207  14.063  1.00  0.00    -0.336 N 
HETATM   23  C5  LIG X 999      47.329 131.310  13.114  1.00  0.00     0.154 C 
HETATM   24  C6  LIG X 999      48.313 129.038  13.715  1.00  0.00     0.154 C 
ENDBRANCH  19  20
ENDBRANCH  11  19
ENDBRANCH   1   4
TORSDOF 3
ENDMDL
MODEL 2
REMARK VINA RESULT:      -5.3      2.732      7.790
REMARK  3 active torsions:
REMARK  status: ('A' for Active; 'I' for Inactive)
REMARK    1  A    between atoms: C2_2  and  N1_3 
REMARK    2  A    between atoms: C3_6  and  O1_7 
REMARK    3  A    between atoms: O1_7  and  C4_8 
REMARK       I    between atoms: C4_8  and  N4_10 
ROOT
HETATM    1  N1  LIG X 999      42.750 131.868  22.460  1.00  0.00    -0.070 NA
HETATM    2  N2  LIG X 999      43.135 132.314  23.542  1.00  0.00    -0.162 NA
HETATM    3  N3  LIG X 999      43.511 132.758  24.625  1.00  0.00     0.068 N 
ENDROOT
BRANCH   1   4
HETATM    4  C2  LIG X 999      43.633 131.331  21.461  1.00  0.00     0.128 A 
HETATM    5  C1  LIG X 999      43.581 131.900  20.182  1.00  0.00     0.049 A 
HETATM    6  C13 LIG X 999      44.398 131.426  19.150  1.00  0.00    -0.023 A 
HETATM    7  C8  LIG X 999      45.304 130.362  19.404  1.00  0.00    -0.022 A 
HETATM    8  C12 LIG X 999      44.335 132.001  17.864  1.00  0.00     0.021 A 
HETATM    9  C7  LIG X 999      45.365 129.798  20.684  1.00  0.00     0.052 A 
HETATM   10  C9  LIG X 999      46.140 129.891  18.373  1.00  0.00     0.021 A 
HETATM   11  C3  LIG X 999      44.530 130.264  21.718  1.00  0.00     0.113 A 
HETATM   12  C10 LIG X 999      46.043 130.480  17.112  1.00  0.00    -0.024 A 
HETATM   13  C11 LIG X 999      45.172 131.498  16.866  1.00  0.00    -0.024 A 
HETATM   14  C17 LIG X 999      46.828 130.166  15.899  1.00  0.00     0.276 C 
HETATM   15  C14 LIG X 999      45.292 131.957  15.465  1.00  0.00     0.276 C 
HETATM   16  N5  LIG X 999      46.223 130.988  14.803  1.00  0.00    -0.067 N 
HETATM   17  C15 LIG X 999      45.468 130.115  13.872  1.00  0.00     0.272 C 
HETATM   18  C16 LIG X 999      47.273 131.707  14.046  1.00  0.00     0.272 C 
BRANCH  11  19
HETATM   19  O1  LIG X 999      44.621 129.718  23.007  1.00  0.00    -0.259 OA
BRANCH  19  20
HETATM   20  C4  LIG X 999      44.426 128.364  23.322  1.00  0.00     0.367 C 
HETATM   21  O2  LIG X 999      45.363 127.533  23.157  1.00  0.00    -0.238 OA
HETATM   22  N4  LIG X 999      43.144 127.916  23.790  1.00  0.00    -0.336 N 
HETATM   23  C5  LIG X 999      42.080 128.896  24.022  1.00  0.00     0.154 C 
HETATM   24  C6  LIG X 999      42.922 126.492  24.055  1.00  0.00     0.154 C 
ENDBRANCH  19  20
ENDBRANCH  11  19
ENDBRANCH   1   4
TORSDOF 3
ENDMDL
MODEL 3
REMARK VINA RESULT:      -5.2      4.235      6.664
REMARK  3 active torsions:
REMARK  status: ('A' for Active; 'I' for Inactive)
REMARK    1  A    between atoms: C2_2  and  N1_3 
REMARK    2  A    between atoms: C3_6  and  O1_7 
REMARK    3  A    between atoms: O1_7  and  C4_8 
REMARK       I    between atoms: C4_8  and  N4_10 
ROOT
HETATM    1  N1  LIG X 999      43.723 131.851  23.028  1.00  0.00    -0.070 NA
HETATM    2  N2  LIG X 999      42.655 131.994  23.626  1.00  0.00    -0.162 NA
HETATM    3  N3  LIG X 999      41.589 132.146  24.219  1.00  0.00     0.068 N 
ENDROOT
BRANCH   1   4
HETATM    4  C2  LIG X 999      44.259 130.571  22.653  1.00  0.00     0.128 A 
HETATM    5  C1  LIG X 999      44.036 129.498  23.525  1.00  0.00     0.049 A 
HETATM    6  C13 LIG X 999      44.535 128.223  23.239  1.00  0.00    -0.023 A 
HETATM    7  C8  LIG X 999      45.267 128.008  22.041  1.00  0.00    -0.022 A 
HETATM    8  C12 LIG X 999      44.311 127.150  24.126  1.00  0.00     0.021 A 
HETATM    9  C7  LIG X 999      45.483 129.077  21.163  1.00  0.00     0.052 A 
HETATM   10  C9  LIG X 999      45.760 126.722  21.741  1.00  0.00     0.021 A 
HETATM   11  C3  LIG X 999      44.995 130.364  21.459  1.00  0.00     0.113 A 
HETATM   12  C10 LIG X 999      45.524 125.688  22.647  1.00  0.00    -0.024 A 
HETATM   13  C11 LIG X 999      44.825 125.894  23.798  1.00  0.00    -0.024 A 
HETATM   14  C17 LIG X 999      45.923 124.269  22.530  1.00  0.00     0.276 C 
HETATM   15  C14 LIG X 999      44.695 124.632  24.558  1.00  0.00     0.276 C 
HETATM   16  N5  LIG X 999      45.547 123.636  23.834  1.00  0.00    -0.067 N 
HETATM   17  C15 LIG X 999      46.767 123.342  24.625  1.00  0.00     0.272 C 
HETATM   18  C16 LIG X 999      44.802 122.376  23.611  1.00  0.00     0.272 C 
BRANCH  11  19
HETATM   19  O1  LIG X 999      45.185 131.422  20.558  1.00  0.00    -0.259 OA
BRANCH  19  20
HETATM   20  C4  LIG X 999      44.284 131.789  19.547  1.00  0.00     0.367 C 
HETATM   21  O2  LIG X 999      43.246 132.450  19.831  1.00  0.00    -0.238 OA
HETATM   22  N4  LIG X 999      44.520 131.373  18.192  1.00  0.00    -0.336 N 
HETATM   23  C5  LIG X 999      45.750 130.646  17.867  1.00  0.00     0.154 C 
HETATM   24  C6  LIG X 999      43.545 131.700  17.148  1.00  0.00     0.154 C 
ENDBRANCH  19  20
ENDBRANCH  11  19
ENDBRANCH   1   4
TORSDOF 3
ENDMDL
MODEL 4
REMARK VINA RESULT:      -3.5      4.949      7.148
REMARK  3 active torsions:
REMARK  status: ('A' for Active; 'I' for Inactive)
REMARK    1  A    between atoms: C2_2  and  N1_3 
REMARK    2  A    between atoms: C3_6  and  O1_7 
REMARK    3  A    between atoms: O1_7  and  C4_8 
REMARK       I    between atoms: C4_8  and  N4_10 
ROOT
HETATM    1  N1  LIG X 999      45.857 130.905  20.334  1.00  0.00    -0.070 NA
HETATM    2  N2  LIG X 999      45.739 130.805  19.112  1.00  0.00    -0.162 NA
HETATM    3  N3  LIG X 999      45.627 130.711  17.891  1.00  0.00     0.068 N 
ENDROOT
BRANCH   1   4
HETATM    4  C2  LIG X 999      45.349 129.935  21.265  1.00  0.00     0.128 A 
HETATM    5  C1  LIG X 999      45.756 128.604  21.096  1.00  0.00     0.049 A 
HETATM    6  C13 LIG X 999      45.297 127.597  21.951  1.00  0.00    -0.023 A 
HETATM    7  C8  LIG X 999      44.415 127.927  23.015  1.00  0.00    -0.022 A 
HETATM    8  C12 LIG X 999      45.708 126.261  21.770  1.00  0.00     0.021 A 
HETATM    9  C7  LIG X 999      44.015 129.257  23.191  1.00  0.00     0.052 A 
HETATM   10  C9  LIG X 999      43.962 126.919  23.888  1.00  0.00     0.021 A 
HETATM   11  C3  LIG X 999      44.464 130.268  22.321  1.00  0.00     0.113 A 
HETATM   12  C10 LIG X 999      44.384 125.607  23.671  1.00  0.00    -0.024 A 
HETATM   13  C11 LIG X 999      45.226 125.289  22.649  1.00  0.00    -0.024 A 
HETATM   14  C17 LIG X 999      44.057 124.404  24.466  1.00  0.00     0.276 C 
HETATM   15  C14 LIG X 999      45.538 123.844  22.664  1.00  0.00     0.276 C 
HETATM   16  N5  LIG X 999      44.651 123.252  23.716  1.00  0.00    -0.067 N 
HETATM   17  C15 LIG X 999      43.576 122.451  23.081  1.00  0.00     0.272 C 
HETATM   18  C16 LIG X 999      45.429 122.380  24.625  1.00  0.00     0.272 C 
BRANCH  11  19
HETATM   19  O1  LIG X 999      44.085 131.603  22.525  1.00  0.00    -0.259 OA
BRANCH  19  20
HETATM   20  C4  LIG X 999      42.779 132.097  22.393  1.00  0.00     0.367 C 
HETATM   21  O2  LIG X 999      42.011 132.135  23.395  1.00  0.00    -0.238 OA
HETATM   22  N4  LIG X 999      42.300 132.521  21.106  1.00  0.00    -0.336 N 
HETATM   23  C5  LIG X 999      43.214 132.516  19.962  1.00  0.00     0.154 C 
HETATM   24  C6  LIG X 999      40.914 132.974  20.957  1.00  0.00     0.154 C 
ENDBRANCH  19  20
ENDBRANCH  11  19
ENDBRANCH   1   4
TORSDOF 3
ENDMDL
