REMARK VINA RESULT:      -5.4      1.608      3.078
REMARK  6 active torsions:
REMARK  status: ('A' for Active; 'I' for Inactive)
REMARK    1  A    between atoms: N1_15  and  C15_17 
REMARK    2  A    between atoms: C15_17  and  C16_18 
REMARK    3  A    between atoms: C16_18  and  C17_19 
REMARK    4  A    between atoms: C17_19  and  C18_20 
REMARK    5  A    between atoms: C18_20  and  C19_21 
REMARK    6  A    between atoms: C19_21  and  N2_22 
ROOT
HETATM    1  C1  LIG X 999      44.694 131.605  14.756  1.00  0.00     0.001 C 
HETATM    2  C2  LIG X 999      45.872 131.442  15.478  1.00  0.00     0.001 C 
HETATM    3  C3  LIG X 999      45.842 131.380  16.873  1.00  0.00     0.013 C 
HETATM    4  C4  LIG X 999      44.618 131.429  17.581  1.00  0.00    -0.013 C 
HETATM    5  C5  LIG X 999      43.442 131.718  16.831  1.00  0.00    -0.025 C 
HETATM    6  C6  LIG X 999      43.484 131.763  15.428  1.00  0.00     0.012 C 
HETATM    7  C7  LIG X 999      42.245 132.014  17.486  1.00  0.00     0.014 C 
HETATM    8  C8  LIG X 999      42.206 132.086  18.872  1.00  0.00     0.031 C 
HETATM    9  C9  LIG X 999      43.328 131.755  19.641  1.00  0.00     0.045 C 
HETATM   10  C10 LIG X 999      44.525 131.313  19.008  1.00  0.00     0.008 C 
HETATM   11  C11 LIG X 999      45.527 130.746  19.853  1.00  0.00    -0.045 C 
HETATM   12  C12 LIG X 999      46.639 129.847  19.369  1.00  0.00     0.049 C 
HETATM   13  C13 LIG X 999      45.420 130.899  21.241  1.00  0.00     0.056 C 
HETATM   14  C14 LIG X 999      44.283 131.476  21.817  1.00  0.00     0.101 C 
HETATM   15  N1  LIG X 999      44.224 131.613  23.121  1.00  0.00    -0.376 N 
HETATM   16  H11 LIG X 999      45.022 131.271  23.704  1.00  0.00     0.161 HD
HETATM   17  N3  LIG X 999      43.248 131.841  21.002  1.00  0.00    -0.342 N 
HETATM   18  H28 LIG X 999      42.354 132.191  21.411  1.00  0.00     0.167 HD
ENDROOT
BRANCH  15  19
HETATM   19  C15 LIG X 999      43.123 132.227  23.875  1.00  0.00     0.121 C 
BRANCH  19  20
HETATM   20  C16 LIG X 999      42.048 131.196  24.260  1.00  0.00     0.020 C 
BRANCH  20  21
HETATM   21  C17 LIG X 999      42.611 129.808  24.625  1.00  0.00     0.004 C 
BRANCH  21  22
HETATM   22  C18 LIG X 999      42.228 128.669  23.658  1.00  0.00     0.035 C 
BRANCH  22  23
HETATM   23  C19 LIG X 999      43.344 127.622  23.406  1.00  0.00     0.216 C 
HETATM   24  C21 LIG X 999      44.714 128.173  23.825  1.00  0.00     0.042 C 
BRANCH  23  25
HETATM   25  N2  LIG X 999      43.093 126.303  24.027  1.00  0.00     0.083 N 
HETATM   26  H21 LIG X 999      43.982 125.939  24.441  1.00  0.00     0.315 HD
HETATM   27  C20 LIG X 999      42.552 125.286  23.116  1.00  0.00     0.307 C 
ENDBRANCH  23  25
ENDBRANCH  22  23
ENDBRANCH  21  22
ENDBRANCH  20  21
ENDBRANCH  19  20
ENDBRANCH  15  19
TORSDOF 6
