REMARK VINA RESULT:      -6.1      0.000      0.000
REMARK  1 active torsions:
REMARK  status: ('A' for Active; 'I' for Inactive)
REMARK    1  A    between atoms: C12_14  and  N2_15 
ROOT
HETATM    1  C1  LIG X 999      47.241 130.023  14.041  1.00  0.00     0.001 A 
HETATM    2  C2  LIG X 999      47.608 129.824  15.369  1.00  0.00     0.001 A 
HETATM    3  C3  LIG X 999      46.752 130.201  16.406  1.00  0.00     0.013 A 
HETATM    4  C4  LIG X 999      45.497 130.790  16.132  1.00  0.00    -0.012 A 
HETATM    5  C5  LIG X 999      45.135 130.988  14.761  1.00  0.00    -0.025 A 
HETATM    6  C6  LIG X 999      46.012 130.601  13.736  1.00  0.00     0.012 A 
HETATM    7  C7  LIG X 999      43.897 131.570  14.423  1.00  0.00     0.013 A 
HETATM    8  C8  LIG X 999      43.004 131.965  15.417  1.00  0.00     0.021 A 
HETATM    9  C9  LIG X 999      43.357 131.773  16.745  1.00  0.00     0.020 A 
HETATM   10  S1  LIG X 999      42.426 132.177  18.074  1.00  0.00    -0.076 SA
HETATM   11  C10 LIG X 999      43.537 131.637  19.210  1.00  0.00     0.118 A 
HETATM   12  C11 LIG X 999      43.301 131.716  20.627  1.00  0.00     0.109 C 
HETATM   13  N1  LIG X 999      43.105 131.783  21.765  1.00  0.00    -0.191 NA
HETATM   14  C12 LIG X 999      44.672 131.122  18.556  1.00  0.00     0.133 A 
HETATM   15  C13 LIG X 999      44.571 131.199  17.138  1.00  0.00     0.026 A 
ENDROOT
BRANCH  14  16
HETATM   16  N2  LIG X 999      45.812 130.578  19.238  1.00  0.00    -0.070 NA
HETATM   17  N3  LIG X 999      45.732 129.869  20.242  1.00  0.00    -0.162 NA
HETATM   18  N4  LIG X 999      45.663 129.161  21.245  1.00  0.00     0.068 N 
ENDBRANCH  14  16
TORSDOF 1
