REMARK VINA RESULT:      -8.5      0.000      0.000
REMARK  2 active torsions:
REMARK  status: ('A' for Active; 'I' for Inactive)
REMARK    1  A    between atoms: C6_6  and  C7_7 
REMARK    2  A    between atoms: C7_7  and  N1_8 
ROOT
HETATM    1  N1  LIG X 999      43.106 131.780  18.126  1.00  0.00    -0.106 NA
HETATM    2  N2  LIG X 999      42.283 132.233  18.923  1.00  0.00    -0.167 NA
HETATM    3  N3  LIG X 999      41.461 132.686  19.719  1.00  0.00     0.068 N 
ENDROOT
BRANCH   1   4
HETATM    4  C7  LIG X 999      44.526 132.096  18.252  1.00  0.00     0.174 C 
HETATM    5  C8  LIG X 999      45.000 131.754  19.664  1.00  0.00     0.042 C 
BRANCH   4   6
HETATM    6  C6  LIG X 999      45.339 131.337  17.224  1.00  0.00    -0.030 A 
HETATM    7  C5  LIG X 999      45.780 131.970  16.048  1.00  0.00     0.021 A 
HETATM    8  C4  LIG X 999      46.517 131.258  15.090  1.00  0.00    -0.025 A 
HETATM    9  C3  LIG X 999      46.963 131.888  13.917  1.00  0.00     0.012 A 
HETATM   10  C11 LIG X 999      46.814 129.890  15.306  1.00  0.00    -0.026 A 
HETATM   11  C2  LIG X 999      47.698 131.169  12.970  1.00  0.00     0.001 A 
HETATM   12  C1  LIG X 999      47.991 129.819  13.184  1.00  0.00     0.001 A 
HETATM   13  C12 LIG X 999      47.550 129.180  14.346  1.00  0.00     0.012 A 
HETATM   14  C10 LIG X 999      46.364 129.261  16.474  1.00  0.00     0.013 A 
HETATM   15  C9  LIG X 999      45.630 129.977  17.423  1.00  0.00     0.010 A 
ENDBRANCH   4   6
ENDBRANCH   1   4
TORSDOF 2
