REMARK VINA RESULT:      -6.7      2.877      7.305
REMARK  4 active torsions:
REMARK  status: ('A' for Active; 'I' for Inactive)
REMARK    1  A    between atoms: C1_1  and  C2_6 
REMARK    2  A    between atoms: N1_2  and  N2_3 
REMARK    3  A    between atoms: C2_6  and  C3_8 
REMARK    4  A    between atoms: C11_16  and  N4_17 
ROOT
HETATM    1  N4  LIG X 999      45.484 129.046  20.915  1.00  0.00    -0.105 NA
HETATM    2  N5  LIG X 999      45.267 128.464  21.979  1.00  0.00    -0.167 NA
HETATM    3  N6  LIG X 999      45.050 127.883  23.041  1.00  0.00     0.068 N 
ENDROOT
BRANCH   1   4
HETATM    4  C11 LIG X 999      45.695 130.491  20.864  1.00  0.00     0.179 C 
HETATM    5  C10 LIG X 999      44.412 131.220  21.221  1.00  0.00    -0.024 A 
HETATM    6  C5  LIG X 999      43.553 131.747  20.223  1.00  0.00    -0.049 A 
HETATM    7  C9  LIG X 999      44.026 131.303  22.570  1.00  0.00     0.010 A 
HETATM    8  C4  LIG X 999      43.967 131.802  18.771  1.00  0.00     0.051 C 
HETATM    9  C6  LIG X 999      42.346 132.356  20.601  1.00  0.00     0.007 A 
HETATM   10  C3  LIG X 999      45.071 130.785  18.432  1.00  0.00     0.068 C 
HETATM   11  C12 LIG X 999      46.203 130.877  19.467  1.00  0.00     0.048 C 
HETATM   12  C7  LIG X 999      41.976 132.421  21.945  1.00  0.00     0.001 A 
HETATM   13  C8  LIG X 999      42.815 131.898  22.929  1.00  0.00     0.001 A 
BRANCH  10  14
HETATM   14  C2  LIG X 999      45.619 131.004  17.037  1.00  0.00     0.172 C 
HETATM   15  O1  LIG X 999      45.552 132.146  16.508  1.00  0.00    -0.291 OA
BRANCH  14  16
HETATM   16  C1  LIG X 999      46.300 129.929  16.295  1.00  0.00     0.190 C 
HETATM   17  N1  LIG X 999      46.921 130.174  15.184  1.00  0.00    -0.165 NA
BRANCH  17  18
HETATM   18  N2  LIG X 999      47.565 129.160  14.460  1.00  0.00    -0.177 N 
HETATM   19  H2  LIG X 999      47.414 128.153  14.693  1.00  0.00     0.214 HD
HETATM   20  N3  LIG X 999      48.332 129.467  13.497  1.00  0.00    -0.031 N 
ENDBRANCH  17  18
ENDBRANCH  14  16
ENDBRANCH  10  14
ENDBRANCH   1   4
TORSDOF 4
