REMARK VINA RESULT:      -7.1      0.000      0.000
REMARK  1 active torsions:
REMARK  status: ('A' for Active; 'I' for Inactive)
REMARK    1  A    between atoms: C7_7  and  N1_8 
ROOT
HETATM    1  N1  LIG X 999      45.565 131.737  17.431  1.00  0.00    -0.110 NA
HETATM    2  N2  LIG X 999      44.570 131.769  18.157  1.00  0.00    -0.167 NA
HETATM    3  N3  LIG X 999      43.577 131.800  18.882  1.00  0.00     0.068 N 
ENDROOT
BRANCH   1   4
HETATM    4  C7  LIG X 999      45.451 131.880  15.981  1.00  0.00     0.153 C 
HETATM    5  C6  LIG X 999      44.159 131.199  15.502  1.00  0.00     0.031 C 
HETATM    6  C5  LIG X 999      44.224 129.678  15.678  1.00  0.00     0.003 C 
HETATM    7  C4  LIG X 999      45.418 129.092  14.920  1.00  0.00     0.009 C 
HETATM    8  C3  LIG X 999      46.745 129.735  15.370  1.00  0.00     0.018 C 
HETATM    9  C2  LIG X 999      47.876 129.196  14.522  1.00  0.00    -0.021 C 
HETATM   10  C8  LIG X 999      46.698 131.288  15.271  1.00  0.00     0.043 C 
HETATM   11  C1  LIG X 999      48.215 129.797  13.375  1.00  0.00    -0.004 C 
HETATM   12  C10 LIG X 999      47.563 131.056  12.966  1.00  0.00    -0.004 C 
HETATM   13  C9  LIG X 999      46.796 131.735  13.827  1.00  0.00    -0.019 C 
ENDBRANCH   1   4
TORSDOF 1
