REMARK VINA RESULT:      -6.3      2.361      5.458
REMARK  1 active torsions:
REMARK  status: ('A' for Active; 'I' for Inactive)
REMARK    1  A    between atoms: N1_2  and  C1_3 
ROOT
HETATM    1  C1  LIG X 999      44.959 131.516  16.541  1.00  0.00     0.143 C 
HETATM    2  N2  LIG X 999      45.730 131.001  17.528  1.00  0.00    -0.229 NA
HETATM    3  C2  LIG X 999      45.300 130.914  18.813  1.00  0.00     0.070 C 
HETATM    4  C3  LIG X 999      46.134 130.306  19.752  1.00  0.00     0.033 C 
HETATM    5  C4  LIG X 999      45.736 130.184  21.076  1.00  0.00     0.014 C 
HETATM    6  C5  LIG X 999      44.543 130.769  21.511  1.00  0.00    -0.025 C 
HETATM    7  C6  LIG X 999      44.217 130.725  22.876  1.00  0.00     0.012 C 
HETATM    8  C7  LIG X 999      43.104 131.410  23.355  1.00  0.00     0.001 C 
HETATM    9  C8  LIG X 999      42.335 132.179  22.486  1.00  0.00     0.001 C 
HETATM   10  C9  LIG X 999      42.639 132.220  21.124  1.00  0.00     0.013 C 
HETATM   11  C10 LIG X 999      43.697 131.450  20.587  1.00  0.00    -0.013 C 
HETATM   12  C11 LIG X 999      44.017 131.410  19.187  1.00  0.00     0.010 C 
HETATM   13  C12 LIG X 999      43.141 131.794  18.121  1.00  0.00    -0.045 C 
HETATM   14  C13 LIG X 999      41.646 131.949  18.260  1.00  0.00     0.049 C 
HETATM   15  C14 LIG X 999      43.652 131.907  16.817  1.00  0.00     0.059 C 
ENDROOT
BRANCH   1  16
HETATM   16  N1  LIG X 999      45.421 131.604  15.335  1.00  0.00    -0.282 NA
HETATM   17  H1  LIG X 999      45.638 130.752  14.770  1.00  0.00     0.188 HD
ENDBRANCH   1  16
TORSDOF 1
