REMARK VINA RESULT:      -5.5      2.986      6.278
REMARK  5 active torsions:
REMARK  status: ('A' for Active; 'I' for Inactive)
REMARK    1  A    between atoms: O1_2  and  C1_3 
REMARK    2  A    between atoms: C1_3  and  C13_17 
REMARK    3  A    between atoms: N1_4  and  C2_5 
REMARK    4  A    between atoms: C3_6  and  O2_7 
REMARK    5  A    between atoms: C13_17  and  C15_19 
ROOT
HETATM    1  C2  LIG X 999      43.652 131.637  20.029  1.00  0.00     0.103 A 
HETATM    2  C3  LIG X 999      42.411 132.310  20.001  1.00  0.00     0.097 A 
HETATM    3  C5  LIG X 999      41.791 132.572  18.766  1.00  0.00     0.040 A 
HETATM    4  C6  LIG X 999      42.405 132.201  17.570  1.00  0.00     0.015 A 
HETATM    5  C7  LIG X 999      43.653 131.570  17.582  1.00  0.00    -0.024 A 
HETATM    6  C8  LIG X 999      44.278 131.214  16.376  1.00  0.00     0.012 A 
HETATM    7  C9  LIG X 999      45.524 130.584  16.388  1.00  0.00     0.001 A 
HETATM    8  C10 LIG X 999      46.156 130.303  17.600  1.00  0.00     0.001 A 
HETATM    9  C11 LIG X 999      45.547 130.650  18.808  1.00  0.00     0.014 A 
HETATM   10  C12 LIG X 999      44.290 131.289  18.817  1.00  0.00     0.006 A 
ENDROOT
BRANCH   1  11
HETATM   11  N1  LIG X 999      44.304 131.367  21.280  1.00  0.00    -0.225 NA
HETATM   12  C1  LIG X 999      43.754 130.751  22.286  1.00  0.00     0.142 C 
BRANCH  12  13
HETATM   13  O1  LIG X 999      42.461 130.235  22.177  1.00  0.00    -0.348 OA
HETATM   14  H1  LIG X 999      42.225 129.538  21.480  1.00  0.00     0.219 HD
ENDBRANCH  12  13
BRANCH  12  15
HETATM   15  C13 LIG X 999      44.536 130.568  23.564  1.00  0.00     0.058 C 
HETATM   16  C14 LIG X 999      44.125 131.639  24.585  1.00  0.00     0.018 C 
BRANCH  15  17
HETATM   17  C15 LIG X 999      44.332 129.135  24.105  1.00  0.00     0.008 C 
HETATM   18  C16 LIG X 999      44.918 128.066  23.183  1.00  0.00     0.006 C 
ENDBRANCH  15  17
ENDBRANCH  12  15
ENDBRANCH   1  11
BRANCH   2  19
HETATM   19  O2  LIG X 999      41.838 132.724  21.215  1.00  0.00    -0.354 OA
HETATM   20  C4  LIG X 999      40.728 133.609  21.328  1.00  0.00     0.210 C 
ENDBRANCH   2  19
TORSDOF 5
