REMARK VINA RESULT:      -8.2      1.100      2.877
REMARK  1 active torsions:
REMARK  status: ('A' for Active; 'I' for Inactive)
REMARK    1  A    between atoms: C2_5  and  C3_6 
ROOT
HETATM    1  C3  LIG X 999      45.330 130.919  18.318  1.00  0.00     0.030 A 
HETATM    2  C4  LIG X 999      46.259 130.571  19.320  1.00  0.00     0.017 A 
HETATM    3  C5  LIG X 999      45.983 130.771  20.669  1.00  0.00     0.002 A 
HETATM    4  C6  LIG X 999      44.773 131.324  21.062  1.00  0.00     0.012 A 
HETATM    5  C7  LIG X 999      43.818 131.688  20.106  1.00  0.00    -0.025 A 
HETATM    6  C8  LIG X 999      42.603 132.246  20.533  1.00  0.00     0.012 A 
HETATM    7  C9  LIG X 999      41.633 132.617  19.606  1.00  0.00     0.001 A 
HETATM    8  C10 LIG X 999      41.865 132.435  18.247  1.00  0.00     0.001 A 
HETATM    9  C11 LIG X 999      43.068 131.881  17.800  1.00  0.00     0.013 A 
HETATM   10  C12 LIG X 999      44.077 131.492  18.715  1.00  0.00    -0.011 A 
ENDROOT
BRANCH   1  11
HETATM   11  C2  LIG X 999      45.743 130.656  16.904  1.00  0.00     0.203 A 
HETATM   12  O1  LIG X 999      46.160 131.554  16.038  1.00  0.00    -0.255 OA
HETATM   13  C1  LIG X 999      46.409 130.883  14.941  1.00  0.00     0.262 A 
HETATM   14  N1  LIG X 999      46.842 131.409  13.843  1.00  0.00    -0.260 NA
HETATM   15  N3  LIG X 999      46.156 129.578  15.099  1.00  0.00    -0.238 N 
HETATM   16  H1  LIG X 999      47.023 132.435  13.777  1.00  0.00     0.190 HD
HETATM   17  N2  LIG X 999      45.732 129.422  16.342  1.00  0.00    -0.145 NA
HETATM   18  H9  LIG X 999      46.262 128.813  14.396  1.00  0.00     0.193 HD
ENDBRANCH   1  11
TORSDOF 1
