REMARK VINA RESULT:      -5.7      3.173      5.717
REMARK  1 active torsions:
REMARK  status: ('A' for Active; 'I' for Inactive)
REMARK    1  A    between atoms: C2_5  and  C3_6 
ROOT
HETATM    1  C3  LIG X 999      44.345 131.267  17.950  1.00  0.00     0.030 A 
HETATM    2  C4  LIG X 999      45.298 130.687  18.813  1.00  0.00     0.017 A 
HETATM    3  C5  LIG X 999      46.428 130.041  18.321  1.00  0.00     0.002 A 
HETATM    4  C6  LIG X 999      46.643 129.951  16.953  1.00  0.00     0.012 A 
HETATM    5  C7  LIG X 999      45.727 130.510  16.055  1.00  0.00    -0.025 A 
HETATM    6  C8  LIG X 999      45.971 130.404  14.677  1.00  0.00     0.012 A 
HETATM    7  C9  LIG X 999      45.079 130.950  13.759  1.00  0.00     0.001 A 
HETATM    8  C10 LIG X 999      43.936 131.605  14.205  1.00  0.00     0.001 A 
HETATM    9  C11 LIG X 999      43.674 131.722  15.573  1.00  0.00     0.013 A 
HETATM   10  C12 LIG X 999      44.560 131.179  16.536  1.00  0.00    -0.011 A 
ENDROOT
BRANCH   1  11
HETATM   11  C2  LIG X 999      43.174 131.933  18.600  1.00  0.00     0.203 A 
HETATM   12  O1  LIG X 999      43.042 132.190  19.885  1.00  0.00    -0.255 OA
HETATM   13  C1  LIG X 999      41.876 132.774  19.999  1.00  0.00     0.262 A 
HETATM   14  N1  LIG X 999      41.371 133.187  21.114  1.00  0.00    -0.260 NA
HETATM   15  N3  LIG X 999      41.269 132.890  18.812  1.00  0.00    -0.238 N 
HETATM   16  H1  LIG X 999      41.890 133.070  22.013  1.00  0.00     0.190 HD
HETATM   17  N2  LIG X 999      42.084 132.360  17.916  1.00  0.00    -0.145 NA
HETATM   18  H9  LIG X 999      40.336 133.312  18.605  1.00  0.00     0.193 HD
ENDBRANCH   1  11
TORSDOF 1
