REMARK VINA RESULT:      -7.3      2.671      7.221
REMARK  2 active torsions:
REMARK  status: ('A' for Active; 'I' for Inactive)
REMARK    1  A    between atoms: C2_5  and  C3_6 
REMARK    2  A    between atoms: N3_18  and  C13_19 
ROOT
HETATM    1  H1  LIG X 999      47.408 132.523  20.947  1.00  0.00     0.190 HD
HETATM    2  N1  LIG X 999      46.478 132.128  21.214  1.00  0.00    -0.260 NA
HETATM    3  C1  LIG X 999      45.628 131.766  20.309  1.00  0.00     0.268 A 
HETATM    4  O1  LIG X 999      45.842 131.869  19.016  1.00  0.00    -0.257 OA
HETATM    5  C2  LIG X 999      44.740 131.416  18.450  1.00  0.00     0.177 A 
HETATM    6  N2  LIG X 999      43.842 131.043  19.387  1.00  0.00    -0.269 N 
HETATM    7  H9  LIG X 999      42.898 130.624  19.229  1.00  0.00     0.190 HD
HETATM    8  N3  LIG X 999      44.405 131.258  20.565  1.00  0.00    -0.212 N 
ENDROOT
BRANCH   5   9
HETATM    9  C3  LIG X 999      44.501 131.360  16.989  1.00  0.00     0.028 A 
HETATM   10  C4  LIG X 999      43.302 131.905  16.499  1.00  0.00     0.017 A 
HETATM   11  C5  LIG X 999      43.043 131.951  15.130  1.00  0.00     0.002 A 
HETATM   12  C6  LIG X 999      43.973 131.452  14.221  1.00  0.00     0.012 A 
HETATM   13  C7  LIG X 999      45.170 130.883  14.677  1.00  0.00    -0.025 A 
HETATM   14  C8  LIG X 999      46.091 130.364  13.753  1.00  0.00     0.012 A 
HETATM   15  C12 LIG X 999      45.443 130.818  16.072  1.00  0.00    -0.011 A 
HETATM   16  C9  LIG X 999      47.269 129.765  14.195  1.00  0.00     0.001 A 
HETATM   17  C10 LIG X 999      47.535 129.666  15.560  1.00  0.00     0.001 A 
HETATM   18  C11 LIG X 999      46.631 130.178  16.493  1.00  0.00     0.013 A 
ENDBRANCH   5   9
BRANCH   8  19
HETATM   19  C13 LIG X 999      43.796 130.975  21.838  1.00  0.00     0.105 A 
HETATM   20  C14 LIG X 999      42.859 131.862  22.392  1.00  0.00     0.054 A 
HETATM   21  C15 LIG X 999      42.291 131.578  23.635  1.00  0.00     0.122 A 
HETATM   22  N4  LIG X 999      42.641 130.448  24.304  1.00  0.00    -0.230 NA
HETATM   23  C16 LIG X 999      43.545 129.570  23.795  1.00  0.00     0.251 A 
HETATM   24  F1  LIG X 999      43.863 128.451  24.492  1.00  0.00    -0.181 F 
HETATM   25  C17 LIG X 999      44.142 129.817  22.554  1.00  0.00     0.202 A 
HETATM   26  F2  LIG X 999      45.019 128.916  22.042  1.00  0.00    -0.199 F 
ENDBRANCH   8  19
TORSDOF 2
