REMARK VINA RESULT:      -5.2      8.281      9.318
REMARK  1 active torsions:
REMARK  status: ('A' for Active; 'I' for Inactive)
REMARK    1  A    between atoms: C10_11  and  N2_12 
ROOT
HETATM    1  N2  LIG X 999      45.435 122.607  21.879  1.00  0.00    -0.214 NA
HETATM    2  C11 LIG X 999      46.557 123.150  21.620  1.00  0.00     0.165 C 
HETATM    3  S1  LIG X 999      47.978 123.837  21.293  1.00  0.00    -0.055 SA
ENDROOT
BRANCH   1   4
HETATM    4  C10 LIG X 999      44.299 123.317  22.394  1.00  0.00     0.152 C 
HETATM    5  N1  LIG X 999      43.210 122.608  22.772  1.00  0.00    -0.229 NA
HETATM    6  C9  LIG X 999      42.080 123.196  23.245  1.00  0.00     0.070 C 
HETATM    7  C8  LIG X 999      41.035 122.376  23.670  1.00  0.00     0.033 C 
HETATM    8  C15 LIG X 999      41.976 124.613  23.325  1.00  0.00     0.010 C 
HETATM    9  C7  LIG X 999      39.863 122.926  24.167  1.00  0.00     0.014 C 
HETATM   10  C5  LIG X 999      39.670 124.311  24.146  1.00  0.00    -0.025 C 
HETATM   11  C4  LIG X 999      40.697 125.172  23.661  1.00  0.00    -0.013 C 
HETATM   12  C6  LIG X 999      38.434 124.837  24.554  1.00  0.00     0.012 C 
HETATM   13  C3  LIG X 999      40.355 126.528  23.439  1.00  0.00     0.013 C 
HETATM   14  C2  LIG X 999      39.115 127.033  23.837  1.00  0.00     0.001 C 
HETATM   15  C1  LIG X 999      38.168 126.196  24.418  1.00  0.00     0.001 C 
HETATM   16  C13 LIG X 999      43.178 125.360  23.100  1.00  0.00    -0.045 C 
HETATM   17  C12 LIG X 999      44.303 124.707  22.571  1.00  0.00     0.060 C 
HETATM   18  C14 LIG X 999      43.384 126.790  23.533  1.00  0.00     0.049 C 
ENDBRANCH   1   4
TORSDOF 1
