REMARK VINA RESULT:      -6.7      0.000      0.000
REMARK  4 active torsions:
REMARK  status: ('A' for Active; 'I' for Inactive)
REMARK    1  A    between atoms: C1_1  and  C2_6 
REMARK    2  A    between atoms: N1_2  and  N2_3 
REMARK    3  A    between atoms: C2_6  and  C3_8 
REMARK    4  A    between atoms: C11_16  and  N4_17 
ROOT
HETATM    1  N4  LIG X 999      45.452 129.047  20.938  1.00  0.00    -0.105 NA
HETATM    2  N5  LIG X 999      45.233 128.465  22.001  1.00  0.00    -0.167 NA
HETATM    3  N6  LIG X 999      45.017 127.884  23.063  1.00  0.00     0.068 N 
ENDROOT
BRANCH   1   4
HETATM    4  C11 LIG X 999      45.673 130.490  20.890  1.00  0.00     0.179 C 
HETATM    5  C10 LIG X 999      44.382 131.228  21.195  1.00  0.00    -0.024 A 
HETATM    6  C5  LIG X 999      43.562 131.749  20.163  1.00  0.00    -0.049 A 
HETATM    7  C9  LIG X 999      43.956 131.333  22.530  1.00  0.00     0.010 A 
HETATM    8  C4  LIG X 999      44.015 131.774  18.721  1.00  0.00     0.051 C 
HETATM    9  C6  LIG X 999      42.349 132.375  20.495  1.00  0.00     0.007 A 
HETATM   10  C3  LIG X 999      45.139 130.767  18.430  1.00  0.00     0.068 C 
HETATM   11  C12 LIG X 999      46.232 130.871  19.510  1.00  0.00     0.048 C 
HETATM   12  C7  LIG X 999      41.938 132.465  21.826  1.00  0.00     0.001 A 
HETATM   13  C8  LIG X 999      42.741 131.948  22.842  1.00  0.00     0.001 A 
BRANCH  10  14
HETATM   14  C2  LIG X 999      45.704 131.006  17.047  1.00  0.00     0.172 C 
HETATM   15  O1  LIG X 999      45.527 132.120  16.481  1.00  0.00    -0.291 OA
BRANCH  14  16
HETATM   16  C1  LIG X 999      46.403 129.944  16.303  1.00  0.00     0.190 C 
HETATM   17  N1  LIG X 999      46.876 130.160  15.116  1.00  0.00    -0.165 NA
BRANCH  17  18
HETATM   18  N2  LIG X 999      47.549 129.162  14.397  1.00  0.00    -0.177 N 
HETATM   19  H2  LIG X 999      47.398 128.150  14.610  1.00  0.00     0.214 HD
HETATM   20  N3  LIG X 999      48.357 129.489  13.474  1.00  0.00    -0.031 N 
ENDBRANCH  17  18
ENDBRANCH  14  16
ENDBRANCH  10  14
ENDBRANCH   1   4
TORSDOF 4
