REMARK VINA RESULT:      -4.6      4.072      7.495
REMARK  3 active torsions:
REMARK  status: ('A' for Active; 'I' for Inactive)
REMARK    1  A    between atoms: N2_3  and  N3_4 
REMARK    2  A    between atoms: C1_5  and  C2_6 
REMARK    3  A    between atoms: C3_8  and  C4_9 
REMARK       I    between atoms: N4_19  and  C14_20 
ROOT
HETATM    1  C2  LIG X 999      45.365 128.540  22.359  1.00  0.00     0.259 C 
HETATM    2  O1  LIG X 999      45.539 129.371  21.226  1.00  0.00    -0.335 OA
HETATM    3  C3  LIG X 999      45.002 130.624  21.573  1.00  0.00     0.280 C 
HETATM    4  N4  LIG X 999      44.212 130.406  22.763  1.00  0.00    -0.247 N 
HETATM    5  C14 LIG X 999      43.455 131.417  23.448  1.00  0.00     0.232 C 
HETATM    6  O2  LIG X 999      43.527 132.621  23.079  1.00  0.00    -0.272 OA
HETATM    7  C15 LIG X 999      42.601 131.064  24.625  1.00  0.00     0.119 C 
HETATM    8  N5  LIG X 999      44.338 129.104  23.237  1.00  0.00    -0.199 NA
HETATM    9  H15 LIG X 999      44.729 129.156  24.208  1.00  0.00     0.150 HD
ENDROOT
BRANCH   3  10
HETATM   10  C4  LIG X 999      44.135 131.147  20.433  1.00  0.00     0.003 A 
HETATM   11  C5  LIG X 999      42.891 131.712  20.779  1.00  0.00     0.012 A 
HETATM   12  C6  LIG X 999      42.021 132.195  19.807  1.00  0.00     0.002 A 
HETATM   13  C7  LIG X 999      42.370 132.139  18.463  1.00  0.00     0.012 A 
HETATM   14  C8  LIG X 999      43.608 131.612  18.076  1.00  0.00    -0.025 A 
HETATM   15  C9  LIG X 999      43.947 131.583  16.714  1.00  0.00     0.012 A 
HETATM   16  C13 LIG X 999      44.518 131.118  19.056  1.00  0.00    -0.015 A 
HETATM   17  C10 LIG X 999      45.181 131.083  16.306  1.00  0.00     0.001 A 
HETATM   18  C11 LIG X 999      46.090 130.614  17.251  1.00  0.00     0.001 A 
HETATM   19  C12 LIG X 999      45.770 130.631  18.611  1.00  0.00     0.013 A 
ENDBRANCH   3  10
BRANCH   1  20
HETATM   20  C1  LIG X 999      44.972 127.161  21.930  1.00  0.00     0.164 C 
HETATM   21  N3  LIG X 999      44.331 126.378  22.737  1.00  0.00    -0.143 NA
BRANCH  21  22
HETATM   22  N2  LIG X 999      43.963 125.089  22.339  1.00  0.00    -0.052 NA
HETATM   23  N1  LIG X 999      42.743 124.821  22.110  1.00  0.00    -0.184 NA
HETATM   24  H1  LIG X 999      42.467 123.860  21.813  1.00  0.00     0.214 HD
ENDBRANCH  21  22
ENDBRANCH   1  20
TORSDOF 3
