REMARK VINA RESULT:      -5.5      1.824      3.396
REMARK  1 active torsions:
REMARK  status: ('A' for Active; 'I' for Inactive)
REMARK    1  A    between atoms: C5_8  and  O1_9 
ROOT
HETATM    1  H1  LIG X 999      46.486 130.443  17.034  1.00  0.00     0.187 HD
HETATM    2  N1  LIG X 999      45.592 130.877  17.356  1.00  0.00    -0.300 NA
HETATM    3  C1  LIG X 999      45.258 130.906  18.606  1.00  0.00     0.059 A 
HETATM    4  C2  LIG X 999      46.151 130.310  19.662  1.00  0.00     0.034 A 
HETATM    5  C3  LIG X 999      45.803 130.341  20.970  1.00  0.00     0.035 A 
HETATM    6  C4  LIG X 999      44.524 130.972  21.340  1.00  0.00     0.071 A 
HETATM    7  N2  LIG X 999      43.969 131.122  22.566  1.00  0.00    -0.224 NA
HETATM    8  C5  LIG X 999      42.792 131.772  22.325  1.00  0.00     0.174 A 
HETATM    9  C6  LIG X 999      42.623 132.019  20.972  1.00  0.00     0.030 A 
HETATM   10  C7  LIG X 999      41.632 132.633  20.204  1.00  0.00     0.017 A 
HETATM   11  C8  LIG X 999      41.836 132.690  18.802  1.00  0.00     0.002 A 
HETATM   12  C9  LIG X 999      43.009 132.140  18.213  1.00  0.00     0.015 A 
HETATM   13  C10 LIG X 999      43.980 131.530  19.037  1.00  0.00     0.005 A 
HETATM   14  C11 LIG X 999      43.724 131.506  20.388  1.00  0.00     0.020 A 
ENDROOT
BRANCH   8  15
HETATM   15  O1  LIG X 999      41.891 132.131  23.320  1.00  0.00    -0.344 OA
HETATM   16  H4  LIG X 999      42.156 132.088  24.296  1.00  0.00     0.219 HD
ENDBRANCH   8  15
TORSDOF 1
