REMARK VINA RESULT:      -6.9      2.282      5.480
REMARK  1 active torsions:
REMARK  status: ('A' for Active; 'I' for Inactive)
REMARK    1  A    between atoms: N1_2  and  C1_3 
ROOT
HETATM    1  C1  LIG X 999      42.586 131.995  18.980  1.00  0.00     0.120 C 
HETATM    2  C2  LIG X 999      43.820 131.581  19.469  1.00  0.00     0.057 C 
HETATM    3  C3  LIG X 999      44.865 131.264  18.590  1.00  0.00    -0.045 C 
HETATM    4  C4  LIG X 999      46.235 131.130  19.208  1.00  0.00     0.049 C 
HETATM    5  C5  LIG X 999      44.607 131.230  17.182  1.00  0.00     0.008 C 
HETATM    6  C6  LIG X 999      45.508 130.719  16.189  1.00  0.00    -0.013 C 
HETATM    7  C7  LIG X 999      46.573 129.834  16.482  1.00  0.00     0.013 C 
HETATM    8  C8  LIG X 999      47.457 129.411  15.487  1.00  0.00     0.001 C 
HETATM    9  C9  LIG X 999      47.276 129.816  14.168  1.00  0.00     0.001 C 
HETATM   10  C10 LIG X 999      46.175 130.599  13.828  1.00  0.00     0.012 C 
HETATM   11  C11 LIG X 999      45.271 131.019  14.816  1.00  0.00    -0.025 C 
HETATM   12  C12 LIG X 999      44.105 131.686  14.433  1.00  0.00     0.014 C 
HETATM   13  C13 LIG X 999      43.143 132.013  15.378  1.00  0.00     0.031 C 
HETATM   14  C14 LIG X 999      43.370 131.786  16.740  1.00  0.00     0.045 C 
HETATM   15  N2  LIG X 999      42.400 132.125  17.638  1.00  0.00    -0.341 N 
HETATM   16  H12 LIG X 999      41.486 132.496  17.289  1.00  0.00     0.167 HD
ENDROOT
BRANCH   1  17
HETATM   17  N1  LIG X 999      41.637 132.295  19.810  1.00  0.00    -0.284 NA
HETATM   18  H1  LIG X 999      41.788 132.319  20.843  1.00  0.00     0.188 HD
ENDBRANCH   1  17
TORSDOF 1
