REMARK VINA RESULT:      -5.6      2.738      3.893
REMARK  6 active torsions:
REMARK  status: ('A' for Active; 'I' for Inactive)
REMARK    1  A    between atoms: C6_6  and  N1_7 
REMARK       I    between atoms: N1_7  and  C7_8 
REMARK    2  A    between atoms: C7_8  and  O2_10 
REMARK    3  A    between atoms: O2_10  and  C8_11 
REMARK    4  A    between atoms: C8_11  and  C10_13 
REMARK    5  A    between atoms: C10_13  and  O3_14 
REMARK    6  A    between atoms: C12_16  and  N2_17 
ROOT
HETATM    1  N2  LIG X 999      45.648 126.774  22.650  1.00  0.00    -0.070 NA
HETATM    2  N3  LIG X 999      46.461 125.942  22.246  1.00  0.00    -0.162 NA
HETATM    3  N4  LIG X 999      47.275 125.112  21.841  1.00  0.00     0.068 N 
ENDROOT
BRANCH   1   4
HETATM    4  C12 LIG X 999      44.279 126.441  22.929  1.00  0.00     0.122 A 
HETATM    5  C6  LIG X 999      43.533 127.280  23.776  1.00  0.00     0.095 A 
HETATM    6  C5  LIG X 999      42.201 126.953  24.085  1.00  0.00     0.046 A 
HETATM    7  C4  LIG X 999      41.595 125.822  23.518  1.00  0.00    -0.024 A 
HETATM    8  C3  LIG X 999      40.260 125.502  23.815  1.00  0.00     0.012 A 
HETATM    9  C14 LIG X 999      42.337 124.993  22.646  1.00  0.00    -0.024 A 
HETATM   10  C2  LIG X 999      39.666 124.373  23.245  1.00  0.00     0.001 A 
HETATM   11  C1  LIG X 999      40.399 123.554  22.380  1.00  0.00     0.001 A 
HETATM   12  C15 LIG X 999      41.729 123.861  22.080  1.00  0.00     0.012 A 
HETATM   13  C13 LIG X 999      43.673 125.304  22.361  1.00  0.00     0.049 A 
BRANCH   5  14
HETATM   14  N1  LIG X 999      44.172 128.429  24.355  1.00  0.00    -0.185 NA
HETATM   15  C7  LIG X 999      44.198 129.744  23.792  1.00  0.00     0.387 C 
HETATM   16  O1  LIG X 999      44.575 130.709  24.510  1.00  0.00    -0.236 OA
BRANCH  15  17
HETATM   17  O2  LIG X 999      43.849 129.948  22.452  1.00  0.00    -0.295 OA
BRANCH  17  18
HETATM   18  C8  LIG X 999      44.210 131.110  21.705  1.00  0.00     0.153 C 
HETATM   19  C9  LIG X 999      45.357 130.778  20.744  1.00  0.00     0.042 C 
BRANCH  18  20
HETATM   20  C10 LIG X 999      42.976 131.601  20.941  1.00  0.00     0.199 C 
BRANCH  20  21
HETATM   21  O3  LIG X 999      43.348 131.993  19.635  1.00  0.00    -0.393 OA
HETATM   22  C11 LIG X 999      42.206 132.012  18.811  1.00  0.00     0.201 C 
ENDBRANCH  20  21
ENDBRANCH  18  20
ENDBRANCH  17  18
ENDBRANCH  15  17
ENDBRANCH   5  14
ENDBRANCH   1   4
TORSDOF 6
