REMARK VINA RESULT:      -6.7      1.538      2.210
REMARK  1 active torsions:
REMARK  status: ('A' for Active; 'I' for Inactive)
REMARK    1  A    between atoms: C2_5  and  C3_6 
ROOT
HETATM    1  C3  LIG X 999      43.606 131.703  19.222  1.00  0.00     0.030 A 
HETATM    2  C4  LIG X 999      42.552 132.607  18.977  1.00  0.00     0.017 A 
HETATM    3  C5  LIG X 999      41.710 133.039  19.997  1.00  0.00     0.002 A 
HETATM    4  C6  LIG X 999      41.892 132.584  21.294  1.00  0.00     0.012 A 
HETATM    5  C7  LIG X 999      42.924 131.685  21.590  1.00  0.00    -0.025 A 
HETATM    6  C8  LIG X 999      43.082 131.244  22.914  1.00  0.00     0.012 A 
HETATM    7  C9  LIG X 999      44.098 130.352  23.243  1.00  0.00     0.001 A 
HETATM    8  C10 LIG X 999      44.964 129.892  22.257  1.00  0.00     0.001 A 
HETATM    9  C11 LIG X 999      44.825 130.320  20.934  1.00  0.00     0.013 A 
HETATM   10  C12 LIG X 999      43.802 131.227  20.562  1.00  0.00    -0.011 A 
ENDROOT
BRANCH   1  11
HETATM   11  C2  LIG X 999      44.430 131.328  18.030  1.00  0.00     0.203 A 
HETATM   12  O1  LIG X 999      45.490 130.545  18.104  1.00  0.00    -0.255 OA
HETATM   13  C1  LIG X 999      45.932 130.452  16.876  1.00  0.00     0.262 A 
HETATM   14  N1  LIG X 999      46.968 129.766  16.520  1.00  0.00    -0.260 NA
HETATM   15  N3  LIG X 999      45.175 131.160  16.030  1.00  0.00    -0.238 N 
HETATM   16  H1  LIG X 999      47.523 129.232  17.225  1.00  0.00     0.190 HD
HETATM   17  N2  LIG X 999      44.219 131.719  16.753  1.00  0.00    -0.145 NA
HETATM   18  H9  LIG X 999      45.291 131.268  14.998  1.00  0.00     0.193 HD
ENDBRANCH   1  11
TORSDOF 1
