REMARK VINA RESULT:      -6.7      2.682      4.718
REMARK  7 active torsions:
REMARK  status: ('A' for Active; 'I' for Inactive)
REMARK    1  A    between atoms: S1_2  and  C1_3 
REMARK    2  A    between atoms: C1_3  and  N2_11 
REMARK    3  A    between atoms: N1_4  and  C2_6 
REMARK    4  A    between atoms: C2_6  and  C3_7 
REMARK    5  A    between atoms: C3_7  and  C4_8 
REMARK    6  A    between atoms: C4_8  and  S2_9 
REMARK    7  A    between atoms: N2_11  and  C5_14 
ROOT
HETATM    1  N2  LIG X 999      45.047 131.228  21.959  1.00  0.00     0.006 N 
HETATM    2  H10 LIG X 999      44.729 132.070  22.492  1.00  0.00     0.293 HD
HETATM    3  H11 LIG X 999      46.083 131.148  22.080  1.00  0.00     0.293 HD
ENDROOT
BRANCH   1   4
HETATM    4  C1  LIG X 999      44.398 130.050  22.480  1.00  0.00     0.240 C 
HETATM    5  N1  LIG X 999      44.965 128.889  22.348  1.00  0.00    -0.365 N 
HETATM    6  H2  LIG X 999      45.841 128.822  21.808  1.00  0.00     0.161 HD
BRANCH   4   7
HETATM    7  S1  LIG X 999      42.813 130.247  23.329  1.00  0.00    -0.100 SA
HETATM    8  H1  LIG X 999      42.093 129.930  22.163  1.00  0.00     0.110 HD
ENDBRANCH   4   7
BRANCH   5   9
HETATM    9  C2  LIG X 999      44.477 127.671  22.969  1.00  0.00     0.122 C 
BRANCH   9  10
HETATM   10  C3  LIG X 999      44.963 126.425  22.211  1.00  0.00     0.029 C 
BRANCH  10  11
HETATM   11  C4  LIG X 999      44.178 125.169  22.607  1.00  0.00     0.072 C 
BRANCH  11  12
HETATM   12  S2  LIG X 999      42.699 125.621  23.564  1.00  0.00    -0.182 SA
HETATM   13  H9  LIG X 999      41.843 124.845  22.759  1.00  0.00     0.101 HD
ENDBRANCH  11  12
ENDBRANCH  10  11
ENDBRANCH   9  10
ENDBRANCH   5   9
ENDBRANCH   1   4
BRANCH   1  14
HETATM   14  C5  LIG X 999      44.745 131.352  20.553  1.00  0.00     0.141 A 
HETATM   15  C6  LIG X 999      43.542 131.943  20.132  1.00  0.00     0.038 A 
HETATM   16  C7  LIG X 999      43.215 132.002  18.775  1.00  0.00     0.014 A 
HETATM   17  C8  LIG X 999      44.083 131.464  17.816  1.00  0.00    -0.026 A 
HETATM   18  C9  LIG X 999      43.759 131.508  16.451  1.00  0.00     0.012 A 
HETATM   19  C13 LIG X 999      45.298 130.865  18.228  1.00  0.00    -0.024 A 
HETATM   20  C10 LIG X 999      44.631 130.962  15.505  1.00  0.00     0.001 A 
HETATM   21  C11 LIG X 999      45.829 130.370  15.911  1.00  0.00     0.001 A 
HETATM   22  C12 LIG X 999      46.165 130.320  17.267  1.00  0.00     0.012 A 
HETATM   23  C14 LIG X 999      45.622 130.815  19.592  1.00  0.00     0.049 A 
ENDBRANCH   1  14
TORSDOF 7
