REMARK VINA RESULT:      -5.6      2.035      3.478
REMARK  1 active torsions:
REMARK  status: ('A' for Active; 'I' for Inactive)
REMARK    1  A    between atoms: C5_8  and  O1_9 
ROOT
HETATM    1  H1  LIG X 999      44.316 131.673  16.542  1.00  0.00     0.187 HD
HETATM    2  N1  LIG X 999      45.028 131.217  17.152  1.00  0.00    -0.300 NA
HETATM    3  C1  LIG X 999      44.916 131.142  18.441  1.00  0.00     0.059 A 
HETATM    4  C2  LIG X 999      45.994 130.464  19.237  1.00  0.00     0.034 A 
HETATM    5  C3  LIG X 999      45.916 130.364  20.583  1.00  0.00     0.035 A 
HETATM    6  C4  LIG X 999      44.742 130.938  21.261  1.00  0.00     0.071 A 
HETATM    7  N2  LIG X 999      44.449 130.958  22.583  1.00  0.00    -0.224 NA
HETATM    8  C5  LIG X 999      43.251 131.610  22.650  1.00  0.00     0.174 A 
HETATM    9  C6  LIG X 999      42.812 131.985  21.391  1.00  0.00     0.030 A 
HETATM   10  C7  LIG X 999      41.688 132.655  20.908  1.00  0.00     0.017 A 
HETATM   11  C8  LIG X 999      41.599 132.852  19.509  1.00  0.00     0.002 A 
HETATM   12  C9  LIG X 999      42.622 132.381  18.639  1.00  0.00     0.015 A 
HETATM   13  C10 LIG X 999      43.744 131.708  19.177  1.00  0.00     0.005 A 
HETATM   14  C11 LIG X 999      43.768 131.548  20.546  1.00  0.00     0.020 A 
ENDROOT
BRANCH   8  15
HETATM   15  O1  LIG X 999      42.573 131.856  23.838  1.00  0.00    -0.344 OA
HETATM   16  H4  LIG X 999      41.727 132.413  23.843  1.00  0.00     0.219 HD
ENDBRANCH   8  15
TORSDOF 1
