REMARK VINA RESULT:      -6.4      3.095      6.756
REMARK  3 active torsions:
REMARK  status: ('A' for Active; 'I' for Inactive)
REMARK    1  A    between atoms: C3_3  and  O1_4 
REMARK    2  A    between atoms: O1_4  and  C4_5 
REMARK    3  A    between atoms: C5_7  and  C6_8 
ROOT
HETATM    1  C1  LIG X 999      42.465 132.497  24.625  1.00  0.00     0.014 C 
HETATM    2  C2  LIG X 999      42.383 131.353  24.253  1.00  0.00    -0.091 C 
HETATM    3  C3  LIG X 999      42.282 129.966  23.799  1.00  0.00     0.270 C 
ENDROOT
BRANCH   3   4
HETATM    4  O1  LIG X 999      42.941 129.834  22.547  1.00  0.00    -0.317 OA
BRANCH   4   5
HETATM    5  C4  LIG X 999      44.326 129.972  22.411  1.00  0.00     0.217 C 
HETATM    6  O2  LIG X 999      45.180 129.403  23.352  1.00  0.00    -0.164 OA
HETATM    7  C5  LIG X 999      44.847 130.665  21.393  1.00  0.00     0.079 C 
BRANCH   7   8
HETATM    8  C6  LIG X 999      44.024 131.298  20.334  1.00  0.00    -0.020 A 
HETATM    9  C7  LIG X 999      42.832 131.954  20.691  1.00  0.00     0.012 A 
HETATM   10  C8  LIG X 999      42.008 132.521  19.719  1.00  0.00     0.002 A 
HETATM   11  C9  LIG X 999      42.347 132.434  18.372  1.00  0.00     0.012 A 
HETATM   12  C10 LIG X 999      43.522 131.777  17.980  1.00  0.00    -0.025 A 
HETATM   13  C11 LIG X 999      43.857 131.692  16.620  1.00  0.00     0.012 A 
HETATM   14  C15 LIG X 999      44.375 131.200  18.961  1.00  0.00    -0.015 A 
HETATM   15  C12 LIG X 999      45.030 131.049  16.222  1.00  0.00     0.001 A 
HETATM   16  C13 LIG X 999      45.880 130.491  17.176  1.00  0.00     0.001 A 
HETATM   17  C14 LIG X 999      45.562 130.564  18.534  1.00  0.00     0.013 A 
ENDBRANCH   7   8
ENDBRANCH   4   5
ENDBRANCH   3   4
TORSDOF 3
