REMARK VINA RESULT:      -2.9      3.033      3.661
REMARK  3 active torsions:
REMARK  status: ('A' for Active; 'I' for Inactive)
REMARK    1  A    between atoms: C3_3  and  S1_4 
REMARK    2  A    between atoms: S1_4  and  C4_7 
REMARK    3  A    between atoms: C6_9  and  N1_10 
ROOT
HETATM    1  C1  LIG X 999      45.350 131.493  16.825  1.00  0.00     0.013 C 
HETATM    2  C2  LIG X 999      44.894 131.604  17.936  1.00  0.00    -0.102 C 
HETATM    3  C3  LIG X 999      44.345 131.740  19.286  1.00  0.00     0.238 C 
ENDROOT
BRANCH   3   4
HETATM    4  S1  LIG X 999      45.433 130.962  20.467  1.00  0.00     0.186 S 
HETATM    5  O1  LIG X 999      46.125 129.787  19.836  1.00  0.00    -0.222 OA
HETATM    6  O2  LIG X 999      46.486 131.958  20.870  1.00  0.00    -0.222 OA
BRANCH   4   7
HETATM    7  C4  LIG X 999      44.516 130.433  21.895  1.00  0.00     0.073 A 
HETATM    8  C5  LIG X 999      43.615 131.342  22.472  1.00  0.00     0.058 A 
HETATM    9  C6  LIG X 999      42.847 130.994  23.595  1.00  0.00     0.095 A 
HETATM   10  C7  LIG X 999      42.978 129.721  24.149  1.00  0.00     0.046 A 
HETATM   11  C8  LIG X 999      43.859 128.787  23.594  1.00  0.00    -0.021 A 
HETATM   12  C9  LIG X 999      43.963 127.502  24.165  1.00  0.00     0.022 A 
HETATM   13  C13 LIG X 999      44.642 129.132  22.449  1.00  0.00    -0.004 A 
HETATM   14  C10 LIG X 999      44.843 126.585  23.597  1.00  0.00    -0.024 A 
HETATM   15  C11 LIG X 999      45.589 126.901  22.506  1.00  0.00    -0.024 A 
HETATM   16  C17 LIG X 999      45.090 125.188  24.011  1.00  0.00     0.276 C 
HETATM   17  C12 LIG X 999      45.513 128.156  21.905  1.00  0.00     0.023 A 
HETATM   18  C14 LIG X 999      46.409 125.743  22.085  1.00  0.00     0.276 C 
HETATM   19  N4  LIG X 999      46.210 124.702  23.143  1.00  0.00    -0.067 N 
HETATM   20  C15 LIG X 999      47.446 124.553  23.947  1.00  0.00     0.272 C 
HETATM   21  C16 LIG X 999      45.871 123.395  22.534  1.00  0.00     0.272 C 
BRANCH   9  22
HETATM   22  N1  LIG X 999      41.925 131.914  24.194  1.00  0.00    -0.073 NA
HETATM   23  N2  LIG X 999      41.135 132.585  23.528  1.00  0.00    -0.162 NA
HETATM   24  N3  LIG X 999      40.347 133.257  22.864  1.00  0.00     0.068 N 
ENDBRANCH   9  22
ENDBRANCH   4   7
ENDBRANCH   3   4
TORSDOF 3
