REMARK VINA RESULT:      -4.5      2.293      5.719
REMARK  5 active torsions:
REMARK  status: ('A' for Active; 'I' for Inactive)
REMARK    1  A    between atoms: C3_3  and  O1_4 
REMARK    2  A    between atoms: O1_4  and  C4_5 
REMARK    3  A    between atoms: C5_6  and  C6_7 
REMARK    4  A    between atoms: C6_7  and  O2_8 
REMARK    5  A    between atoms: C17_20  and  N1_21 
ROOT
HETATM    1  C1  LIG X 999      39.633 125.418  23.627  1.00  0.00     0.014 C 
HETATM    2  C2  LIG X 999      39.934 126.569  23.820  1.00  0.00    -0.091 C 
HETATM    3  C3  LIG X 999      40.302 127.964  24.055  1.00  0.00     0.268 C 
ENDROOT
BRANCH   3   4
HETATM    4  O1  LIG X 999      41.604 128.018  24.625  1.00  0.00    -0.337 OA
BRANCH   4   5
HETATM    5  C4  LIG X 999      42.731 128.266  23.835  1.00  0.00     0.106 C 
HETATM    6  C5  LIG X 999      43.081 129.591  23.509  1.00  0.00     0.012 C 
HETATM    7  C7  LIG X 999      44.128 129.820  22.580  1.00  0.00    -0.014 C 
HETATM    8  C8  LIG X 999      44.417 131.125  22.113  1.00  0.00     0.013 C 
HETATM    9  C12 LIG X 999      44.872 128.720  22.061  1.00  0.00    -0.012 C 
HETATM   10  C9  LIG X 999      45.339 131.331  21.091  1.00  0.00     0.001 C 
HETATM   11  C10 LIG X 999      45.960 130.247  20.488  1.00  0.00     0.001 C 
HETATM   12  C11 LIG X 999      45.714 128.955  20.948  1.00  0.00     0.013 C 
HETATM   13  C13 LIG X 999      44.673 127.413  22.604  1.00  0.00     0.011 C 
HETATM   14  C14 LIG X 999      45.573 126.315  22.430  1.00  0.00    -0.045 C 
HETATM   15  C18 LIG X 999      43.519 127.185  23.399  1.00  0.00     0.080 C 
HETATM   16  C15 LIG X 999      47.022 126.459  22.028  1.00  0.00     0.049 C 
HETATM   17  C16 LIG X 999      45.160 125.026  22.792  1.00  0.00     0.061 C 
HETATM   18  C17 LIG X 999      43.942 124.835  23.447  1.00  0.00     0.165 C 
HETATM   19  N4  LIG X 999      43.184 125.912  23.771  1.00  0.00    -0.336 N 
HETATM   20  H15 LIG X 999      42.317 125.733  24.329  1.00  0.00     0.168 HD
BRANCH   6  21
HETATM   21  C6  LIG X 999      42.305 130.743  24.124  1.00  0.00     0.206 C 
BRANCH  21  22
HETATM   22  O2  LIG X 999      41.970 131.667  23.126  1.00  0.00    -0.396 OA
HETATM   23  H6  LIG X 999      40.988 131.597  23.002  1.00  0.00     0.209 HD
ENDBRANCH  21  22
ENDBRANCH   6  21
BRANCH  18  24
HETATM   24  N1  LIG X 999      43.503 123.527  23.848  1.00  0.00    -0.054 NA
HETATM   25  N2  LIG X 999      42.528 122.973  23.340  1.00  0.00    -0.160 NA
HETATM   26  N3  LIG X 999      41.554 122.417  22.834  1.00  0.00     0.068 N 
ENDBRANCH  18  24
ENDBRANCH   4   5
ENDBRANCH   3   4
TORSDOF 5
