REMARK VINA RESULT:      -4.5      9.013     10.961
REMARK  2 active torsions:
REMARK  status: ('A' for Active; 'I' for Inactive)
REMARK    1  A    between atoms: C9_10  and  N2_11 
REMARK       I    between atoms: N2_11  and  C10_12 
REMARK    2  A    between atoms: C10_12  and  C11_14 
ROOT
HETATM    1  C11 LIG X 999      39.577 124.793  24.509  1.00  0.00     0.280 C 
HETATM    2 CL1  LIG X 999      38.567 125.959  23.616  1.00  0.00    -0.099 Cl
HETATM    3  C12 LIG X 999      39.007 123.449  24.376  1.00  0.00     0.089 C 
HETATM    4  N3  LIG X 999      38.558 122.388  24.273  1.00  0.00    -0.195 NA
ENDROOT
BRANCH   1   5
HETATM    5  C10 LIG X 999      40.981 124.813  23.984  1.00  0.00     0.254 C 
HETATM    6  N2  LIG X 999      41.851 123.687  24.189  1.00  0.00    -0.325 N 
HETATM    7  H12 LIG X 999      41.573 122.980  24.906  1.00  0.00     0.169 HD
HETATM    8  O1  LIG X 999      41.406 125.854  23.410  1.00  0.00    -0.270 OA
BRANCH   6   9
HETATM    9  C9  LIG X 999      43.129 123.532  23.550  1.00  0.00     0.035 A 
HETATM   10  C8  LIG X 999      43.217 122.785  22.365  1.00  0.00     0.030 A 
HETATM   11  C7  LIG X 999      44.438 122.629  21.706  1.00  0.00     0.014 A 
HETATM   12  C6  LIG X 999      45.595 123.233  22.215  1.00  0.00    -0.025 A 
HETATM   13  C5  LIG X 999      46.831 123.085  21.556  1.00  0.00     0.021 A 
HETATM   14  C14 LIG X 999      45.515 124.013  23.404  1.00  0.00    -0.023 A 
HETATM   15  C4  LIG X 999      47.956 123.710  22.098  1.00  0.00    -0.024 A 
HETATM   16  C3  LIG X 999      49.336 123.711  21.567  1.00  0.00     0.276 C 
HETATM   17  C16 LIG X 999      47.879 124.459  23.233  1.00  0.00    -0.024 A 
HETATM   18  N1  LIG X 999      50.163 124.418  22.596  1.00  0.00    -0.067 N 
HETATM   19  C1  LIG X 999      51.003 125.462  21.966  1.00  0.00     0.272 C 
HETATM   20  C2  LIG X 999      51.042 123.450  23.294  1.00  0.00     0.272 C 
HETATM   21  C17 LIG X 999      49.201 125.030  23.568  1.00  0.00     0.276 C 
HETATM   22  C15 LIG X 999      46.672 124.636  23.911  1.00  0.00     0.021 A 
HETATM   23  C13 LIG X 999      44.281 124.161  24.055  1.00  0.00     0.042 A 
ENDBRANCH   6   9
ENDBRANCH   1   5
TORSDOF 2
