REMARK VINA RESULT:      -6.0      1.990      7.541
REMARK  3 active torsions:
REMARK  status: ('A' for Active; 'I' for Inactive)
REMARK    1  A    between atoms: C7_9  and  C8_10 
REMARK    2  A    between atoms: C9_13  and  N4_14 
REMARK    3  A    between atoms: N7_23  and  C14_24 
ROOT
HETATM    1  N4  LIG X 999      41.868 130.156  24.625  1.00  0.00    -0.023 NA
HETATM    2  N5  LIG X 999      41.539 128.971  24.579  1.00  0.00    -0.158 NA
HETATM    3  N6  LIG X 999      41.210 127.786  24.534  1.00  0.00     0.068 N 
ENDROOT
BRANCH   1   4
HETATM    4  C9  LIG X 999      42.863 130.670  23.742  1.00  0.00     0.326 A 
HETATM    5  N3  LIG X 999      43.820 131.534  24.122  1.00  0.00    -0.099 NA
HETATM    6  N2  LIG X 999      44.541 131.773  23.037  1.00  0.00    -0.119 NA
HETATM    7  C8  LIG X 999      43.989 131.050  22.040  1.00  0.00     0.205 A 
HETATM    8  O1  LIG X 999      42.960 130.361  22.472  1.00  0.00    -0.252 OA
BRANCH   7   9
HETATM    9  C7  LIG X 999      44.520 131.003  20.663  1.00  0.00     0.032 A 
HETATM   10  C6  LIG X 999      43.765 131.417  19.523  1.00  0.00     0.020 A 
HETATM   11  C1  LIG X 999      42.448 132.135  19.475  1.00  0.00     0.060 A 
HETATM   12  C5  LIG X 999      44.348 131.196  18.287  1.00  0.00     0.019 A 
HETATM   13  N1  LIG X 999      41.874 132.562  20.553  1.00  0.00    -0.299 NA
HETATM   14  C2  LIG X 999      41.844 132.451  18.134  1.00  0.00     0.034 A 
HETATM   15  H1  LIG X 999      40.974 133.093  20.530  1.00  0.00     0.187 HD
HETATM   16  C3  LIG X 999      42.495 132.164  16.988  1.00  0.00     0.033 A 
HETATM   17  C4  LIG X 999      43.814 131.517  17.078  1.00  0.00     0.048 A 
HETATM   18  N7  LIG X 999      44.689 131.192  16.095  1.00  0.00    -0.324 N 
HETATM   19  C13 LIG X 999      45.784 130.683  16.725  1.00  0.00     0.193 A 
HETATM   20  C12 LIG X 999      45.584 130.673  18.095  1.00  0.00     0.032 A 
HETATM   21  O2  LIG X 999      46.938 130.259  16.075  1.00  0.00    -0.171 OA
HETATM   22  C11 LIG X 999      46.373 130.299  19.176  1.00  0.00     0.018 A 
HETATM   23  C10 LIG X 999      45.829 130.465  20.469  1.00  0.00     0.018 A 
BRANCH  18  24
HETATM   24  C14 LIG X 999      44.543 131.441  14.661  1.00  0.00     0.127 C 
HETATM   25  C15 LIG X 999      45.837 131.100  13.931  1.00  0.00     0.027 C 
ENDBRANCH  18  24
ENDBRANCH   7   9
ENDBRANCH   1   4
TORSDOF 3
