REMARK VINA RESULT:      -7.8      4.409      6.627
REMARK  3 active torsions:
REMARK  status: ('A' for Active; 'I' for Inactive)
REMARK    1  A    between atoms: C6_6  and  C7_7 
REMARK    2  A    between atoms: C7_7  and  N1_8 
REMARK    3  A    between atoms: C8_12  and  N4_13 
ROOT
HETATM    1  N1  LIG X 999      45.896 131.218  20.782  1.00  0.00    -0.065 NA
HETATM    2  N2  LIG X 999      46.446 132.257  21.149  1.00  0.00    -0.164 NA
HETATM    3  N3  LIG X 999      46.995 133.294  21.516  1.00  0.00     0.068 N 
ENDROOT
BRANCH   1   4
HETATM    4  C7  LIG X 999      44.646 131.265  20.037  1.00  0.00     0.267 A 
HETATM    5  O1  LIG X 999      43.813 132.298  20.511  1.00  0.00    -0.314 OA
HETATM    6  C8  LIG X 999      43.384 130.976  20.759  1.00  0.00     0.349 A 
BRANCH   4   7
HETATM    7  C6  LIG X 999      44.699 131.222  18.537  1.00  0.00     0.007 A 
HETATM    8  C5  LIG X 999      45.809 130.659  17.893  1.00  0.00     0.024 A 
HETATM    9  C4  LIG X 999      45.880 130.640  16.491  1.00  0.00    -0.025 A 
HETATM   10  C3  LIG X 999      46.985 130.073  15.838  1.00  0.00     0.012 A 
HETATM   11  C11 LIG X 999      44.827 131.201  15.728  1.00  0.00    -0.026 A 
HETATM   12  C2  LIG X 999      47.044 130.060  14.441  1.00  0.00     0.001 A 
HETATM   13  C1  LIG X 999      46.004 130.612  13.689  1.00  0.00     0.001 A 
HETATM   14  C12 LIG X 999      44.898 131.182  14.326  1.00  0.00     0.012 A 
HETATM   15  C10 LIG X 999      43.725 131.773  16.381  1.00  0.00     0.013 A 
HETATM   16  C9  LIG X 999      43.665 131.786  17.777  1.00  0.00     0.013 A 
ENDBRANCH   4   7
BRANCH   6  17
HETATM   17  N4  LIG X 999      43.534 130.640  22.167  1.00  0.00    -0.077 NA
HETATM   18  N5  LIG X 999      42.882 131.237  23.024  1.00  0.00    -0.165 NA
HETATM   19  N6  LIG X 999      42.233 131.834  23.880  1.00  0.00     0.068 N 
ENDBRANCH   6  17
ENDBRANCH   1   4
TORSDOF 3
