REMARK VINA RESULT:      -7.2      1.710      2.448
REMARK  3 active torsions:
REMARK  status: ('A' for Active; 'I' for Inactive)
REMARK    1  A    between atoms: C1_2  and  C2_4 
REMARK       I    between atoms: N1_6  and  C4_7 
REMARK    2  A    between atoms: C4_7  and  C5_9 
REMARK    3  A    between atoms: C6_10  and  C7_11 
ROOT
HETATM    1  C5  LIG X 999      43.046 132.007  19.355  1.00  0.00     0.000 C 
HETATM    2  C6  LIG X 999      43.596 131.776  18.308  1.00  0.00    -0.057 C 
ENDROOT
BRANCH   1   3
HETATM    3  C4  LIG X 999      42.386 132.275  20.605  1.00  0.00     0.300 C 
HETATM    4  N1  LIG X 999      42.578 131.411  21.735  1.00  0.00    -0.317 N 
HETATM    5  C3  LIG X 999      43.402 130.237  21.747  1.00  0.00     0.172 C 
HETATM    6  C17 LIG X 999      41.973 131.611  23.032  1.00  0.00     0.298 C 
HETATM    7  C2  LIG X 999      43.149 129.659  23.133  1.00  0.00     0.242 C 
HETATM    8  O4  LIG X 999      42.462 130.622  23.911  1.00  0.00    -0.354 OA
HETATM    9  O3  LIG X 999      41.635 133.281  20.699  1.00  0.00    -0.258 OA
BRANCH   7  10
HETATM   10  C1  LIG X 999      44.430 129.276  23.811  1.00  0.00     0.204 C 
HETATM   11  O1  LIG X 999      44.975 130.067  24.624  1.00  0.00    -0.646 OA
HETATM   12  O2  LIG X 999      44.994 128.026  23.584  1.00  0.00    -0.646 OA
ENDBRANCH   7  10
ENDBRANCH   1   3
BRANCH   2  13
HETATM   13  C7  LIG X 999      44.251 131.493  17.057  1.00  0.00     0.019 A 
HETATM   14  C8  LIG X 999      43.655 131.885  15.853  1.00  0.00     0.021 A 
HETATM   15  C9  LIG X 999      44.285 131.614  14.635  1.00  0.00     0.013 A 
HETATM   16  C10 LIG X 999      45.519 130.947  14.611  1.00  0.00    -0.026 A 
HETATM   17  C11 LIG X 999      46.160 130.670  13.394  1.00  0.00     0.012 A 
HETATM   18  C15 LIG X 999      46.125 130.550  15.829  1.00  0.00    -0.025 A 
HETATM   19  C12 LIG X 999      47.389 130.005  13.385  1.00  0.00     0.001 A 
HETATM   20  C13 LIG X 999      47.987 129.613  14.586  1.00  0.00     0.001 A 
HETATM   21  C14 LIG X 999      47.358 129.884  15.805  1.00  0.00     0.012 A 
HETATM   22  C16 LIG X 999      45.483 130.827  17.047  1.00  0.00     0.032 A 
ENDBRANCH   2  13
TORSDOF 3
