MODEL 1
REMARK VINA RESULT:      -8.4      0.000      0.000
REMARK  4 active torsions:
REMARK  status: ('A' for Active; 'I' for Inactive)
REMARK    1  A    between atoms: C3_3  and  O1_4 
REMARK    2  A    between atoms: O1_4  and  C4_5 
REMARK    3  A    between atoms: C4_5  and  O2_6 
REMARK    4  A    between atoms: C5_8  and  C6_9 
ROOT
HETATM    1  C1  LIG X 999      44.638 129.639  22.391  1.00  0.00     0.014 C 
HETATM    2  C2  LIG X 999      43.992 130.596  22.044  1.00  0.00    -0.091 C 
HETATM    3  C3  LIG X 999      43.211 131.759  21.622  1.00  0.00     0.266 C 
ENDROOT
BRANCH   3   4
HETATM    4  O1  LIG X 999      43.617 132.133  20.326  1.00  0.00    -0.319 OA
BRANCH   4   5
HETATM    5  C4  LIG X 999      42.477 132.475  19.570  1.00  0.00     0.314 A 
HETATM    6  O3  LIG X 999      41.846 131.311  19.092  1.00  0.00    -0.312 OA
HETATM    7  C5  LIG X 999      42.400 132.169  18.117  1.00  0.00     0.254 A 
BRANCH   5   8
HETATM    8  O2  LIG X 999      41.534 133.328  20.155  1.00  0.00    -0.341 OA
HETATM    9  H4  LIG X 999      42.051 133.909  20.770  1.00  0.00     0.215 HD
ENDBRANCH   5   8
BRANCH   7  10
HETATM   10  C6  LIG X 999      43.644 131.601  17.492  1.00  0.00    -0.021 A 
HETATM   11  C7  LIG X 999      44.612 130.946  18.271  1.00  0.00     0.011 A 
HETATM   12  C8  LIG X 999      45.761 130.417  17.676  1.00  0.00     0.013 A 
HETATM   13  C9  LIG X 999      45.951 130.524  16.290  1.00  0.00    -0.026 A 
HETATM   14  C10 LIG X 999      47.103 130.001  15.683  1.00  0.00     0.012 A 
HETATM   15  C14 LIG X 999      44.967 131.161  15.496  1.00  0.00    -0.025 A 
HETATM   16  C11 LIG X 999      47.277 130.109  14.300  1.00  0.00     0.001 A 
HETATM   17  C12 LIG X 999      46.306 130.738  13.516  1.00  0.00     0.001 A 
HETATM   18  C13 LIG X 999      45.153 131.263  14.109  1.00  0.00     0.012 A 
HETATM   19  C15 LIG X 999      43.815 131.685  16.103  1.00  0.00     0.022 A 
ENDBRANCH   7  10
ENDBRANCH   4   5
ENDBRANCH   3   4
TORSDOF 4
ENDMDL
MODEL 2
REMARK VINA RESULT:      -8.2      2.368      6.258
REMARK  4 active torsions:
REMARK  status: ('A' for Active; 'I' for Inactive)
REMARK    1  A    between atoms: C3_3  and  O1_4 
REMARK    2  A    between atoms: O1_4  and  C4_5 
REMARK    3  A    between atoms: C4_5  and  O2_6 
REMARK    4  A    between atoms: C5_8  and  C6_9 
ROOT
HETATM    1  C1  LIG X 999      47.984 130.489  13.407  1.00  0.00     0.014 C 
HETATM    2  C2  LIG X 999      47.183 129.883  14.076  1.00  0.00    -0.091 C 
HETATM    3  C3  LIG X 999      46.214 129.150  14.891  1.00  0.00     0.266 C 
ENDROOT
BRANCH   3   4
HETATM    4  O1  LIG X 999      45.824 129.962  15.973  1.00  0.00    -0.319 OA
BRANCH   4   5
HETATM    5  C4  LIG X 999      44.906 130.928  15.513  1.00  0.00     0.314 A 
HETATM    6  O3  LIG X 999      45.365 132.221  15.829  1.00  0.00    -0.312 OA
HETATM    7  C5  LIG X 999      44.176 131.806  16.466  1.00  0.00     0.254 A 
BRANCH   5   8
HETATM    8  O2  LIG X 999      44.512 130.872  14.171  1.00  0.00    -0.341 OA
HETATM    9  H4  LIG X 999      45.091 131.525  13.700  1.00  0.00     0.215 HD
ENDBRANCH   5   8
BRANCH   7  10
HETATM   10  C6  LIG X 999      44.377 131.514  17.927  1.00  0.00    -0.021 A 
HETATM   11  C7  LIG X 999      45.546 130.884  18.384  1.00  0.00     0.011 A 
HETATM   12  C8  LIG X 999      45.723 130.625  19.746  1.00  0.00     0.013 A 
HETATM   13  C9  LIG X 999      44.739 131.003  20.671  1.00  0.00    -0.026 A 
HETATM   14  C10 LIG X 999      44.903 130.742  22.040  1.00  0.00     0.012 A 
HETATM   15  C14 LIG X 999      43.568 131.660  20.218  1.00  0.00    -0.025 A 
HETATM   16  C11 LIG X 999      43.917 131.129  22.952  1.00  0.00     0.001 A 
HETATM   17  C12 LIG X 999      42.763 131.778  22.505  1.00  0.00     0.001 A 
HETATM   18  C13 LIG X 999      42.586 132.044  21.143  1.00  0.00     0.012 A 
HETATM   19  C15 LIG X 999      43.402 131.920  18.849  1.00  0.00     0.022 A 
ENDBRANCH   7  10
ENDBRANCH   4   5
ENDBRANCH   3   4
TORSDOF 4
ENDMDL
MODEL 3
REMARK VINA RESULT:      -7.9      2.148      4.071
REMARK  4 active torsions:
REMARK  status: ('A' for Active; 'I' for Inactive)
REMARK    1  A    between atoms: C3_3  and  O1_4 
REMARK    2  A    between atoms: O1_4  and  C4_5 
REMARK    3  A    between atoms: C4_5  and  O2_6 
REMARK    4  A    between atoms: C5_8  and  C6_9 
ROOT
HETATM    1  C1  LIG X 999      45.533 126.544  22.363  1.00  0.00     0.014 C 
HETATM    2  C2  LIG X 999      44.692 127.246  22.869  1.00  0.00    -0.091 C 
HETATM    3  C3  LIG X 999      43.675 128.100  23.482  1.00  0.00     0.266 C 
ENDROOT
BRANCH   3   4
HETATM    4  O1  LIG X 999      43.505 129.249  22.685  1.00  0.00    -0.319 OA
BRANCH   4   5
HETATM    5  C4  LIG X 999      44.060 130.357  23.356  1.00  0.00     0.314 A 
HETATM    6  O3  LIG X 999      43.128 131.411  23.402  1.00  0.00    -0.312 OA
HETATM    7  C5  LIG X 999      44.298 131.643  22.646  1.00  0.00     0.254 A 
BRANCH   5   8
HETATM    8  O2  LIG X 999      44.612 130.147  24.625  1.00  0.00    -0.341 OA
HETATM    9  H4  LIG X 999      45.305 129.449  24.497  1.00  0.00     0.215 HD
ENDBRANCH   5   8
BRANCH   7  10
HETATM   10  C6  LIG X 999      44.036 131.642  21.166  1.00  0.00    -0.021 A 
HETATM   11  C7  LIG X 999      42.805 132.079  20.648  1.00  0.00     0.011 A 
HETATM   12  C8  LIG X 999      42.578 132.079  19.270  1.00  0.00     0.013 A 
HETATM   13  C9  LIG X 999      43.583 131.655  18.388  1.00  0.00    -0.026 A 
HETATM   14  C10 LIG X 999      43.363 131.647  17.002  1.00  0.00     0.012 A 
HETATM   15  C14 LIG X 999      44.834 131.237  18.902  1.00  0.00    -0.025 A 
HETATM   16  C11 LIG X 999      44.376 131.228  16.134  1.00  0.00     0.001 A 
HETATM   17  C12 LIG X 999      45.611 130.815  16.641  1.00  0.00     0.001 A 
HETATM   18  C13 LIG X 999      45.842 130.820  18.020  1.00  0.00     0.012 A 
HETATM   19  C15 LIG X 999      45.054 131.245  20.288  1.00  0.00     0.022 A 
ENDBRANCH   7  10
ENDBRANCH   4   5
ENDBRANCH   3   4
TORSDOF 4
ENDMDL
MODEL 4
REMARK VINA RESULT:      -7.8      1.921      3.394
REMARK  4 active torsions:
REMARK  status: ('A' for Active; 'I' for Inactive)
REMARK    1  A    between atoms: C3_3  and  O1_4 
REMARK    2  A    between atoms: O1_4  and  C4_5 
REMARK    3  A    between atoms: C4_5  and  O2_6 
REMARK    4  A    between atoms: C5_8  and  C6_9 
ROOT
HETATM    1  C1  LIG X 999      45.326 127.616  22.858  1.00  0.00     0.014 C 
HETATM    2  C2  LIG X 999      44.269 128.120  23.147  1.00  0.00    -0.091 C 
HETATM    3  C3  LIG X 999      42.989 128.737  23.497  1.00  0.00     0.266 C 
ENDROOT
BRANCH   3   4
HETATM    4  O1  LIG X 999      42.707 129.758  22.568  1.00  0.00    -0.319 OA
BRANCH   4   5
HETATM    5  C4  LIG X 999      43.014 131.004  23.151  1.00  0.00     0.314 A 
HETATM    6  O3  LIG X 999      42.395 132.041  22.428  1.00  0.00    -0.312 OA
HETATM    7  C5  LIG X 999      43.807 132.021  22.411  1.00  0.00     0.254 A 
BRANCH   5   8
HETATM    8  O2  LIG X 999      42.776 131.164  24.521  1.00  0.00    -0.341 OA
HETATM    9  H4  LIG X 999      43.030 132.102  24.723  1.00  0.00     0.215 HD
ENDBRANCH   5   8
BRANCH   7  10
HETATM   10  C6  LIG X 999      44.360 131.593  21.080  1.00  0.00    -0.021 A 
HETATM   11  C7  LIG X 999      45.555 130.859  20.995  1.00  0.00     0.011 A 
HETATM   12  C8  LIG X 999      46.054 130.462  19.752  1.00  0.00     0.013 A 
HETATM   13  C9  LIG X 999      45.359 130.782  18.577  1.00  0.00    -0.026 A 
HETATM   14  C10 LIG X 999      45.854 130.393  17.322  1.00  0.00     0.012 A 
HETATM   15  C14 LIG X 999      44.141 131.501  18.657  1.00  0.00    -0.025 A 
HETATM   16  C11 LIG X 999      45.148 130.713  16.159  1.00  0.00     0.001 A 
HETATM   17  C12 LIG X 999      43.946 131.422  16.239  1.00  0.00     0.001 A 
HETATM   18  C13 LIG X 999      43.442 131.815  17.483  1.00  0.00     0.012 A 
HETATM   19  C15 LIG X 999      43.646 131.891  19.911  1.00  0.00     0.022 A 
ENDBRANCH   7  10
ENDBRANCH   4   5
ENDBRANCH   3   4
TORSDOF 4
ENDMDL
MODEL 5
REMARK VINA RESULT:      -7.5      1.445      3.092
REMARK  4 active torsions:
REMARK  status: ('A' for Active; 'I' for Inactive)
REMARK    1  A    between atoms: C3_3  and  O1_4 
REMARK    2  A    between atoms: O1_4  and  C4_5 
REMARK    3  A    between atoms: C4_5  and  O2_6 
REMARK    4  A    between atoms: C5_8  and  C6_9 
ROOT
HETATM    1  C1  LIG X 999      41.445 133.317  20.393  1.00  0.00     0.014 C 
HETATM    2  C2  LIG X 999      42.067 132.541  21.075  1.00  0.00    -0.091 C 
HETATM    3  C3  LIG X 999      42.819 131.596  21.900  1.00  0.00     0.266 C 
ENDROOT
BRANCH   3   4
HETATM    4  O1  LIG X 999      43.404 130.626  21.063  1.00  0.00    -0.319 OA
BRANCH   4   5
HETATM    5  C4  LIG X 999      44.740 130.421  21.462  1.00  0.00     0.314 A 
HETATM    6  O3  LIG X 999      45.468 131.620  21.349  1.00  0.00    -0.312 OA
HETATM    7  C5  LIG X 999      45.860 130.566  20.495  1.00  0.00     0.254 A 
BRANCH   5   8
HETATM    8  O2  LIG X 999      44.968 129.836  22.713  1.00  0.00    -0.341 OA
HETATM    9  H4  LIG X 999      45.088 130.596  23.340  1.00  0.00     0.215 HD
ENDBRANCH   5   8
BRANCH   7  10
HETATM   10  C6  LIG X 999      45.473 130.812  19.063  1.00  0.00    -0.021 A 
HETATM   11  C7  LIG X 999      44.361 131.606  18.740  1.00  0.00     0.011 A 
HETATM   12  C8  LIG X 999      44.017 131.831  17.404  1.00  0.00     0.013 A 
HETATM   13  C9  LIG X 999      44.788 131.276  16.373  1.00  0.00    -0.026 A 
HETATM   14  C10 LIG X 999      44.449 131.491  15.028  1.00  0.00     0.012 A 
HETATM   15  C14 LIG X 999      45.925 130.494  16.692  1.00  0.00    -0.025 A 
HETATM   16  C11 LIG X 999      45.229 130.937  14.010  1.00  0.00     0.001 A 
HETATM   17  C12 LIG X 999      46.351 130.166  14.325  1.00  0.00     0.001 A 
HETATM   18  C13 LIG X 999      46.701 129.944  15.661  1.00  0.00     0.012 A 
HETATM   19  C15 LIG X 999      46.265 130.277  18.036  1.00  0.00     0.022 A 
ENDBRANCH   7  10
ENDBRANCH   4   5
ENDBRANCH   3   4
TORSDOF 4
ENDMDL
MODEL 6
REMARK VINA RESULT:      -6.7      2.447      3.345
REMARK  4 active torsions:
REMARK  status: ('A' for Active; 'I' for Inactive)
REMARK    1  A    between atoms: C3_3  and  O1_4 
REMARK    2  A    between atoms: O1_4  and  C4_5 
REMARK    3  A    between atoms: C4_5  and  O2_6 
REMARK    4  A    between atoms: C5_8  and  C6_9 
ROOT
HETATM    1  C1  LIG X 999      48.076 135.116  21.861  1.00  0.00     0.014 C 
HETATM    2  C2  LIG X 999      47.724 133.980  21.660  1.00  0.00    -0.091 C 
HETATM    3  C3  LIG X 999      47.292 132.604  21.418  1.00  0.00     0.266 C 
ENDROOT
BRANCH   3   4
HETATM    4  O1  LIG X 999      46.063 132.626  20.730  1.00  0.00    -0.319 OA
BRANCH   4   5
HETATM    5  C4  LIG X 999      45.204 131.664  21.297  1.00  0.00     0.314 A 
HETATM    6  O3  LIG X 999      45.675 130.368  21.015  1.00  0.00    -0.312 OA
HETATM    7  C5  LIG X 999      44.435 130.723  20.440  1.00  0.00     0.254 A 
BRANCH   5   8
HETATM    8  O2  LIG X 999      44.898 131.778  22.659  1.00  0.00    -0.341 OA
HETATM    9  H4  LIG X 999      45.292 132.642  22.944  1.00  0.00     0.215 HD
ENDBRANCH   5   8
BRANCH   7  10
HETATM   10  C6  LIG X 999      44.531 130.946  18.957  1.00  0.00    -0.021 A 
HETATM   11  C7  LIG X 999      43.583 131.731  18.280  1.00  0.00     0.011 A 
HETATM   12  C8  LIG X 999      43.688 131.936  16.902  1.00  0.00     0.013 A 
HETATM   13  C9  LIG X 999      44.751 131.369  16.183  1.00  0.00    -0.026 A 
HETATM   14  C10 LIG X 999      44.864 131.564  14.797  1.00  0.00     0.012 A 
HETATM   15  C14 LIG X 999      45.724 130.597  16.863  1.00  0.00    -0.025 A 
HETATM   16  C11 LIG X 999      45.931 130.998  14.094  1.00  0.00     0.001 A 
HETATM   17  C12 LIG X 999      46.891 130.236  14.766  1.00  0.00     0.001 A 
HETATM   18  C13 LIG X 999      46.790 130.035  16.146  1.00  0.00     0.012 A 
HETATM   19  C15 LIG X 999      45.611 130.401  18.248  1.00  0.00     0.022 A 
ENDBRANCH   7  10
ENDBRANCH   4   5
ENDBRANCH   3   4
TORSDOF 4
ENDMDL
MODEL 7
REMARK VINA RESULT:      -6.6      2.788      6.017
REMARK  4 active torsions:
REMARK  status: ('A' for Active; 'I' for Inactive)
REMARK    1  A    between atoms: C3_3  and  O1_4 
REMARK    2  A    between atoms: O1_4  and  C4_5 
REMARK    3  A    between atoms: C4_5  and  O2_6 
REMARK    4  A    between atoms: C5_8  and  C6_9 
ROOT
HETATM    1  C1  LIG X 999      43.083 131.702  14.172  1.00  0.00     0.014 C 
HETATM    2  C2  LIG X 999      44.278 131.548  14.124  1.00  0.00    -0.091 C 
HETATM    3  C3  LIG X 999      45.728 131.364  14.069  1.00  0.00     0.266 C 
ENDROOT
BRANCH   3   4
HETATM    4  O1  LIG X 999      46.243 131.413  15.380  1.00  0.00    -0.319 OA
BRANCH   4   5
HETATM    5  C4  LIG X 999      46.799 130.158  15.700  1.00  0.00     0.314 A 
HETATM    6  O3  LIG X 999      45.785 129.185  15.781  1.00  0.00    -0.312 OA
HETATM    7  C5  LIG X 999      46.469 129.477  16.981  1.00  0.00     0.254 A 
BRANCH   5   8
HETATM    8  O2  LIG X 999      47.855 129.687  14.911  1.00  0.00    -0.341 OA
HETATM    9  H4  LIG X 999      47.980 128.740  15.179  1.00  0.00     0.215 HD
ENDBRANCH   5   8
BRANCH   7  10
HETATM   10  C6  LIG X 999      45.624 130.258  17.949  1.00  0.00    -0.021 A 
HETATM   11  C7  LIG X 999      46.073 130.520  19.254  1.00  0.00     0.011 A 
HETATM   12  C8  LIG X 999      45.280 131.252  20.141  1.00  0.00     0.013 A 
HETATM   13  C9  LIG X 999      44.033 131.745  19.732  1.00  0.00    -0.026 A 
HETATM   14  C10 LIG X 999      43.226 132.478  20.616  1.00  0.00     0.012 A 
HETATM   15  C14 LIG X 999      43.585 131.506  18.410  1.00  0.00    -0.025 A 
HETATM   16  C11 LIG X 999      41.987 132.968  20.194  1.00  0.00     0.001 A 
HETATM   17  C12 LIG X 999      41.546 132.732  18.889  1.00  0.00     0.001 A 
HETATM   18  C13 LIG X 999      42.340 132.004  17.998  1.00  0.00     0.012 A 
HETATM   19  C15 LIG X 999      44.391 130.772  17.525  1.00  0.00     0.022 A 
ENDBRANCH   7  10
ENDBRANCH   4   5
ENDBRANCH   3   4
TORSDOF 4
ENDMDL
MODEL 8
REMARK VINA RESULT:      -6.5      2.690      6.452
REMARK  4 active torsions:
REMARK  status: ('A' for Active; 'I' for Inactive)
REMARK    1  A    between atoms: C3_3  and  O1_4 
REMARK    2  A    between atoms: O1_4  and  C4_5 
REMARK    3  A    between atoms: C4_5  and  O2_6 
REMARK    4  A    between atoms: C5_8  and  C6_9 
ROOT
HETATM    1  C1  LIG X 999      43.115 131.496  13.851  1.00  0.00     0.014 C 
HETATM    2  C2  LIG X 999      44.313 131.402  13.950  1.00  0.00    -0.091 C 
HETATM    3  C3  LIG X 999      45.767 131.291  14.073  1.00  0.00     0.266 C 
ENDROOT
BRANCH   3   4
HETATM    4  O1  LIG X 999      46.121 131.432  15.429  1.00  0.00    -0.319 OA
BRANCH   4   5
HETATM    5  C4  LIG X 999      46.740 130.243  15.865  1.00  0.00     0.314 A 
HETATM    6  O3  LIG X 999      45.803 129.194  15.902  1.00  0.00    -0.312 OA
HETATM    7  C5  LIG X 999      46.341 129.596  17.143  1.00  0.00     0.254 A 
BRANCH   5   8
HETATM    8  O2  LIG X 999      47.902 129.828  15.204  1.00  0.00    -0.341 OA
HETATM    9  H4  LIG X 999      47.789 130.124  14.264  1.00  0.00     0.215 HD
ENDBRANCH   5   8
BRANCH   7  10
HETATM   10  C6  LIG X 999      45.347 130.346  17.986  1.00  0.00    -0.021 A 
HETATM   11  C7  LIG X 999      44.270 131.030  17.398  1.00  0.00     0.011 A 
HETATM   12  C8  LIG X 999      43.350 131.717  18.194  1.00  0.00     0.013 A 
HETATM   13  C9  LIG X 999      43.487 131.720  19.590  1.00  0.00    -0.026 A 
HETATM   14  C10 LIG X 999      42.571 132.411  20.399  1.00  0.00     0.012 A 
HETATM   15  C14 LIG X 999      44.557 131.012  20.190  1.00  0.00    -0.025 A 
HETATM   16  C11 LIG X 999      42.716 132.401  21.789  1.00  0.00     0.001 A 
HETATM   17  C12 LIG X 999      43.772 131.702  22.381  1.00  0.00     0.001 A 
HETATM   18  C13 LIG X 999      44.690 131.009  21.586  1.00  0.00     0.012 A 
HETATM   19  C15 LIG X 999      45.473 130.321  19.382  1.00  0.00     0.022 A 
ENDBRANCH   7  10
ENDBRANCH   4   5
ENDBRANCH   3   4
TORSDOF 4
ENDMDL
MODEL 9
REMARK VINA RESULT:      -6.0      2.659      6.345
REMARK  4 active torsions:
REMARK  status: ('A' for Active; 'I' for Inactive)
REMARK    1  A    between atoms: C3_3  and  O1_4 
REMARK    2  A    between atoms: O1_4  and  C4_5 
REMARK    3  A    between atoms: C4_5  and  O2_6 
REMARK    4  A    between atoms: C5_8  and  C6_9 
ROOT
HETATM    1  C1  LIG X 999      41.525 132.940  20.255  1.00  0.00     0.014 C 
HETATM    2  C2  LIG X 999      42.056 132.509  19.262  1.00  0.00    -0.091 C 
HETATM    3  C3  LIG X 999      42.704 131.986  18.059  1.00  0.00     0.266 C 
ENDROOT
BRANCH   3   4
HETATM    4  O1  LIG X 999      43.570 130.939  18.428  1.00  0.00    -0.319 OA
BRANCH   4   5
HETATM    5  C4  LIG X 999      44.902 131.377  18.292  1.00  0.00     0.314 A 
HETATM    6  O3  LIG X 999      45.782 130.279  18.349  1.00  0.00    -0.312 OA
HETATM    7  C5  LIG X 999      45.880 131.215  19.401  1.00  0.00     0.254 A 
BRANCH   5   8
HETATM    8  O2  LIG X 999      45.218 132.189  17.195  1.00  0.00    -0.341 OA
HETATM    9  H4  LIG X 999      46.059 131.815  16.826  1.00  0.00     0.215 HD
ENDBRANCH   5   8
BRANCH   7  10
HETATM   10  C6  LIG X 999      45.332 130.685  20.696  1.00  0.00    -0.021 A 
HETATM   11  C7  LIG X 999      44.640 131.522  21.586  1.00  0.00     0.011 A 
HETATM   12  C8  LIG X 999      44.130 131.014  22.784  1.00  0.00     0.013 A 
HETATM   13  C9  LIG X 999      44.295 129.658  23.103  1.00  0.00    -0.026 A 
HETATM   14  C10 LIG X 999      43.792 129.138  24.305  1.00  0.00     0.012 A 
HETATM   15  C14 LIG X 999      44.972 128.803  22.198  1.00  0.00    -0.025 A 
HETATM   16  C11 LIG X 999      43.959 127.783  24.608  1.00  0.00     0.001 A 
HETATM   17  C12 LIG X 999      44.626 126.940  23.715  1.00  0.00     0.001 A 
HETATM   18  C13 LIG X 999      45.131 127.446  22.514  1.00  0.00     0.012 A 
HETATM   19  C15 LIG X 999      45.476 129.323  20.996  1.00  0.00     0.022 A 
ENDBRANCH   7  10
ENDBRANCH   4   5
ENDBRANCH   3   4
TORSDOF 4
ENDMDL
