REMARK VINA RESULT:      -7.7      3.819      6.346
REMARK  3 active torsions:
REMARK  status: ('A' for Active; 'I' for Inactive)
REMARK    1  A    between atoms: C6_6  and  C7_7 
REMARK    2  A    between atoms: C7_7  and  N1_8 
REMARK    3  A    between atoms: C8_12  and  N4_13 
ROOT
HETATM    1  N1  LIG X 999      43.391 130.985  18.829  1.00  0.00    -0.065 NA
HETATM    2  N2  LIG X 999      42.737 131.975  19.157  1.00  0.00    -0.164 NA
HETATM    3  N3  LIG X 999      42.084 132.964  19.484  1.00  0.00     0.068 N 
ENDROOT
BRANCH   1   4
HETATM    4  C7  LIG X 999      44.845 131.050  18.741  1.00  0.00     0.267 A 
HETATM    5  O1  LIG X 999      45.463 130.083  19.559  1.00  0.00    -0.314 OA
HETATM    6  C8  LIG X 999      45.607 131.430  19.958  1.00  0.00     0.349 A 
BRANCH   4   7
HETATM    7  C6  LIG X 999      45.478 131.171  17.387  1.00  0.00     0.007 A 
HETATM    8  C5  LIG X 999      46.177 130.089  16.832  1.00  0.00     0.024 A 
HETATM    9  C4  LIG X 999      46.747 130.197  15.555  1.00  0.00    -0.025 A 
HETATM   10  C3  LIG X 999      47.454 129.122  14.993  1.00  0.00     0.012 A 
HETATM   11  C11 LIG X 999      46.606 131.400  14.822  1.00  0.00    -0.026 A 
HETATM   12  C2  LIG X 999      48.017 129.241  13.719  1.00  0.00     0.001 A 
HETATM   13  C1  LIG X 999      47.878 130.429  12.998  1.00  0.00     0.001 A 
HETATM   14  C12 LIG X 999      47.176 131.507  13.543  1.00  0.00     0.012 A 
HETATM   15  C10 LIG X 999      45.895 132.474  15.381  1.00  0.00     0.013 A 
HETATM   16  C9  LIG X 999      45.332 132.356  16.653  1.00  0.00     0.013 A 
ENDBRANCH   4   7
BRANCH   6  17
HETATM   17  N4  LIG X 999      44.823 131.690  21.156  1.00  0.00    -0.077 NA
HETATM   18  N5  LIG X 999      44.623 130.799  21.981  1.00  0.00    -0.165 NA
HETATM   19  N6  LIG X 999      44.424 129.908  22.805  1.00  0.00     0.068 N 
ENDBRANCH   6  17
ENDBRANCH   1   4
TORSDOF 3
