REMARK VINA RESULT:      -6.2      4.679      7.272
REMARK  4 active torsions:
REMARK  status: ('A' for Active; 'I' for Inactive)
REMARK    1  A    between atoms: C3_3  and  O1_4 
REMARK    2  A    between atoms: O1_4  and  C4_5 
REMARK    3  A    between atoms: C4_5  and  O2_6 
REMARK    4  A    between atoms: C5_8  and  C6_9 
ROOT
HETATM    1  C1  LIG X 999      42.070 124.075  21.599  1.00  0.00     0.014 C 
HETATM    2  C2  LIG X 999      42.155 124.850  22.519  1.00  0.00    -0.091 C 
HETATM    3  C3  LIG X 999      42.260 125.791  23.635  1.00  0.00     0.270 C 
ENDROOT
BRANCH   3   4
HETATM    4  O1  LIG X 999      43.038 126.908  23.230  1.00  0.00    -0.319 OA
BRANCH   4   5
HETATM    5  C4  LIG X 999      44.399 127.023  23.529  1.00  0.00     0.179 C 
HETATM    6  C5  LIG X 999      44.999 128.218  23.472  1.00  0.00     0.075 C 
BRANCH   5   7
HETATM    7  O2  LIG X 999      45.127 125.890  23.895  1.00  0.00    -0.341 OA
HETATM    8  H4  LIG X 999      46.088 125.751  23.603  1.00  0.00     0.220 HD
ENDBRANCH   5   7
BRANCH   6   9
HETATM    9  C6  LIG X 999      44.270 129.460  23.130  1.00  0.00    -0.021 A 
HETATM   10  C7  LIG X 999      43.320 129.927  24.051  1.00  0.00     0.012 A 
HETATM   11  C8  LIG X 999      42.558 131.062  23.776  1.00  0.00     0.002 A 
HETATM   12  C9  LIG X 999      42.738 131.758  22.581  1.00  0.00     0.012 A 
HETATM   13  C10 LIG X 999      43.703 131.336  21.657  1.00  0.00    -0.025 A 
HETATM   14  C11 LIG X 999      43.898 132.057  20.468  1.00  0.00     0.012 A 
HETATM   15  C15 LIG X 999      44.494 130.186  21.929  1.00  0.00    -0.015 A 
HETATM   16  C12 LIG X 999      44.879 131.661  19.558  1.00  0.00     0.001 A 
HETATM   17  C13 LIG X 999      45.681 130.552  19.830  1.00  0.00     0.001 A 
HETATM   18  C14 LIG X 999      45.499 129.823  21.007  1.00  0.00     0.013 A 
ENDBRANCH   6   9
ENDBRANCH   4   5
ENDBRANCH   3   4
TORSDOF 4
