REMARK VINA RESULT:      -6.0      1.884      5.667
REMARK  1 active torsions:
REMARK  status: ('A' for Active; 'I' for Inactive)
REMARK    1  A    between atoms: C13_15  and  N2_16 
ROOT
HETATM    1  N1  LIG X 999      44.150 131.167  22.164  1.00  0.00    -0.191 NA
HETATM    2  C1  LIG X 999      44.163 131.264  21.011  1.00  0.00     0.109 C 
HETATM    3  C2  LIG X 999      44.178 131.383  19.578  1.00  0.00     0.113 A 
HETATM    4  S1  LIG X 999      42.950 132.102  18.685  1.00  0.00    -0.076 SA
HETATM    5  C3  LIG X 999      43.618 131.729  17.192  1.00  0.00     0.019 A 
HETATM    6  C4  LIG X 999      43.057 131.996  15.950  1.00  0.00     0.021 A 
HETATM    7  C5  LIG X 999      43.741 131.584  14.804  1.00  0.00     0.013 A 
HETATM    8  C6  LIG X 999      45.005 130.968  14.909  1.00  0.00    -0.025 A 
HETATM    9  C7  LIG X 999      45.704 130.620  13.742  1.00  0.00     0.012 A 
HETATM   10  C8  LIG X 999      46.992 130.092  13.824  1.00  0.00     0.001 A 
HETATM   11  C9  LIG X 999      47.606 129.935  15.066  1.00  0.00     0.001 A 
HETATM   12  C10 LIG X 999      46.922 130.266  16.239  1.00  0.00     0.013 A 
HETATM   13  C11 LIG X 999      45.592 130.732  16.189  1.00  0.00    -0.012 A 
HETATM   14  C12 LIG X 999      44.832 131.059  17.346  1.00  0.00     0.020 A 
HETATM   15  C13 LIG X 999      45.120 130.813  18.715  1.00  0.00     0.066 A 
ENDROOT
BRANCH  15  16
HETATM   16  N2  LIG X 999      46.122 129.909  19.194  1.00  0.00    -0.397 N 
HETATM   17  H7  LIG X 999      46.266 129.776  20.219  1.00  0.00     0.156 HD
HETATM   18  H8  LIG X 999      46.535 129.193  18.557  1.00  0.00     0.156 HD
ENDBRANCH  15  16
TORSDOF 1
