REMARK VINA RESULT:      -6.2      1.353      2.874
REMARK  1 active torsions:
REMARK  status: ('A' for Active; 'I' for Inactive)
REMARK    1  A    between atoms: C14_14  and  N1_15 
ROOT
HETATM    1  N1  LIG X 999      44.275 131.925  22.585  1.00  0.00    -0.216 NA
HETATM    2  C15 LIG X 999      43.662 131.221  23.450  1.00  0.00     0.165 C 
HETATM    3  S1  LIG X 999      42.887 130.329  24.545  1.00  0.00    -0.055 SA
ENDROOT
BRANCH   1   4
HETATM    4  C14 LIG X 999      44.204 131.701  21.167  1.00  0.00     0.130 C 
HETATM    5  C13 LIG X 999      43.090 132.088  20.411  1.00  0.00     0.058 C 
HETATM    6  C11 LIG X 999      43.044 131.839  19.031  1.00  0.00    -0.045 C 
HETATM    7  C10 LIG X 999      44.202 131.316  18.376  1.00  0.00     0.008 C 
HETATM    8  C12 LIG X 999      41.696 132.007  18.372  1.00  0.00     0.049 C 
HETATM    9  C4  LIG X 999      44.374 131.218  16.954  1.00  0.00    -0.013 C 
HETATM   10  C9  LIG X 999      45.245 130.821  19.211  1.00  0.00     0.045 C 
HETATM   11  C3  LIG X 999      43.620 131.970  16.023  1.00  0.00     0.013 C 
HETATM   12  C5  LIG X 999      45.426 130.407  16.438  1.00  0.00    -0.025 C 
HETATM   13  C2  LIG X 999      43.788 131.796  14.648  1.00  0.00     0.001 C 
HETATM   14  C1  LIG X 999      44.742 130.906  14.163  1.00  0.00     0.001 C 
HETATM   15  C6  LIG X 999      45.573 130.229  15.052  1.00  0.00     0.012 C 
HETATM   16  C7  LIG X 999      46.356 129.826  17.302  1.00  0.00     0.014 C 
HETATM   17  C8  LIG X 999      46.297 130.078  18.665  1.00  0.00     0.031 C 
HETATM   18  N2  LIG X 999      45.223 131.046  20.557  1.00  0.00    -0.340 N 
HETATM   19  H11 LIG X 999      46.016 130.708  21.151  1.00  0.00     0.167 HD
ENDBRANCH   1   4
TORSDOF 1
