REMARK VINA RESULT:      -3.7      5.505      8.257
REMARK  5 active torsions:
REMARK  status: ('A' for Active; 'I' for Inactive)
REMARK    1  A    between atoms: C3_3  and  N1_4 
REMARK    2  A    between atoms: N1_4  and  C6_7 
REMARK    3  A    between atoms: C6_7  and  C7_8 
REMARK    4  A    between atoms: C9_10  and  C10_11 
REMARK    5  A    between atoms: C11_15  and  N4_16 
ROOT
HETATM    1  C1  LIG X 999      53.050 124.849  18.310  1.00  0.00     0.013 C 
HETATM    2  C2  LIG X 999      52.072 124.460  18.897  1.00  0.00    -0.089 C 
HETATM    3  C3  LIG X 999      50.874 123.983  19.614  1.00  0.00     0.329 C 
ENDROOT
BRANCH   3   4
HETATM    4  N1  LIG X 999      51.101 123.763  21.075  1.00  0.00    -0.061 N 
HETATM    5  C4  LIG X 999      52.565 123.673  21.310  1.00  0.00     0.273 C 
HETATM    6  C5  LIG X 999      50.504 122.464  21.482  1.00  0.00     0.273 C 
BRANCH   4   7
HETATM    7  C6  LIG X 999      50.503 124.844  21.925  1.00  0.00     0.275 C 
BRANCH   7   8
HETATM    8  C7  LIG X 999      49.186 124.475  22.580  1.00  0.00    -0.035 C 
HETATM    9  C8  LIG X 999      48.065 124.333  21.841  1.00  0.00     0.001 C 
HETATM   10  C9  LIG X 999      46.721 124.164  22.520  1.00  0.00     0.054 C 
HETATM   11  C12 LIG X 999      45.696 123.497  21.569  1.00  0.00     0.023 C 
HETATM   12  C16 LIG X 999      46.919 123.226  23.748  1.00  0.00     0.028 C 
HETATM   13  C13 LIG X 999      44.360 123.223  22.290  1.00  0.00     0.002 C 
HETATM   14  C14 LIG X 999      44.556 122.377  23.558  1.00  0.00     0.001 C 
HETATM   15  C15 LIG X 999      45.601 122.991  24.505  1.00  0.00     0.010 C 
HETATM   16  C17 LIG X 999      48.040 123.725  24.625  1.00  0.00    -0.020 C 
HETATM   17  C18 LIG X 999      49.129 124.255  24.052  1.00  0.00     0.005 C 
BRANCH  10  18
HETATM   18  C10 LIG X 999      46.252 125.558  22.907  1.00  0.00     0.182 A 
HETATM   19  N2  LIG X 999      46.351 126.072  24.154  1.00  0.00    -0.149 NA
HETATM   20  N3  LIG X 999      45.782 127.264  24.096  1.00  0.00    -0.236 N 
HETATM   21  H13 LIG X 999      45.691 127.927  24.897  1.00  0.00     0.193 HD
HETATM   22  C11 LIG X 999      45.351 127.434  22.839  1.00  0.00     0.301 A 
HETATM   23  O1  LIG X 999      45.629 126.391  22.097  1.00  0.00    -0.257 OA
BRANCH  22  24
HETATM   24  N4  LIG X 999      44.670 128.600  22.379  1.00  0.00    -0.025 NA
HETATM   25  N5  LIG X 999      43.899 129.211  23.121  1.00  0.00    -0.158 NA
HETATM   26  N6  LIG X 999      43.130 129.820  23.861  1.00  0.00     0.068 N 
ENDBRANCH  22  24
ENDBRANCH  10  18
ENDBRANCH   7   8
ENDBRANCH   4   7
ENDBRANCH   3   4
TORSDOF 5
