REMARK VINA RESULT:      -8.7      0.000      0.000
REMARK  3 active torsions:
REMARK  status: ('A' for Active; 'I' for Inactive)
REMARK    1  A    between atoms: C6_6  and  C7_7 
REMARK    2  A    between atoms: C7_7  and  N1_8 
REMARK    3  A    between atoms: C8_12  and  N4_13 
ROOT
HETATM    1  N1  LIG X 999      45.021 131.820  15.169  1.00  0.00    -0.065 NA
HETATM    2  N2  LIG X 999      44.012 131.715  14.472  1.00  0.00    -0.164 NA
HETATM    3  N3  LIG X 999      43.004 131.611  13.775  1.00  0.00     0.068 N 
ENDROOT
BRANCH   1   4
HETATM    4  C7  LIG X 999      45.227 130.940  16.311  1.00  0.00     0.267 A 
HETATM    5  O1  LIG X 999      46.598 130.676  16.505  1.00  0.00    -0.314 OA
HETATM    6  C8  LIG X 999      45.802 129.596  16.068  1.00  0.00     0.349 A 
BRANCH   4   7
HETATM    7  C6  LIG X 999      44.522 131.253  17.599  1.00  0.00     0.007 A 
HETATM    8  C5  LIG X 999      45.171 131.036  18.821  1.00  0.00     0.024 A 
HETATM    9  C4  LIG X 999      44.509 131.299  20.031  1.00  0.00    -0.025 A 
HETATM   10  C3  LIG X 999      45.153 131.091  21.260  1.00  0.00     0.012 A 
HETATM   11  C11 LIG X 999      43.175 131.776  20.011  1.00  0.00    -0.026 A 
HETATM   12  C2  LIG X 999      44.483 131.356  22.458  1.00  0.00     0.001 A 
HETATM   13  C1  LIG X 999      43.168 131.829  22.437  1.00  0.00     0.001 A 
HETATM   14  C12 LIG X 999      42.513 132.039  21.220  1.00  0.00     0.012 A 
HETATM   15  C10 LIG X 999      42.529 131.979  18.783  1.00  0.00     0.013 A 
HETATM   16  C9  LIG X 999      43.197 131.714  17.585  1.00  0.00     0.013 A 
ENDBRANCH   4   7
BRANCH   6  17
HETATM   17  N4  LIG X 999      46.080 129.278  14.676  1.00  0.00    -0.077 NA
HETATM   18  N5  LIG X 999      47.227 129.354  14.235  1.00  0.00    -0.165 NA
HETATM   19  N6  LIG X 999      48.373 129.430  13.794  1.00  0.00     0.068 N 
ENDBRANCH   6  17
ENDBRANCH   1   4
TORSDOF 3
