MODEL 1
REMARK VINA RESULT:      -7.0      0.000      0.000
REMARK  1 active torsions:
REMARK  status: ('A' for Active; 'I' for Inactive)
REMARK    1  A    between atoms: C1_2  and  C2_3 
ROOT
HETATM    1  C2  LIG X 999      43.342 131.896  19.480  1.00  0.00     0.013 A 
HETATM    2  C3  LIG X 999      43.892 131.640  20.751  1.00  0.00     0.015 A 
HETATM    3  C4  LIG X 999      45.122 131.001  20.890  1.00  0.00     0.002 A 
HETATM    4  C5  LIG X 999      45.834 130.600  19.766  1.00  0.00     0.012 A 
HETATM    5  C6  LIG X 999      45.324 130.833  18.484  1.00  0.00    -0.025 A 
HETATM    6  C7  LIG X 999      46.059 130.420  17.362  1.00  0.00     0.012 A 
HETATM    7  C8  LIG X 999      45.567 130.643  16.078  1.00  0.00     0.001 A 
HETATM    8  C9  LIG X 999      44.341 131.281  15.900  1.00  0.00     0.001 A 
HETATM    9  C10 LIG X 999      43.595 131.699  17.004  1.00  0.00     0.013 A 
HETATM   10  C11 LIG X 999      44.067 131.486  18.321  1.00  0.00    -0.013 A 
ENDROOT
BRANCH   1  11
HETATM   11  C1  LIG X 999      42.024 132.583  19.411  1.00  0.00     0.270 C 
HETATM   12  O1  LIG X 999      41.544 133.163  20.423  1.00  0.00    -0.301 OA
ENDBRANCH   1  11
TORSDOF 1
ENDMDL
MODEL 2
REMARK VINA RESULT:      -6.6      3.078      5.397
REMARK  1 active torsions:
REMARK  status: ('A' for Active; 'I' for Inactive)
REMARK    1  A    between atoms: C1_2  and  C2_3 
ROOT
HETATM    1  C2  LIG X 999      46.007 130.372  15.168  1.00  0.00     0.013 A 
HETATM    2  C3  LIG X 999      45.294 130.753  14.014  1.00  0.00     0.015 A 
HETATM    3  C4  LIG X 999      44.089 131.445  14.107  1.00  0.00     0.002 A 
HETATM    4  C5  LIG X 999      43.563 131.775  15.350  1.00  0.00     0.012 A 
HETATM    5  C6  LIG X 999      44.238 131.415  16.522  1.00  0.00    -0.025 A 
HETATM    6  C7  LIG X 999      43.691 131.758  17.768  1.00  0.00     0.012 A 
HETATM    7  C8  LIG X 999      44.348 131.407  18.946  1.00  0.00     0.001 A 
HETATM    8  C9  LIG X 999      45.556 130.715  18.892  1.00  0.00     0.001 A 
HETATM    9  C10 LIG X 999      46.117 130.365  17.662  1.00  0.00     0.013 A 
HETATM   10  C11 LIG X 999      45.473 130.706  16.449  1.00  0.00    -0.013 A 
ENDROOT
BRANCH   1  11
HETATM   11  C1  LIG X 999      47.287 129.634  14.990  1.00  0.00     0.270 C 
HETATM   12  O1  LIG X 999      47.894 129.652  13.885  1.00  0.00    -0.301 OA
ENDBRANCH   1  11
TORSDOF 1
ENDMDL
MODEL 3
REMARK VINA RESULT:      -6.5      2.630      4.541
REMARK  1 active torsions:
REMARK  status: ('A' for Active; 'I' for Inactive)
REMARK    1  A    between atoms: C1_2  and  C2_3 
ROOT
HETATM    1  C2  LIG X 999      45.403 130.539  16.713  1.00  0.00     0.013 A 
HETATM    2  C3  LIG X 999      44.179 131.235  16.672  1.00  0.00     0.015 A 
HETATM    3  C4  LIG X 999      43.718 131.816  15.493  1.00  0.00     0.002 A 
HETATM    4  C5  LIG X 999      44.465 131.718  14.324  1.00  0.00     0.012 A 
HETATM    5  C6  LIG X 999      45.686 131.035  14.320  1.00  0.00    -0.025 A 
HETATM    6  C7  LIG X 999      46.425 130.947  13.130  1.00  0.00     0.012 A 
HETATM    7  C8  LIG X 999      47.644 130.273  13.106  1.00  0.00     0.001 A 
HETATM    8  C9  LIG X 999      48.136 129.679  14.267  1.00  0.00     0.001 A 
HETATM    9  C10 LIG X 999      47.416 129.755  15.461  1.00  0.00     0.013 A 
HETATM   10  C11 LIG X 999      46.176 130.434  15.517  1.00  0.00    -0.013 A 
ENDROOT
BRANCH   1  11
HETATM   11  C1  LIG X 999      45.830 129.945  18.009  1.00  0.00     0.270 C 
HETATM   12  O1  LIG X 999      45.736 130.601  19.081  1.00  0.00    -0.301 OA
ENDBRANCH   1  11
TORSDOF 1
ENDMDL
MODEL 4
REMARK VINA RESULT:      -6.4      1.554      2.810
REMARK  1 active torsions:
REMARK  status: ('A' for Active; 'I' for Inactive)
REMARK    1  A    between atoms: C1_2  and  C2_3 
ROOT
HETATM    1  C2  LIG X 999      44.295 131.478  19.877  1.00  0.00     0.013 A 
HETATM    2  C3  LIG X 999      43.054 132.024  20.258  1.00  0.00     0.015 A 
HETATM    3  C4  LIG X 999      42.096 132.371  19.308  1.00  0.00     0.002 A 
HETATM    4  C5  LIG X 999      42.350 132.182  17.954  1.00  0.00     0.012 A 
HETATM    5  C6  LIG X 999      43.571 131.643  17.532  1.00  0.00    -0.025 A 
HETATM    6  C7  LIG X 999      43.809 131.461  16.161  1.00  0.00     0.012 A 
HETATM    7  C8  LIG X 999      45.018 130.927  15.721  1.00  0.00     0.001 A 
HETATM    8  C9  LIG X 999      45.999 130.567  16.642  1.00  0.00     0.001 A 
HETATM    9  C10 LIG X 999      45.782 130.741  18.011  1.00  0.00     0.013 A 
HETATM   10  C11 LIG X 999      44.564 131.282  18.489  1.00  0.00    -0.013 A 
ENDROOT
BRANCH   1  11
HETATM   11  C1  LIG X 999      45.268 131.132  20.948  1.00  0.00     0.270 C 
HETATM   12  O1  LIG X 999      45.001 130.240  21.799  1.00  0.00    -0.301 OA
ENDBRANCH   1  11
TORSDOF 1
ENDMDL
MODEL 5
REMARK VINA RESULT:      -6.3      2.388      4.394
REMARK  1 active torsions:
REMARK  status: ('A' for Active; 'I' for Inactive)
REMARK    1  A    between atoms: C1_2  and  C2_3 
ROOT
HETATM    1  C2  LIG X 999      44.694 131.201  14.958  1.00  0.00     0.013 A 
HETATM    2  C3  LIG X 999      45.740 130.573  14.252  1.00  0.00     0.015 A 
HETATM    3  C4  LIG X 999      46.781 129.937  14.922  1.00  0.00     0.002 A 
HETATM    4  C5  LIG X 999      46.809 129.909  16.312  1.00  0.00     0.012 A 
HETATM    5  C6  LIG X 999      45.790 130.521  17.051  1.00  0.00    -0.025 A 
HETATM    6  C7  LIG X 999      45.836 130.482  18.454  1.00  0.00     0.012 A 
HETATM    7  C8  LIG X 999      44.832 131.086  19.208  1.00  0.00     0.001 A 
HETATM    8  C9  LIG X 999      43.774 131.731  18.572  1.00  0.00     0.001 A 
HETATM    9  C10 LIG X 999      43.710 131.781  17.178  1.00  0.00     0.013 A 
HETATM   10  C11 LIG X 999      44.715 131.178  16.384  1.00  0.00    -0.013 A 
ENDROOT
BRANCH   1  11
HETATM   11  C1  LIG X 999      43.615 131.861  14.173  1.00  0.00     0.270 C 
HETATM   12  O1  LIG X 999      42.757 131.176  13.554  1.00  0.00    -0.301 OA
ENDBRANCH   1  11
TORSDOF 1
ENDMDL
MODEL 6
REMARK VINA RESULT:      -6.3      3.265      4.517
REMARK  1 active torsions:
REMARK  status: ('A' for Active; 'I' for Inactive)
REMARK    1  A    between atoms: C1_2  and  C2_3 
ROOT
HETATM    1  C2  LIG X 999      44.659 131.238  15.113  1.00  0.00     0.013 A 
HETATM    2  C3  LIG X 999      44.385 130.884  16.449  1.00  0.00     0.015 A 
HETATM    3  C4  LIG X 999      45.285 130.125  17.194  1.00  0.00     0.002 A 
HETATM    4  C5  LIG X 999      46.480 129.699  16.628  1.00  0.00     0.012 A 
HETATM    5  C6  LIG X 999      46.792 130.028  15.303  1.00  0.00    -0.025 A 
HETATM    6  C7  LIG X 999      48.004 129.588  14.749  1.00  0.00     0.012 A 
HETATM    7  C8  LIG X 999      48.332 129.904  13.432  1.00  0.00     0.001 A 
HETATM    8  C9  LIG X 999      47.457 130.662  12.657  1.00  0.00     0.001 A 
HETATM    9  C10 LIG X 999      46.246 131.109  13.190  1.00  0.00     0.013 A 
HETATM   10  C11 LIG X 999      45.884 130.803  14.524  1.00  0.00    -0.013 A 
ENDROOT
BRANCH   1  11
HETATM   11  C1  LIG X 999      43.650 132.050  14.381  1.00  0.00     0.270 C 
HETATM   12  O1  LIG X 999      42.797 131.499  13.634  1.00  0.00    -0.301 OA
ENDBRANCH   1  11
TORSDOF 1
ENDMDL
MODEL 7
REMARK VINA RESULT:      -5.9      2.072      4.435
REMARK  1 active torsions:
REMARK  status: ('A' for Active; 'I' for Inactive)
REMARK    1  A    between atoms: C1_2  and  C2_3 
ROOT
HETATM    1  C2  LIG X 999      44.535 131.366  17.701  1.00  0.00     0.013 A 
HETATM    2  C3  LIG X 999      43.402 131.751  16.957  1.00  0.00     0.015 A 
HETATM    3  C4  LIG X 999      42.218 132.125  17.587  1.00  0.00     0.002 A 
HETATM    4  C5  LIG X 999      42.131 132.125  18.974  1.00  0.00     0.012 A 
HETATM    5  C6  LIG X 999      43.233 131.749  19.752  1.00  0.00    -0.025 A 
HETATM    6  C7  LIG X 999      43.125 131.755  21.152  1.00  0.00     0.012 A 
HETATM    7  C8  LIG X 999      44.210 131.384  21.943  1.00  0.00     0.001 A 
HETATM    8  C9  LIG X 999      45.411 131.004  21.347  1.00  0.00     0.001 A 
HETATM    9  C10 LIG X 999      45.538 130.991  19.956  1.00  0.00     0.013 A 
HETATM   10  C11 LIG X 999      44.454 131.362  19.126  1.00  0.00    -0.013 A 
ENDROOT
BRANCH   1  11
HETATM   11  C1  LIG X 999      45.765 130.979  16.958  1.00  0.00     0.270 C 
HETATM   12  O1  LIG X 999      46.105 131.592  15.909  1.00  0.00    -0.301 OA
ENDBRANCH   1  11
TORSDOF 1
ENDMDL
MODEL 8
REMARK VINA RESULT:      -5.8      1.889      3.913
REMARK  1 active torsions:
REMARK  status: ('A' for Active; 'I' for Inactive)
REMARK    1  A    between atoms: C1_2  and  C2_3 
ROOT
HETATM    1  C2  LIG X 999      44.514 131.380  18.402  1.00  0.00     0.013 A 
HETATM    2  C3  LIG X 999      45.692 130.672  18.706  1.00  0.00     0.015 A 
HETATM    3  C4  LIG X 999      46.021 130.349  20.021  1.00  0.00     0.002 A 
HETATM    4  C5  LIG X 999      45.184 130.723  21.065  1.00  0.00     0.012 A 
HETATM    5  C6  LIG X 999      44.003 131.429  20.807  1.00  0.00    -0.025 A 
HETATM    6  C7  LIG X 999      43.171 131.798  21.875  1.00  0.00     0.012 A 
HETATM    7  C8  LIG X 999      41.991 132.502  21.639  1.00  0.00     0.001 A 
HETATM    8  C9  LIG X 999      41.630 132.841  20.337  1.00  0.00     0.001 A 
HETATM    9  C10 LIG X 999      42.445 132.483  19.260  1.00  0.00     0.013 A 
HETATM   10  C11 LIG X 999      43.649 131.769  19.469  1.00  0.00    -0.013 A 
ENDROOT
BRANCH   1  11
HETATM   11  C1  LIG X 999      44.229 131.689  16.974  1.00  0.00     0.270 C 
HETATM   12  O1  LIG X 999      45.164 131.760  16.130  1.00  0.00    -0.301 OA
ENDBRANCH   1  11
TORSDOF 1
ENDMDL
MODEL 9
REMARK VINA RESULT:      -5.6      2.126      4.776
REMARK  1 active torsions:
REMARK  status: ('A' for Active; 'I' for Inactive)
REMARK    1  A    between atoms: C1_2  and  C2_3 
ROOT
HETATM    1  C2  LIG X 999      44.414 131.282  18.885  1.00  0.00     0.013 A 
HETATM    2  C3  LIG X 999      43.504 131.709  17.898  1.00  0.00     0.015 A 
HETATM    3  C4  LIG X 999      42.267 132.250  18.242  1.00  0.00     0.002 A 
HETATM    4  C5  LIG X 999      41.905 132.379  19.578  1.00  0.00     0.012 A 
HETATM    5  C6  LIG X 999      42.779 131.967  20.590  1.00  0.00    -0.025 A 
HETATM    6  C7  LIG X 999      42.395 132.105  21.933  1.00  0.00     0.012 A 
HETATM    7  C8  LIG X 999      43.251 131.700  22.955  1.00  0.00     0.001 A 
HETATM    8  C9  LIG X 999      44.496 131.155  22.649  1.00  0.00     0.001 A 
HETATM    9  C10 LIG X 999      44.897 131.009  21.319  1.00  0.00     0.013 A 
HETATM   10  C11 LIG X 999      44.049 131.411  20.259  1.00  0.00    -0.013 A 
ENDROOT
BRANCH   1  11
HETATM   11  C1  LIG X 999      45.716 130.715  18.441  1.00  0.00     0.270 C 
HETATM   12  O1  LIG X 999      45.883 130.339  17.249  1.00  0.00    -0.301 OA
ENDBRANCH   1  11
TORSDOF 1
ENDMDL
