REMARK VINA RESULT:      -8.3      1.291      2.341
REMARK  2 active torsions:
REMARK  status: ('A' for Active; 'I' for Inactive)
REMARK    1  A    between atoms: C8_9  and  N2_10 
REMARK    2  A    between atoms: C14_16  and  O1_17 
ROOT
HETATM    1  C1  LIG X 999      46.406 131.648  15.017  1.00  0.00     0.287 C 
HETATM    2  N1  LIG X 999      45.573 130.692  15.768  1.00  0.00    -0.002 N 
HETATM    3  C2  LIG X 999      45.265 129.483  14.983  1.00  0.00     0.287 C 
HETATM    4  C3  LIG X 999      46.206 130.339  17.018  1.00  0.00     0.222 A 
HETATM    5  C4  LIG X 999      45.466 130.713  18.051  1.00  0.00     0.003 A 
HETATM    6  C5  LIG X 999      45.716 130.559  19.413  1.00  0.00     0.026 A 
HETATM    7  C6  LIG X 999      44.757 131.051  20.325  1.00  0.00    -0.023 A 
HETATM    8  C7  LIG X 999      44.959 130.922  21.706  1.00  0.00     0.041 A 
HETATM    9  C8  LIG X 999      44.005 131.411  22.611  1.00  0.00     0.026 A 
HETATM   10  C9  LIG X 999      42.842 132.031  22.130  1.00  0.00     0.030 A 
HETATM   11  C10 LIG X 999      42.625 132.167  20.756  1.00  0.00     0.014 A 
HETATM   12  C11 LIG X 999      43.571 131.683  19.841  1.00  0.00    -0.025 A 
HETATM   13  C12 LIG X 999      43.357 131.818  18.453  1.00  0.00     0.029 A 
HETATM   14  C13 LIG X 999      44.331 131.318  17.589  1.00  0.00     0.035 A 
HETATM   15  C14 LIG X 999      44.369 131.318  16.267  1.00  0.00     0.257 A 
ENDROOT
BRANCH   9  16
HETATM   16  N2  LIG X 999      44.216 131.278  24.019  1.00  0.00    -0.399 N 
HETATM   17  H10 LIG X 999      45.117 130.904  24.391  1.00  0.00     0.156 HD
HETATM   18  H11 LIG X 999      43.472 131.553  24.700  1.00  0.00     0.156 HD
ENDBRANCH   9  16
BRANCH  15  19
HETATM   19  O1  LIG X 999      43.370 131.857  15.457  1.00  0.00    -0.340 OA
HETATM   20  H15 LIG X 999      43.352 131.679  14.461  1.00  0.00     0.219 HD
ENDBRANCH  15  19
TORSDOF 2
