REMARK VINA RESULT:      -6.5      4.888      6.323
REMARK  3 active torsions:
REMARK  status: ('A' for Active; 'I' for Inactive)
REMARK    1  A    between atoms: C6_6  and  C7_7 
REMARK    2  A    between atoms: C7_7  and  C8_9 
REMARK    3  A    between atoms: C8_9  and  N1_10 
ROOT
HETATM    1  N1  LIG X 999      42.829 130.857  23.493  1.00  0.00    -0.108 NA
HETATM    2  N2  LIG X 999      42.936 129.630  23.478  1.00  0.00    -0.167 NA
HETATM    3  N3  LIG X 999      43.041 128.405  23.463  1.00  0.00     0.068 N 
ENDROOT
BRANCH   1   4
HETATM    4  C8  LIG X 999      42.661 131.612  22.256  1.00  0.00     0.272 C 
BRANCH   4   5
HETATM    5  C7  LIG X 999      43.923 131.607  21.429  1.00  0.00     0.181 C 
HETATM    6  O1  LIG X 999      45.039 131.568  22.017  1.00  0.00    -0.290 OA
BRANCH   5   7
HETATM    7  C6  LIG X 999      43.882 131.593  19.943  1.00  0.00     0.012 A 
HETATM    8  C5  LIG X 999      45.015 131.184  19.213  1.00  0.00     0.027 A 
HETATM    9  C4  LIG X 999      44.994 131.163  17.810  1.00  0.00    -0.025 A 
HETATM   10  C3  LIG X 999      46.125 130.761  17.084  1.00  0.00     0.012 A 
HETATM   11  C11 LIG X 999      43.822 131.553  17.120  1.00  0.00    -0.026 A 
HETATM   12  C2  LIG X 999      46.094 130.744  15.686  1.00  0.00     0.001 A 
HETATM   13  C1  LIG X 999      44.936 131.128  15.005  1.00  0.00     0.001 A 
HETATM   14  C12 LIG X 999      43.802 131.531  15.716  1.00  0.00     0.012 A 
HETATM   15  C10 LIG X 999      42.693 131.954  17.845  1.00  0.00     0.013 A 
HETATM   16  C9  LIG X 999      42.722 131.973  19.241  1.00  0.00     0.016 A 
ENDBRANCH   5   7
ENDBRANCH   4   5
ENDBRANCH   1   4
TORSDOF 3
