REMARK VINA RESULT:      -4.8      5.024      6.886
REMARK  4 active torsions:
REMARK  status: ('A' for Active; 'I' for Inactive)
REMARK    1  A    between atoms: C3_4  and  O1_5 
REMARK    2  A    between atoms: C3_4  and  O2_6 
REMARK    3  A    between atoms: O2_6  and  C4_7 
REMARK    4  A    between atoms: C7_10  and  N2_11 
ROOT
HETATM    1  C4  LIG X 999      43.384 129.043  23.326  1.00  0.00     0.091 A 
HETATM    2  C5  LIG X 999      42.127 129.158  23.935  1.00  0.00     0.040 A 
HETATM    3  C6  LIG X 999      41.441 128.025  24.365  1.00  0.00     0.033 A 
HETATM    4  C7  LIG X 999      41.977 126.744  24.187  1.00  0.00     0.037 A 
HETATM    5  C8  LIG X 999      43.250 126.601  23.571  1.00  0.00     0.003 A 
HETATM    6  C9  LIG X 999      43.864 125.340  23.391  1.00  0.00     0.014 A 
HETATM    7  C10 LIG X 999      45.110 125.234  22.771  1.00  0.00     0.001 A 
HETATM    8  C11 LIG X 999      45.772 126.374  22.325  1.00  0.00     0.001 A 
HETATM    9  C12 LIG X 999      45.199 127.632  22.503  1.00  0.00     0.015 A 
HETATM   10  C13 LIG X 999      43.944 127.765  23.127  1.00  0.00     0.010 A 
ENDROOT
BRANCH   1  11
HETATM   11  O2  LIG X 999      44.073 130.180  22.872  1.00  0.00    -0.273 OA
BRANCH  11  12
HETATM   12  C3  LIG X 999      43.620 131.054  21.872  1.00  0.00     0.265 C 
HETATM   13  N1  LIG X 999      44.357 131.249  20.802  1.00  0.00    -0.350 N 
HETATM   14  C1  LIG X 999      45.631 130.528  20.664  1.00  0.00     0.153 C 
HETATM   15  C2  LIG X 999      43.934 132.168  19.737  1.00  0.00     0.153 C 
BRANCH  12  16
HETATM   16  O1  LIG X 999      42.408 131.731  22.064  1.00  0.00    -0.327 OA
HETATM   17  H7  LIG X 999      42.109 132.121  22.948  1.00  0.00     0.221 HD
ENDBRANCH  12  16
ENDBRANCH  11  12
ENDBRANCH   1  11
BRANCH   4  18
HETATM   18  N2  LIG X 999      41.196 125.620  24.625  1.00  0.00    -0.398 N 
HETATM   19  H10 LIG X 999      41.509 124.632  24.534  1.00  0.00     0.156 HD
HETATM   20  H11 LIG X 999      40.221 125.764  24.973  1.00  0.00     0.156 HD
ENDBRANCH   4  18
TORSDOF 4
