REMARK VINA RESULT:      -4.7      7.018      7.966
REMARK  1 active torsions:
REMARK  status: ('A' for Active; 'I' for Inactive)
REMARK    1  A    between atoms: C12_14  and  N2_15 
ROOT
HETATM    1  C1  LIG X 999      45.277 123.597  22.466  1.00  0.00     0.001 A 
HETATM    2  C2  LIG X 999      45.879 124.841  22.308  1.00  0.00     0.001 A 
HETATM    3  C3  LIG X 999      45.192 126.010  22.646  1.00  0.00     0.013 A 
HETATM    4  C4  LIG X 999      43.874 125.954  23.154  1.00  0.00    -0.012 A 
HETATM    5  C5  LIG X 999      43.269 124.666  23.310  1.00  0.00    -0.025 A 
HETATM    6  C6  LIG X 999      43.980 123.506  22.964  1.00  0.00     0.012 A 
HETATM    7  C7  LIG X 999      41.959 124.544  23.812  1.00  0.00     0.013 A 
HETATM    8  C8  LIG X 999      41.227 125.676  24.165  1.00  0.00     0.021 A 
HETATM    9  C9  LIG X 999      41.814 126.924  24.012  1.00  0.00     0.020 A 
HETATM   10  S1  LIG X 999      41.102 128.393  24.379  1.00  0.00    -0.076 SA
HETATM   11  C10 LIG X 999      42.423 129.321  23.922  1.00  0.00     0.118 A 
HETATM   12  C11 LIG X 999      42.430 130.757  24.007  1.00  0.00     0.109 C 
HETATM   13  N1  LIG X 999      42.429 131.913  24.078  1.00  0.00    -0.191 NA
HETATM   14  C12 LIG X 999      43.459 128.484  23.470  1.00  0.00     0.133 A 
HETATM   15  C13 LIG X 999      43.111 127.103  23.521  1.00  0.00     0.026 A 
ENDROOT
BRANCH  14  16
HETATM   16  N2  LIG X 999      44.731 128.960  23.004  1.00  0.00    -0.070 NA
HETATM   17  N3  LIG X 999      44.860 129.778  22.092  1.00  0.00    -0.162 NA
HETATM   18  N4  LIG X 999      45.000 130.595  21.183  1.00  0.00     0.068 N 
ENDBRANCH  14  16
TORSDOF 1
