REMARK VINA RESULT:      -6.7      2.596      6.746
REMARK  2 active torsions:
REMARK  status: ('A' for Active; 'I' for Inactive)
REMARK    1  A    between atoms: O1_2  and  C2_3 
REMARK    2  A    between atoms: C11_12  and  N1_13 
ROOT
HETATM    1  C2  LIG X 999      43.164 131.389  22.468  1.00  0.00     0.095 A 
HETATM    2  C3  LIG X 999      42.929 131.813  21.144  1.00  0.00     0.051 A 
HETATM    3  C4  LIG X 999      43.791 131.427  20.109  1.00  0.00    -0.023 A 
HETATM    4  C5  LIG X 999      43.557 131.853  18.786  1.00  0.00     0.021 A 
HETATM    5  C6  LIG X 999      44.439 131.442  17.785  1.00  0.00    -0.024 A 
HETATM    6  C7  LIG X 999      45.513 130.653  18.063  1.00  0.00    -0.024 A 
HETATM    7  C8  LIG X 999      45.783 130.216  19.360  1.00  0.00     0.021 A 
HETATM    8  C9  LIG X 999      44.913 130.602  20.397  1.00  0.00    -0.023 A 
HETATM    9  C10 LIG X 999      45.143 130.184  21.714  1.00  0.00     0.044 A 
HETATM   10  C11 LIG X 999      44.278 130.571  22.747  1.00  0.00     0.060 A 
HETATM   11  C12 LIG X 999      46.295 130.390  16.835  1.00  0.00     0.276 C 
HETATM   12  N2  LIG X 999      45.494 130.978  15.714  1.00  0.00    -0.067 N 
HETATM   13  C13 LIG X 999      44.912 129.895  14.885  1.00  0.00     0.272 C 
HETATM   14  C14 LIG X 999      46.345 131.834  14.857  1.00  0.00     0.272 C 
HETATM   15  C15 LIG X 999      44.402 131.783  16.347  1.00  0.00     0.276 C 
ENDROOT
BRANCH  10  16
HETATM   16  N1  LIG X 999      44.538 130.128  24.084  1.00  0.00    -0.397 N 
HETATM   17  H8  LIG X 999      43.756 130.001  24.765  1.00  0.00     0.156 HD
HETATM   18  H9  LIG X 999      45.507 129.920  24.411  1.00  0.00     0.156 HD
ENDBRANCH  10  16
BRANCH   1  19
HETATM   19  O1  LIG X 999      42.316 131.759  23.525  1.00  0.00    -0.354 OA
HETATM   20  C1  LIG X 999      42.703 132.577  24.625  1.00  0.00     0.210 C 
ENDBRANCH   1  19
TORSDOF 2
