REMARK VINA RESULT:      -5.0      2.332      3.309
REMARK  5 active torsions:
REMARK  status: ('A' for Active; 'I' for Inactive)
REMARK    1  A    between atoms: C6_6  and  C7_7 
REMARK       I    between atoms: C7_7  and  N1_9 
REMARK    2  A    between atoms: N1_9  and  C8_11 
REMARK    3  A    between atoms: C8_11  and  C9_12 
REMARK    4  A    between atoms: C9_12  and  N2_13 
REMARK    5  A    between atoms: C13_19  and  N5_20 
ROOT
HETATM    1  N2  LIG X 999      45.070 131.216  14.548  1.00  0.00    -0.114 NA
HETATM    2  N3  LIG X 999      43.914 131.394  14.165  1.00  0.00    -0.168 NA
HETATM    3  N4  LIG X 999      42.758 131.573  13.781  1.00  0.00     0.068 N 
ENDROOT
BRANCH   1   4
HETATM    4  C9  LIG X 999      45.468 129.944  15.132  1.00  0.00     0.208 C 
BRANCH   4   5
HETATM    5  C8  LIG X 999      46.633 130.152  16.101  1.00  0.00     0.147 C 
BRANCH   5   6
HETATM    6  N1  LIG X 999      46.199 129.974  17.486  1.00  0.00    -0.355 N 
HETATM    7  C7  LIG X 999      45.555 131.019  18.233  1.00  0.00     0.251 C 
HETATM    8  O1  LIG X 999      45.430 132.166  17.721  1.00  0.00    -0.268 OA
HETATM    9  H4  LIG X 999      46.388 129.051  17.936  1.00  0.00     0.162 HD
BRANCH   7  10
HETATM   10  C6  LIG X 999      45.046 130.782  19.605  1.00  0.00     0.032 A 
HETATM   11  C1  LIG X 999      44.183 131.714  20.202  1.00  0.00     0.017 A 
HETATM   12  C2  LIG X 999      43.690 131.502  21.490  1.00  0.00     0.011 A 
HETATM   13  C3  LIG X 999      44.033 130.346  22.207  1.00  0.00    -0.024 A 
HETATM   14  C4  LIG X 999      44.908 129.401  21.619  1.00  0.00    -0.049 A 
HETATM   15  C13 LIG X 999      43.532 130.190  23.626  1.00  0.00     0.179 C 
HETATM   16  C5  LIG X 999      45.390 129.620  20.318  1.00  0.00     0.024 A 
HETATM   17  C10 LIG X 999      45.244 128.098  22.306  1.00  0.00     0.039 C 
HETATM   18  C11 LIG X 999      44.992 128.139  23.816  1.00  0.00     0.007 C 
HETATM   19  C12 LIG X 999      43.613 128.731  24.109  1.00  0.00     0.035 C 
BRANCH  15  20
HETATM   20  N5  LIG X 999      44.311 131.067  24.499  1.00  0.00    -0.105 NA
HETATM   21  N6  LIG X 999      44.080 132.274  24.561  1.00  0.00    -0.167 NA
HETATM   22  N7  LIG X 999      43.850 133.481  24.624  1.00  0.00     0.068 N 
ENDBRANCH  15  20
ENDBRANCH   7  10
ENDBRANCH   5   6
ENDBRANCH   4   5
ENDBRANCH   1   4
TORSDOF 5
