REMARK VINA RESULT:      -4.9      2.538      7.725
REMARK  5 active torsions:
REMARK  status: ('A' for Active; 'I' for Inactive)
REMARK    1  A    between atoms: C6_6  and  C7_7 
REMARK       I    between atoms: C7_7  and  N1_9 
REMARK    2  A    between atoms: N1_9  and  C8_11 
REMARK    3  A    between atoms: C8_11  and  C9_12 
REMARK    4  A    between atoms: C9_12  and  N2_13 
REMARK    5  A    between atoms: C13_19  and  N5_20 
ROOT
HETATM    1  N2  LIG X 999      44.751 130.222  15.393  1.00  0.00    -0.114 NA
HETATM    2  N3  LIG X 999      45.914 129.970  15.077  1.00  0.00    -0.168 NA
HETATM    3  N4  LIG X 999      47.076 129.718  14.760  1.00  0.00     0.068 N 
ENDROOT
BRANCH   1   4
HETATM    4  C9  LIG X 999      44.414 131.449  16.104  1.00  0.00     0.208 C 
BRANCH   4   5
HETATM    5  C8  LIG X 999      45.411 131.678  17.239  1.00  0.00     0.147 C 
BRANCH   5   6
HETATM    6  N1  LIG X 999      45.084 130.848  18.399  1.00  0.00    -0.355 N 
HETATM    7  C7  LIG X 999      45.060 131.401  19.725  1.00  0.00     0.251 C 
HETATM    8  O1  LIG X 999      45.173 132.649  19.880  1.00  0.00    -0.268 OA
HETATM    9  H4  LIG X 999      44.821 129.847  18.255  1.00  0.00     0.162 HD
BRANCH   7  10
HETATM   10  C6  LIG X 999      44.887 130.535  20.915  1.00  0.00     0.032 A 
HETATM   11  C1  LIG X 999      44.156 130.974  22.032  1.00  0.00     0.017 A 
HETATM   12  C2  LIG X 999      44.001 130.149  23.146  1.00  0.00     0.011 A 
HETATM   13  C3  LIG X 999      44.569 128.867  23.174  1.00  0.00    -0.024 A 
HETATM   14  C4  LIG X 999      45.278 128.399  22.041  1.00  0.00    -0.049 A 
HETATM   15  C13 LIG X 999      44.316 127.982  24.376  1.00  0.00     0.179 C 
HETATM   16  C5  LIG X 999      45.439 129.242  20.931  1.00  0.00     0.024 A 
HETATM   17  C10 LIG X 999      45.970 127.056  22.038  1.00  0.00     0.039 C 
HETATM   18  C11 LIG X 999      45.425 126.103  23.106  1.00  0.00     0.007 C 
HETATM   19  C12 LIG X 999      45.318 126.816  24.453  1.00  0.00     0.035 C 
BRANCH  15  20
HETATM   20  N5  LIG X 999      42.945 127.479  24.309  1.00  0.00    -0.105 NA
HETATM   21  N6  LIG X 999      41.982 128.231  24.467  1.00  0.00    -0.167 NA
HETATM   22  N7  LIG X 999      41.020 128.980  24.625  1.00  0.00     0.068 N 
ENDBRANCH  15  20
ENDBRANCH   7  10
ENDBRANCH   5   6
ENDBRANCH   4   5
ENDBRANCH   1   4
TORSDOF 5
