REMARK VINA RESULT:      -8.5      1.311      2.068
REMARK  4 active torsions:
REMARK  status: ('A' for Active; 'I' for Inactive)
REMARK    1  A    between atoms: C3_3  and  O1_4 
REMARK    2  A    between atoms: O1_4  and  C4_5 
REMARK    3  A    between atoms: C4_5  and  O2_6 
REMARK    4  A    between atoms: C5_8  and  C6_9 
ROOT
HETATM    1  C1  LIG X 999      44.577 129.180  22.684  1.00  0.00     0.014 C 
HETATM    2  C2  LIG X 999      43.943 130.194  22.538  1.00  0.00    -0.091 C 
HETATM    3  C3  LIG X 999      43.174 131.426  22.361  1.00  0.00     0.270 C 
ENDROOT
BRANCH   3   4
HETATM    4  O1  LIG X 999      43.398 131.933  21.053  1.00  0.00    -0.319 OA
BRANCH   4   5
HETATM    5  C4  LIG X 999      42.364 132.425  20.251  1.00  0.00     0.179 C 
HETATM    6  C5  LIG X 999      42.421 132.307  18.917  1.00  0.00     0.075 C 
BRANCH   5   7
HETATM    7  O2  LIG X 999      41.251 133.017  20.851  1.00  0.00    -0.341 OA
HETATM    8  H4  LIG X 999      41.319 133.883  21.375  1.00  0.00     0.220 HD
ENDBRANCH   5   7
BRANCH   6   9
HETATM    9  C6  LIG X 999      43.557 131.702  18.184  1.00  0.00    -0.031 A 
HETATM   10  C7  LIG X 999      44.640 131.103  18.855  1.00  0.00     0.012 A 
HETATM   11  C8  LIG X 999      45.708 130.562  18.135  1.00  0.00     0.013 A 
HETATM   12  C9  LIG X 999      45.722 130.625  16.736  1.00  0.00    -0.026 A 
HETATM   13  C10 LIG X 999      46.791 130.083  16.005  1.00  0.00     0.012 A 
HETATM   14  C14 LIG X 999      44.651 131.248  16.053  1.00  0.00    -0.025 A 
HETATM   15  C11 LIG X 999      46.795 130.159  14.609  1.00  0.00     0.001 A 
HETATM   16  C12 LIG X 999      45.738 130.774  13.935  1.00  0.00     0.001 A 
HETATM   17  C13 LIG X 999      44.668 131.318  14.650  1.00  0.00     0.012 A 
HETATM   18  C15 LIG X 999      43.581 131.790  16.783  1.00  0.00     0.024 A 
ENDBRANCH   6   9
ENDBRANCH   4   5
ENDBRANCH   3   4
TORSDOF 4
