REMARK VINA RESULT:      -6.1      3.034      7.924
REMARK  7 active torsions:
REMARK  status: ('A' for Active; 'I' for Inactive)
REMARK    1  A    between atoms: O1_2  and  C1_3 
REMARK    2  A    between atoms: C1_3  and  C2_4 
REMARK    3  A    between atoms: C1_3  and  C3_8 
REMARK    4  A    between atoms: C2_4  and  N1_5 
REMARK    5  A    between atoms: C3_8  and  O2_9 
REMARK    6  A    between atoms: O2_9  and  C4_10 
REMARK    7  A    between atoms: C9_15  and  N4_16 
ROOT
HETATM    1  N1  LIG X 999      45.655 131.361  13.377  1.00  0.00    -0.113 NA
HETATM    2  N2  LIG X 999      44.560 131.387  13.939  1.00  0.00    -0.168 NA
HETATM    3  N3  LIG X 999      43.466 131.413  14.501  1.00  0.00     0.068 N 
ENDROOT
BRANCH   1   4
HETATM    4  C2  LIG X 999      46.873 131.118  14.137  1.00  0.00     0.223 C 
BRANCH   4   5
HETATM    5  C1  LIG X 999      46.925 129.668  14.653  1.00  0.00     0.165 C 
BRANCH   5   6
HETATM    6  O1  LIG X 999      48.166 129.078  14.357  1.00  0.00    -0.392 OA
HETATM    7  H1  LIG X 999      48.392 129.301  13.416  1.00  0.00     0.210 HD
ENDBRANCH   5   6
BRANCH   5   8
HETATM    8  C3  LIG X 999      46.612 129.561  16.154  1.00  0.00     0.209 C 
BRANCH   8   9
HETATM    9  O2  LIG X 999      46.119 130.807  16.640  1.00  0.00    -0.349 OA
BRANCH   9  10
HETATM   10  C4  LIG X 999      45.362 130.963  17.810  1.00  0.00     0.069 A 
HETATM   11  C5  LIG X 999      44.186 131.719  17.743  1.00  0.00     0.037 A 
HETATM   12  C6  LIG X 999      43.394 131.908  18.877  1.00  0.00     0.015 A 
HETATM   13  C7  LIG X 999      43.769 131.339  20.103  1.00  0.00    -0.024 A 
HETATM   14  C8  LIG X 999      42.978 131.525  21.248  1.00  0.00     0.046 A 
HETATM   15  C12 LIG X 999      44.955 130.573  20.183  1.00  0.00    -0.023 A 
HETATM   16  C9  LIG X 999      43.361 130.951  22.476  1.00  0.00     0.094 A 
HETATM   17  C10 LIG X 999      44.537 130.194  22.545  1.00  0.00     0.035 A 
HETATM   18  C11 LIG X 999      45.330 130.005  21.410  1.00  0.00     0.014 A 
HETATM   19  C13 LIG X 999      45.745 130.389  19.038  1.00  0.00     0.049 A 
BRANCH  16  20
HETATM   20  N4  LIG X 999      42.578 131.120  23.665  1.00  0.00    -0.073 NA
HETATM   21  N5  LIG X 999      41.902 130.209  24.145  1.00  0.00    -0.162 NA
HETATM   22  N6  LIG X 999      41.227 129.299  24.625  1.00  0.00     0.068 N 
ENDBRANCH  16  20
ENDBRANCH   9  10
ENDBRANCH   8   9
ENDBRANCH   5   8
ENDBRANCH   4   5
ENDBRANCH   1   4
TORSDOF 7
