MODEL 1
REMARK VINA RESULT:      -7.1      0.000      0.000
REMARK  7 active torsions:
REMARK  status: ('A' for Active; 'I' for Inactive)
REMARK    1  A    between atoms: N1_2  and  C2_3 
REMARK    2  A    between atoms: C2_3  and  C4_5 
REMARK    3  A    between atoms: C4_5  and  C5_6 
REMARK    4  A    between atoms: C5_6  and  C6_7 
REMARK    5  A    between atoms: C6_7  and  C7_8 
REMARK    6  A    between atoms: C7_8  and  N2_9 
REMARK    7  A    between atoms: N2_9  and  C8_10 
ROOT
HETATM    1  C8  LIG X 999      44.186 129.945  22.748  1.00  0.00     0.226 C 
HETATM    2  C9  LIG X 999      45.001 128.833  22.528  1.00  0.00     0.065 C 
HETATM    3  C10 LIG X 999      44.557 127.546  22.872  1.00  0.00    -0.045 C 
HETATM    4  C11 LIG X 999      45.608 126.464  22.880  1.00  0.00     0.049 C 
HETATM    5  C12 LIG X 999      43.207 127.366  23.316  1.00  0.00     0.010 C 
HETATM    6  C13 LIG X 999      42.475 128.547  23.632  1.00  0.00     0.070 C 
HETATM    7  C14 LIG X 999      41.244 128.475  24.283  1.00  0.00     0.033 C 
HETATM    8  C15 LIG X 999      40.698 127.246  24.625  1.00  0.00     0.014 C 
HETATM    9  C16 LIG X 999      41.321 126.062  24.223  1.00  0.00    -0.025 C 
HETATM   10  C17 LIG X 999      40.692 124.834  24.488  1.00  0.00     0.012 C 
HETATM   11  C18 LIG X 999      41.222 123.649  23.983  1.00  0.00     0.001 C 
HETATM   12  C19 LIG X 999      42.357 123.683  23.179  1.00  0.00     0.001 C 
HETATM   13  C20 LIG X 999      43.001 124.896  22.918  1.00  0.00     0.013 C 
HETATM   14  C21 LIG X 999      42.551 126.103  23.503  1.00  0.00    -0.013 C 
HETATM   15  N3  LIG X 999      42.970 129.774  23.324  1.00  0.00    -0.224 NA
ENDROOT
BRANCH   1  16
HETATM   16  N2  LIG X 999      44.633 131.269  22.399  1.00  0.00    -0.028 N 
HETATM   17  H17 LIG X 999      45.378 131.567  23.070  1.00  0.00     0.285 HD
HETATM   18  H18 LIG X 999      43.841 131.949  22.487  1.00  0.00     0.285 HD
BRANCH  16  19
HETATM   19  C7  LIG X 999      45.177 131.308  21.032  1.00  0.00     0.240 C 
BRANCH  19  20
HETATM   20  C6  LIG X 999      44.067 131.358  19.967  1.00  0.00     0.028 C 
BRANCH  20  21
HETATM   21  C5  LIG X 999      44.641 131.700  18.587  1.00  0.00     0.004 C 
BRANCH  21  22
HETATM   22  C4  LIG X 999      45.568 130.580  18.084  1.00  0.00     0.035 C 
BRANCH  22  23
HETATM   23  C2  LIG X 999      45.746 130.566  16.547  1.00  0.00     0.216 C 
HETATM   24  C3  LIG X 999      45.820 131.998  15.987  1.00  0.00     0.042 C 
BRANCH  23  25
HETATM   25  N1  LIG X 999      46.944 129.788  16.170  1.00  0.00     0.083 N 
HETATM   26  C1  LIG X 999      47.106 129.696  14.716  1.00  0.00     0.307 C 
HETATM   27  H4  LIG X 999      46.821 128.806  16.514  1.00  0.00     0.315 HD
ENDBRANCH  23  25
ENDBRANCH  22  23
ENDBRANCH  21  22
ENDBRANCH  20  21
ENDBRANCH  19  20
ENDBRANCH  16  19
ENDBRANCH   1  16
TORSDOF 7
ENDMDL
MODEL 2
REMARK VINA RESULT:      -7.0      3.676      5.288
REMARK  7 active torsions:
REMARK  status: ('A' for Active; 'I' for Inactive)
REMARK    1  A    between atoms: N1_2  and  C2_3 
REMARK    2  A    between atoms: C2_3  and  C4_5 
REMARK    3  A    between atoms: C4_5  and  C5_6 
REMARK    4  A    between atoms: C5_6  and  C6_7 
REMARK    5  A    between atoms: C6_7  and  C7_8 
REMARK    6  A    between atoms: C7_8  and  N2_9 
REMARK    7  A    between atoms: N2_9  and  C8_10 
ROOT
HETATM    1  C8  LIG X 999      43.411 131.926  17.690  1.00  0.00     0.226 C 
HETATM    2  C9  LIG X 999      44.552 131.275  18.164  1.00  0.00     0.065 C 
HETATM    3  C10 LIG X 999      44.739 131.081  19.542  1.00  0.00    -0.045 C 
HETATM    4  C11 LIG X 999      46.121 130.650  19.968  1.00  0.00     0.049 C 
HETATM    5  C12 LIG X 999      43.684 131.426  20.448  1.00  0.00     0.010 C 
HETATM    6  C13 LIG X 999      42.608 132.191  19.914  1.00  0.00     0.070 C 
HETATM    7  C14 LIG X 999      41.654 132.767  20.751  1.00  0.00     0.033 C 
HETATM    8  C15 LIG X 999      41.725 132.596  22.126  1.00  0.00     0.014 C 
HETATM    9  C16 LIG X 999      42.691 131.750  22.681  1.00  0.00    -0.025 C 
HETATM   10  C17 LIG X 999      42.674 131.509  24.065  1.00  0.00     0.012 C 
HETATM   11  C18 LIG X 999      43.537 130.570  24.625  1.00  0.00     0.001 C 
HETATM   12  C19 LIG X 999      44.391 129.838  23.807  1.00  0.00     0.001 C 
HETATM   13  C20 LIG X 999      44.429 130.078  22.431  1.00  0.00     0.013 C 
HETATM   14  C21 LIG X 999      43.643 131.098  21.845  1.00  0.00    -0.013 C 
HETATM   15  N3  LIG X 999      42.497 132.394  18.575  1.00  0.00    -0.224 NA
ENDROOT
BRANCH   1  16
HETATM   16  N2  LIG X 999      43.210 132.130  16.278  1.00  0.00    -0.028 N 
HETATM   17  H17 LIG X 999      43.607 133.059  16.006  1.00  0.00     0.285 HD
HETATM   18  H18 LIG X 999      42.186 132.150  16.062  1.00  0.00     0.285 HD
BRANCH  16  19
HETATM   19  C7  LIG X 999      43.869 131.079  15.485  1.00  0.00     0.240 C 
BRANCH  19  20
HETATM   20  C6  LIG X 999      44.728 131.663  14.348  1.00  0.00     0.028 C 
BRANCH  20  21
HETATM   21  C5  LIG X 999      46.150 131.967  14.833  1.00  0.00     0.004 C 
BRANCH  21  22
HETATM   22  C4  LIG X 999      47.196 131.378  13.870  1.00  0.00     0.035 C 
BRANCH  22  23
HETATM   23  C2  LIG X 999      47.338 129.841  13.974  1.00  0.00     0.216 C 
HETATM   24  C3  LIG X 999      48.669 129.366  13.364  1.00  0.00     0.042 C 
BRANCH  23  25
HETATM   25  N1  LIG X 999      47.212 129.401  15.379  1.00  0.00     0.083 N 
HETATM   26  C1  LIG X 999      45.942 128.713  15.628  1.00  0.00     0.307 C 
HETATM   27  H4  LIG X 999      47.211 130.251  15.991  1.00  0.00     0.315 HD
ENDBRANCH  23  25
ENDBRANCH  22  23
ENDBRANCH  21  22
ENDBRANCH  20  21
ENDBRANCH  19  20
ENDBRANCH  16  19
ENDBRANCH   1  16
TORSDOF 7
ENDMDL
MODEL 3
REMARK VINA RESULT:      -6.9      2.291      7.242
REMARK  7 active torsions:
REMARK  status: ('A' for Active; 'I' for Inactive)
REMARK    1  A    between atoms: N1_2  and  C2_3 
REMARK    2  A    between atoms: C2_3  and  C4_5 
REMARK    3  A    between atoms: C4_5  and  C5_6 
REMARK    4  A    between atoms: C5_6  and  C6_7 
REMARK    5  A    between atoms: C6_7  and  C7_8 
REMARK    6  A    between atoms: C7_8  and  N2_9 
REMARK    7  A    between atoms: N2_9  and  C8_10 
ROOT
HETATM    1  C8  LIG X 999      43.439 131.751  22.381  1.00  0.00     0.226 C 
HETATM    2  C9  LIG X 999      44.626 131.094  22.051  1.00  0.00     0.065 C 
HETATM    3  C10 LIG X 999      44.950 130.843  20.707  1.00  0.00    -0.045 C 
HETATM    4  C11 LIG X 999      46.082 129.875  20.469  1.00  0.00     0.049 C 
HETATM    5  C12 LIG X 999      44.124 131.393  19.674  1.00  0.00     0.010 C 
HETATM    6  C13 LIG X 999      42.874 131.942  20.078  1.00  0.00     0.070 C 
HETATM    7  C14 LIG X 999      41.907 132.292  19.137  1.00  0.00     0.033 C 
HETATM    8  C15 LIG X 999      42.148 132.125  17.781  1.00  0.00     0.014 C 
HETATM    9  C16 LIG X 999      43.406 131.707  17.336  1.00  0.00    -0.025 C 
HETATM   10  C17 LIG X 999      43.658 131.649  15.955  1.00  0.00     0.012 C 
HETATM   11  C18 LIG X 999      44.938 131.367  15.486  1.00  0.00     0.001 C 
HETATM   12  C19 LIG X 999      45.982 131.181  16.386  1.00  0.00     0.001 C 
HETATM   13  C20 LIG X 999      45.743 131.221  17.762  1.00  0.00     0.013 C 
HETATM   14  C21 LIG X 999      44.435 131.400  18.272  1.00  0.00    -0.013 C 
HETATM   15  N3  LIG X 999      42.587 132.120  21.394  1.00  0.00    -0.224 NA
ENDROOT
BRANCH   1  16
HETATM   16  N2  LIG X 999      43.099 132.014  23.757  1.00  0.00    -0.028 N 
HETATM   17  H17 LIG X 999      42.086 132.269  23.816  1.00  0.00     0.285 HD
HETATM   18  H18 LIG X 999      43.650 132.830  24.112  1.00  0.00     0.285 HD
BRANCH  16  19
HETATM   19  C7  LIG X 999      43.344 130.835  24.605  1.00  0.00     0.240 C 
BRANCH  19  20
HETATM   20  C6  LIG X 999      42.377 129.681  24.286  1.00  0.00     0.028 C 
BRANCH  20  21
HETATM   21  C5  LIG X 999      43.006 128.325  24.625  1.00  0.00     0.004 C 
BRANCH  21  22
HETATM   22  C4  LIG X 999      44.349 128.144  23.895  1.00  0.00     0.035 C 
BRANCH  22  23
HETATM   23  C2  LIG X 999      44.322 127.040  22.811  1.00  0.00     0.216 C 
HETATM   24  C3  LIG X 999      45.748 126.644  22.390  1.00  0.00     0.042 C 
BRANCH  23  25
HETATM   25  N1  LIG X 999      43.563 125.865  23.286  1.00  0.00     0.083 N 
HETATM   26  C1  LIG X 999      43.435 124.837  22.249  1.00  0.00     0.307 C 
HETATM   27  H4  LIG X 999      42.589 126.172  23.518  1.00  0.00     0.315 HD
ENDBRANCH  23  25
ENDBRANCH  22  23
ENDBRANCH  21  22
ENDBRANCH  20  21
ENDBRANCH  19  20
ENDBRANCH  16  19
ENDBRANCH   1  16
TORSDOF 7
ENDMDL
MODEL 4
REMARK VINA RESULT:      -6.9      2.241      7.950
REMARK  7 active torsions:
REMARK  status: ('A' for Active; 'I' for Inactive)
REMARK    1  A    between atoms: N1_2  and  C2_3 
REMARK    2  A    between atoms: C2_3  and  C4_5 
REMARK    3  A    between atoms: C4_5  and  C5_6 
REMARK    4  A    between atoms: C5_6  and  C6_7 
REMARK    5  A    between atoms: C6_7  and  C7_8 
REMARK    6  A    between atoms: C7_8  and  N2_9 
REMARK    7  A    between atoms: N2_9  and  C8_10 
ROOT
HETATM    1  C8  LIG X 999      43.224 131.267  22.903  1.00  0.00     0.226 C 
HETATM    2  C9  LIG X 999      42.340 131.990  22.101  1.00  0.00     0.065 C 
HETATM    3  C10 LIG X 999      42.619 132.195  20.740  1.00  0.00    -0.045 C 
HETATM    4  C11 LIG X 999      41.773 133.229  20.039  1.00  0.00     0.049 C 
HETATM    5  C12 LIG X 999      43.747 131.537  20.150  1.00  0.00     0.010 C 
HETATM    6  C13 LIG X 999      44.667 130.920  21.044  1.00  0.00     0.070 C 
HETATM    7  C14 LIG X 999      45.902 130.454  20.593  1.00  0.00     0.033 C 
HETATM    8  C15 LIG X 999      46.254 130.570  19.256  1.00  0.00     0.014 C 
HETATM    9  C16 LIG X 999      45.332 131.054  18.324  1.00  0.00    -0.025 C 
HETATM   10  C17 LIG X 999      45.676 131.060  16.962  1.00  0.00     0.012 C 
HETATM   11  C18 LIG X 999      44.731 131.410  16.000  1.00  0.00     0.001 C 
HETATM   12  C19 LIG X 999      43.430 131.715  16.385  1.00  0.00     0.001 C 
HETATM   13  C20 LIG X 999      43.077 131.727  17.737  1.00  0.00     0.013 C 
HETATM   14  C21 LIG X 999      44.039 131.481  18.745  1.00  0.00    -0.013 C 
HETATM   15  N3  LIG X 999      44.372 130.788  22.363  1.00  0.00    -0.224 NA
ENDROOT
BRANCH   1  16
HETATM   16  N2  LIG X 999      42.945 131.051  24.300  1.00  0.00    -0.028 N 
HETATM   17  H17 LIG X 999      42.017 131.474  24.533  1.00  0.00     0.285 HD
HETATM   18  H18 LIG X 999      43.667 131.532  24.888  1.00  0.00     0.285 HD
BRANCH  16  19
HETATM   19  C7  LIG X 999      42.910 129.616  24.625  1.00  0.00     0.240 C 
BRANCH  19  20
HETATM   20  C6  LIG X 999      41.595 128.952  24.176  1.00  0.00     0.028 C 
BRANCH  20  21
HETATM   21  C5  LIG X 999      41.606 127.449  24.475  1.00  0.00     0.004 C 
BRANCH  21  22
HETATM   22  C4  LIG X 999      40.603 126.702  23.578  1.00  0.00     0.035 C 
BRANCH  22  23
HETATM   23  C2  LIG X 999      40.755 125.163  23.624  1.00  0.00     0.216 C 
HETATM   24  C3  LIG X 999      39.715 124.533  24.568  1.00  0.00     0.042 C 
BRANCH  23  25
HETATM   25  N1  LIG X 999      40.655 124.590  22.267  1.00  0.00     0.083 N 
HETATM   26  C1  LIG X 999      41.970 124.252  21.714  1.00  0.00     0.307 C 
HETATM   27  H4  LIG X 999      40.247 125.316  21.631  1.00  0.00     0.315 HD
ENDBRANCH  23  25
ENDBRANCH  22  23
ENDBRANCH  21  22
ENDBRANCH  20  21
ENDBRANCH  19  20
ENDBRANCH  16  19
ENDBRANCH   1  16
TORSDOF 7
ENDMDL
MODEL 5
REMARK VINA RESULT:      -6.8      1.534      2.501
REMARK  7 active torsions:
REMARK  status: ('A' for Active; 'I' for Inactive)
REMARK    1  A    between atoms: N1_2  and  C2_3 
REMARK    2  A    between atoms: C2_3  and  C4_5 
REMARK    3  A    between atoms: C4_5  and  C5_6 
REMARK    4  A    between atoms: C5_6  and  C6_7 
REMARK    5  A    between atoms: C6_7  and  C7_8 
REMARK    6  A    between atoms: C7_8  and  N2_9 
REMARK    7  A    between atoms: N2_9  and  C8_10 
ROOT
HETATM    1  C8  LIG X 999      42.500 128.573  23.590  1.00  0.00     0.226 C 
HETATM    2  C9  LIG X 999      43.308 127.435  23.564  1.00  0.00     0.065 C 
HETATM    3  C10 LIG X 999      42.750 126.161  23.760  1.00  0.00    -0.045 C 
HETATM    4  C11 LIG X 999      43.728 125.042  24.016  1.00  0.00     0.049 C 
HETATM    5  C12 LIG X 999      41.326 126.026  23.844  1.00  0.00     0.010 C 
HETATM    6  C13 LIG X 999      40.577 127.230  23.984  1.00  0.00     0.070 C 
HETATM    7  C14 LIG X 999      39.219 127.196  24.299  1.00  0.00     0.033 C 
HETATM    8  C15 LIG X 999      38.564 125.985  24.469  1.00  0.00     0.014 C 
HETATM    9  C16 LIG X 999      39.230 124.782  24.217  1.00  0.00    -0.025 C 
HETATM   10  C17 LIG X 999      38.515 123.575  24.292  1.00  0.00     0.012 C 
HETATM   11  C18 LIG X 999      39.117 122.377  23.917  1.00  0.00     0.001 C 
HETATM   12  C19 LIG X 999      40.420 122.378  23.428  1.00  0.00     0.001 C 
HETATM   13  C20 LIG X 999      41.148 123.568  23.361  1.00  0.00     0.013 C 
HETATM   14  C21 LIG X 999      40.603 124.786  23.834  1.00  0.00    -0.013 C 
HETATM   15  N3  LIG X 999      41.173 128.441  23.834  1.00  0.00    -0.224 NA
ENDROOT
BRANCH   1  16
HETATM   16  N2  LIG X 999      43.064 129.884  23.389  1.00  0.00    -0.028 N 
HETATM   17  H17 LIG X 999      43.313 130.295  24.319  1.00  0.00     0.285 HD
HETATM   18  H18 LIG X 999      42.355 130.514  22.946  1.00  0.00     0.285 HD
BRANCH  16  19
HETATM   19  C7  LIG X 999      44.275 129.825  22.554  1.00  0.00     0.240 C 
BRANCH  19  20
HETATM   20  C6  LIG X 999      44.598 131.184  21.907  1.00  0.00     0.028 C 
BRANCH  20  21
HETATM   21  C5  LIG X 999      45.124 131.003  20.478  1.00  0.00     0.004 C 
BRANCH  21  22
HETATM   22  C4  LIG X 999      44.256 131.779  19.470  1.00  0.00     0.035 C 
BRANCH  22  23
HETATM   23  C2  LIG X 999      44.778 131.702  18.016  1.00  0.00     0.216 C 
HETATM   24  C3  LIG X 999      45.666 130.461  17.811  1.00  0.00     0.042 C 
BRANCH  23  25
HETATM   25  N1  LIG X 999      43.652 131.711  17.059  1.00  0.00     0.083 N 
HETATM   26  C1  LIG X 999      44.096 131.466  15.684  1.00  0.00     0.307 C 
HETATM   27  H4  LIG X 999      43.223 132.666  17.063  1.00  0.00     0.315 HD
ENDBRANCH  23  25
ENDBRANCH  22  23
ENDBRANCH  21  22
ENDBRANCH  20  21
ENDBRANCH  19  20
ENDBRANCH  16  19
ENDBRANCH   1  16
TORSDOF 7
ENDMDL
MODEL 6
REMARK VINA RESULT:      -6.8      0.922      2.414
REMARK  7 active torsions:
REMARK  status: ('A' for Active; 'I' for Inactive)
REMARK    1  A    between atoms: N1_2  and  C2_3 
REMARK    2  A    between atoms: C2_3  and  C4_5 
REMARK    3  A    between atoms: C4_5  and  C5_6 
REMARK    4  A    between atoms: C5_6  and  C6_7 
REMARK    5  A    between atoms: C6_7  and  C7_8 
REMARK    6  A    between atoms: C7_8  and  N2_9 
REMARK    7  A    between atoms: N2_9  and  C8_10 
ROOT
HETATM    1  C8  LIG X 999      44.037 129.867  23.063  1.00  0.00     0.226 C 
HETATM    2  C9  LIG X 999      42.745 129.527  23.470  1.00  0.00     0.065 C 
HETATM    3  C10 LIG X 999      42.359 128.179  23.557  1.00  0.00    -0.045 C 
HETATM    4  C11 LIG X 999      40.880 127.924  23.707  1.00  0.00     0.049 C 
HETATM    5  C12 LIG X 999      43.342 127.155  23.364  1.00  0.00     0.010 C 
HETATM    6  C13 LIG X 999      44.599 127.567  22.836  1.00  0.00     0.070 C 
HETATM    7  C14 LIG X 999      45.535 126.629  22.401  1.00  0.00     0.033 C 
HETATM    8  C15 LIG X 999      45.266 125.271  22.487  1.00  0.00     0.014 C 
HETATM    9  C16 LIG X 999      44.099 124.822  23.113  1.00  0.00    -0.025 C 
HETATM   10  C17 LIG X 999      43.902 123.442  23.283  1.00  0.00     0.012 C 
HETATM   11  C18 LIG X 999      42.817 122.972  24.020  1.00  0.00     0.001 C 
HETATM   12  C19 LIG X 999      41.946 123.873  24.624  1.00  0.00     0.001 C 
HETATM   13  C20 LIG X 999      42.122 125.248  24.452  1.00  0.00     0.013 C 
HETATM   14  C21 LIG X 999      43.150 125.756  23.622  1.00  0.00    -0.013 C 
HETATM   15  N3  LIG X 999      44.907 128.885  22.725  1.00  0.00    -0.224 NA
ENDROOT
BRANCH   1  16
HETATM   16  N2  LIG X 999      44.443 131.247  22.971  1.00  0.00    -0.028 N 
HETATM   17  H17 LIG X 999      45.179 131.435  23.690  1.00  0.00     0.285 HD
HETATM   18  H18 LIG X 999      43.630 131.873  23.181  1.00  0.00     0.285 HD
BRANCH  16  19
HETATM   19  C7  LIG X 999      44.984 131.559  21.639  1.00  0.00     0.240 C 
BRANCH  19  20
HETATM   20  C6  LIG X 999      43.934 131.376  20.528  1.00  0.00     0.028 C 
BRANCH  20  21
HETATM   21  C5  LIG X 999      44.506 131.760  19.159  1.00  0.00     0.004 C 
BRANCH  21  22
HETATM   22  C4  LIG X 999      45.503 130.698  18.662  1.00  0.00     0.035 C 
BRANCH  22  23
HETATM   23  C2  LIG X 999      45.504 130.521  17.125  1.00  0.00     0.216 C 
HETATM   24  C3  LIG X 999      45.282 131.867  16.413  1.00  0.00     0.042 C 
BRANCH  23  25
HETATM   25  N1  LIG X 999      46.761 129.885  16.677  1.00  0.00     0.083 N 
HETATM   26  C1  LIG X 999      46.894 129.900  15.217  1.00  0.00     0.307 C 
HETATM   27  H4  LIG X 999      46.739 128.877  16.959  1.00  0.00     0.315 HD
ENDBRANCH  23  25
ENDBRANCH  22  23
ENDBRANCH  21  22
ENDBRANCH  20  21
ENDBRANCH  19  20
ENDBRANCH  16  19
ENDBRANCH   1  16
TORSDOF 7
ENDMDL
MODEL 7
REMARK VINA RESULT:      -6.5      3.494      5.590
REMARK  7 active torsions:
REMARK  status: ('A' for Active; 'I' for Inactive)
REMARK    1  A    between atoms: N1_2  and  C2_3 
REMARK    2  A    between atoms: C2_3  and  C4_5 
REMARK    3  A    between atoms: C4_5  and  C5_6 
REMARK    4  A    between atoms: C5_6  and  C6_7 
REMARK    5  A    between atoms: C6_7  and  C7_8 
REMARK    6  A    between atoms: C7_8  and  N2_9 
REMARK    7  A    between atoms: N2_9  and  C8_10 
ROOT
HETATM    1  C8  LIG X 999      44.653 131.842  17.843  1.00  0.00     0.226 C 
HETATM    2  C9  LIG X 999      43.486 132.427  18.337  1.00  0.00     0.065 C 
HETATM    3  C10 LIG X 999      43.028 132.119  19.629  1.00  0.00    -0.045 C 
HETATM    4  C11 LIG X 999      41.621 132.555  19.953  1.00  0.00     0.049 C 
HETATM    5  C12 LIG X 999      43.844 131.313  20.487  1.00  0.00     0.010 C 
HETATM    6  C13 LIG X 999      44.952 130.654  19.882  1.00  0.00     0.070 C 
HETATM    7  C14 LIG X 999      45.668 129.676  20.571  1.00  0.00     0.033 C 
HETATM    8  C15 LIG X 999      45.322 129.332  21.870  1.00  0.00     0.014 C 
HETATM    9  C16 LIG X 999      44.322 130.040  22.543  1.00  0.00    -0.025 C 
HETATM   10  C17 LIG X 999      44.065 129.743  23.892  1.00  0.00     0.012 C 
HETATM   11  C18 LIG X 999      43.171 130.520  24.625  1.00  0.00     0.001 C 
HETATM   12  C19 LIG X 999      42.559 131.619  24.031  1.00  0.00     0.001 C 
HETATM   13  C20 LIG X 999      42.795 131.918  22.687  1.00  0.00     0.013 C 
HETATM   14  C21 LIG X 999      43.613 131.087  21.886  1.00  0.00    -0.013 C 
HETATM   15  N3  LIG X 999      45.327 130.951  18.611  1.00  0.00    -0.224 NA
ENDROOT
BRANCH   1  16
HETATM   16  N2  LIG X 999      45.131 132.152  16.519  1.00  0.00    -0.028 N 
HETATM   17  H17 LIG X 999      46.047 131.670  16.364  1.00  0.00     0.285 HD
HETATM   18  H18 LIG X 999      45.299 133.182  16.432  1.00  0.00     0.285 HD
BRANCH  16  19
HETATM   19  C7  LIG X 999      44.179 131.711  15.487  1.00  0.00     0.240 C 
BRANCH  19  20
HETATM   20  C6  LIG X 999      44.878 131.384  14.155  1.00  0.00     0.028 C 
BRANCH  20  21
HETATM   21  C5  LIG X 999      46.358 131.781  14.197  1.00  0.00     0.004 C 
BRANCH  21  22
HETATM   22  C4  LIG X 999      47.182 130.938  13.208  1.00  0.00     0.035 C 
BRANCH  22  23
HETATM   23  C2  LIG X 999      47.600 129.558  13.769  1.00  0.00     0.216 C 
HETATM   24  C3  LIG X 999      49.050 129.219  13.378  1.00  0.00     0.042 C 
BRANCH  23  25
HETATM   25  N1  LIG X 999      47.424 129.518  15.235  1.00  0.00     0.083 N 
HETATM   26  C1  LIG X 999      46.197 128.815  15.622  1.00  0.00     0.307 C 
HETATM   27  H4  LIG X 999      47.321 130.501  15.582  1.00  0.00     0.315 HD
ENDBRANCH  23  25
ENDBRANCH  22  23
ENDBRANCH  21  22
ENDBRANCH  20  21
ENDBRANCH  19  20
ENDBRANCH  16  19
ENDBRANCH   1  16
TORSDOF 7
ENDMDL
MODEL 8
REMARK VINA RESULT:      -6.5      1.626      3.247
REMARK  7 active torsions:
REMARK  status: ('A' for Active; 'I' for Inactive)
REMARK    1  A    between atoms: N1_2  and  C2_3 
REMARK    2  A    between atoms: C2_3  and  C4_5 
REMARK    3  A    between atoms: C4_5  and  C5_6 
REMARK    4  A    between atoms: C5_6  and  C6_7 
REMARK    5  A    between atoms: C6_7  and  C7_8 
REMARK    6  A    between atoms: C7_8  and  N2_9 
REMARK    7  A    between atoms: N2_9  and  C8_10 
ROOT
HETATM    1  C8  LIG X 999      43.625 128.541  23.594  1.00  0.00     0.226 C 
HETATM    2  C9  LIG X 999      42.275 128.615  23.944  1.00  0.00     0.065 C 
HETATM    3  C10 LIG X 999      41.469 127.465  23.915  1.00  0.00    -0.045 C 
HETATM    4  C11 LIG X 999      39.982 127.697  24.012  1.00  0.00     0.049 C 
HETATM    5  C12 LIG X 999      42.075 126.192  23.662  1.00  0.00     0.010 C 
HETATM    6  C13 LIG X 999      43.421 126.205  23.195  1.00  0.00     0.070 C 
HETATM    7  C14 LIG X 999      44.021 125.046  22.707  1.00  0.00     0.033 C 
HETATM    8  C15 LIG X 999      43.323 123.847  22.678  1.00  0.00     0.014 C 
HETATM    9  C16 LIG X 999      42.046 123.763  23.241  1.00  0.00    -0.025 C 
HETATM   10  C17 LIG X 999      41.404 122.514  23.295  1.00  0.00     0.012 C 
HETATM   11  C18 LIG X 999      40.193 122.375  23.968  1.00  0.00     0.001 C 
HETATM   12  C19 LIG X 999      39.634 123.467  24.624  1.00  0.00     0.001 C 
HETATM   13  C20 LIG X 999      40.254 124.718  24.567  1.00  0.00     0.013 C 
HETATM   14  C21 LIG X 999      41.429 124.918  23.803  1.00  0.00    -0.013 C 
HETATM   15  N3  LIG X 999      44.145 127.354  23.197  1.00  0.00    -0.224 NA
ENDROOT
BRANCH   1  16
HETATM   16  N2  LIG X 999      44.460 129.716  23.622  1.00  0.00    -0.028 N 
HETATM   17  H17 LIG X 999      45.460 129.422  23.715  1.00  0.00     0.285 HD
HETATM   18  H18 LIG X 999      44.225 130.302  24.457  1.00  0.00     0.285 HD
BRANCH  16  19
HETATM   19  C7  LIG X 999      44.308 130.511  22.393  1.00  0.00     0.240 C 
BRANCH  19  20
HETATM   20  C6  LIG X 999      45.179 129.973  21.243  1.00  0.00     0.028 C 
BRANCH  20  21
HETATM   21  C5  LIG X 999      45.749 131.119  20.399  1.00  0.00     0.004 C 
BRANCH  21  22
HETATM   22  C4  LIG X 999      44.621 131.913  19.717  1.00  0.00     0.035 C 
BRANCH  22  23
HETATM   23  C2  LIG X 999      44.669 131.854  18.171  1.00  0.00     0.216 C 
HETATM   24  C3  LIG X 999      45.567 130.701  17.690  1.00  0.00     0.042 C 
BRANCH  23  25
HETATM   25  N1  LIG X 999      43.306 131.733  17.614  1.00  0.00     0.083 N 
HETATM   26  C1  LIG X 999      42.275 132.043  18.609  1.00  0.00     0.307 C 
HETATM   27  H4  LIG X 999      43.152 130.736  17.332  1.00  0.00     0.315 HD
ENDBRANCH  23  25
ENDBRANCH  22  23
ENDBRANCH  21  22
ENDBRANCH  20  21
ENDBRANCH  19  20
ENDBRANCH  16  19
ENDBRANCH   1  16
TORSDOF 7
ENDMDL
MODEL 9
REMARK VINA RESULT:      -5.6      4.589      6.132
REMARK  7 active torsions:
REMARK  status: ('A' for Active; 'I' for Inactive)
REMARK    1  A    between atoms: N1_2  and  C2_3 
REMARK    2  A    between atoms: C2_3  and  C4_5 
REMARK    3  A    between atoms: C4_5  and  C5_6 
REMARK    4  A    between atoms: C5_6  and  C6_7 
REMARK    5  A    between atoms: C6_7  and  C7_8 
REMARK    6  A    between atoms: C7_8  and  N2_9 
REMARK    7  A    between atoms: N2_9  and  C8_10 
ROOT
HETATM    1  C8  LIG X 999      46.470 124.584  22.368  1.00  0.00     0.226 C 
HETATM    2  C9  LIG X 999      45.947 125.809  22.787  1.00  0.00     0.065 C 
HETATM    3  C10 LIG X 999      44.559 125.987  22.901  1.00  0.00    -0.045 C 
HETATM    4  C11 LIG X 999      44.086 127.410  23.063  1.00  0.00     0.049 C 
HETATM    5  C12 LIG X 999      43.691 124.861  22.721  1.00  0.00     0.010 C 
HETATM    6  C13 LIG X 999      44.277 123.682  22.180  1.00  0.00     0.070 C 
HETATM    7  C14 LIG X 999      43.484 122.616  21.757  1.00  0.00     0.033 C 
HETATM    8  C15 LIG X 999      42.102 122.677  21.869  1.00  0.00     0.014 C 
HETATM    9  C16 LIG X 999      41.495 123.761  22.509  1.00  0.00    -0.025 C 
HETATM   10  C17 LIG X 999      40.104 123.747  22.705  1.00  0.00     0.012 C 
HETATM   11  C18 LIG X 999      39.489 124.747  23.455  1.00  0.00     0.001 C 
HETATM   12  C19 LIG X 999      40.260 125.742  24.048  1.00  0.00     0.001 C 
HETATM   13  C20 LIG X 999      41.643 125.776  23.850  1.00  0.00     0.013 C 
HETATM   14  C21 LIG X 999      42.284 124.839  23.006  1.00  0.00    -0.013 C 
HETATM   15  N3  LIG X 999      45.625 123.576  22.044  1.00  0.00    -0.224 NA
ENDROOT
BRANCH   1  16
HETATM   16  N2  LIG X 999      47.894 124.392  22.249  1.00  0.00    -0.028 N 
HETATM   17  H17 LIG X 999      48.134 124.226  21.244  1.00  0.00     0.285 HD
HETATM   18  H18 LIG X 999      48.186 123.541  22.786  1.00  0.00     0.285 HD
BRANCH  16  19
HETATM   19  C7  LIG X 999      48.637 125.568  22.730  1.00  0.00     0.240 C 
BRANCH  19  20
HETATM   20  C6  LIG X 999      50.157 125.404  22.554  1.00  0.00     0.028 C 
BRANCH  20  21
HETATM   21  C5  LIG X 999      50.481 124.241  21.608  1.00  0.00     0.004 C 
BRANCH  21  22
HETATM   22  C4  LIG X 999      51.471 124.681  20.516  1.00  0.00     0.035 C 
BRANCH  22  23
HETATM   23  C2  LIG X 999      51.298 123.920  19.180  1.00  0.00     0.216 C 
HETATM   24  C3  LIG X 999      49.870 123.363  19.042  1.00  0.00     0.042 C 
BRANCH  23  25
HETATM   25  N1  LIG X 999      51.639 124.792  18.037  1.00  0.00     0.083 N 
HETATM   26  C1  LIG X 999      52.963 124.484  17.486  1.00  0.00     0.307 C 
HETATM   27  H4  LIG X 999      51.686 125.781  18.379  1.00  0.00     0.315 HD
ENDBRANCH  23  25
ENDBRANCH  22  23
ENDBRANCH  21  22
ENDBRANCH  20  21
ENDBRANCH  19  20
ENDBRANCH  16  19
ENDBRANCH   1  16
TORSDOF 7
ENDMDL
