MODEL 1
REMARK VINA RESULT:      -6.1      0.000      0.000
REMARK  3 active torsions:
REMARK  status: ('A' for Active; 'I' for Inactive)
REMARK    1  A    between atoms: C2_2  and  N1_3 
REMARK    2  A    between atoms: C3_6  and  O1_7 
REMARK    3  A    between atoms: O1_7  and  C4_8 
REMARK       I    between atoms: C4_8  and  N4_10 
ROOT
HETATM    1  N1  LIG X 999      43.208 132.001  15.090  1.00  0.00    -0.070 NA
HETATM    2  N2  LIG X 999      43.501 131.314  14.111  1.00  0.00    -0.162 NA
HETATM    3  N3  LIG X 999      43.786 130.630  13.129  1.00  0.00     0.068 N 
ENDROOT
BRANCH   1   4
HETATM    4  C2  LIG X 999      43.774 131.807  16.396  1.00  0.00     0.128 A 
HETATM    5  C1  LIG X 999      42.913 131.928  17.495  1.00  0.00     0.049 A 
HETATM    6  C13 LIG X 999      43.382 131.742  18.801  1.00  0.00    -0.023 A 
HETATM    7  C8  LIG X 999      44.752 131.436  19.018  1.00  0.00    -0.022 A 
HETATM    8  C12 LIG X 999      42.508 131.862  19.900  1.00  0.00     0.021 A 
HETATM    9  C7  LIG X 999      45.616 131.324  17.922  1.00  0.00     0.052 A 
HETATM   10  C9  LIG X 999      45.232 131.260  20.331  1.00  0.00     0.021 A 
HETATM   11  C3  LIG X 999      45.140 131.496  16.607  1.00  0.00     0.113 A 
HETATM   12  C10 LIG X 999      44.333 131.381  21.392  1.00  0.00    -0.024 A 
HETATM   13  C11 LIG X 999      43.020 131.671  21.184  1.00  0.00    -0.024 A 
HETATM   14  C17 LIG X 999      44.617 131.259  22.838  1.00  0.00     0.276 C 
HETATM   15  C14 LIG X 999      42.300 131.771  22.472  1.00  0.00     0.276 C 
HETATM   16  N5  LIG X 999      43.285 131.347  23.518  1.00  0.00    -0.067 N 
HETATM   17  C15 LIG X 999      43.328 132.330  24.625  1.00  0.00     0.272 C 
HETATM   18  C16 LIG X 999      42.906 130.023  24.065  1.00  0.00     0.272 C 
BRANCH  11  19
HETATM   19  O1  LIG X 999      46.020 131.417  15.516  1.00  0.00    -0.259 OA
BRANCH  19  20
HETATM   20  C4  LIG X 999      46.860 130.328  15.241  1.00  0.00     0.367 C 
HETATM   21  O2  LIG X 999      47.002 129.404  16.090  1.00  0.00    -0.238 OA
HETATM   22  N4  LIG X 999      47.526 130.242  13.969  1.00  0.00    -0.336 N 
HETATM   23  C5  LIG X 999      48.353 129.072  13.658  1.00  0.00     0.154 C 
HETATM   24  C6  LIG X 999      47.389 131.340  13.011  1.00  0.00     0.154 C 
ENDBRANCH  19  20
ENDBRANCH  11  19
ENDBRANCH   1   4
TORSDOF 3
ENDMDL
MODEL 2
REMARK VINA RESULT:      -5.8      4.502      7.160
REMARK  3 active torsions:
REMARK  status: ('A' for Active; 'I' for Inactive)
REMARK    1  A    between atoms: C2_2  and  N1_3 
REMARK    2  A    between atoms: C3_6  and  O1_7 
REMARK    3  A    between atoms: O1_7  and  C4_8 
REMARK       I    between atoms: C4_8  and  N4_10 
ROOT
HETATM    1  N1  LIG X 999      43.056 131.440  23.377  1.00  0.00    -0.070 NA
HETATM    2  N2  LIG X 999      43.566 132.372  24.003  1.00  0.00    -0.162 NA
HETATM    3  N3  LIG X 999      44.068 133.307  24.624  1.00  0.00     0.068 N 
ENDROOT
BRANCH   1   4
HETATM    4  C2  LIG X 999      43.777 130.265  22.974  1.00  0.00     0.128 A 
HETATM    5  C1  LIG X 999      43.659 129.128  23.784  1.00  0.00     0.049 A 
HETATM    6  C13 LIG X 999      44.319 127.938  23.456  1.00  0.00    -0.023 A 
HETATM    7  C8  LIG X 999      45.128 127.883  22.290  1.00  0.00    -0.022 A 
HETATM    8  C12 LIG X 999      44.193 126.799  24.275  1.00  0.00     0.021 A 
HETATM    9  C7  LIG X 999      45.254 129.021  21.483  1.00  0.00     0.052 A 
HETATM   10  C9  LIG X 999      45.805 126.692  21.961  1.00  0.00     0.021 A 
HETATM   11  C3  LIG X 999      44.578 130.213  21.806  1.00  0.00     0.113 A 
HETATM   12  C10 LIG X 999      45.648 125.583  22.794  1.00  0.00    -0.024 A 
HETATM   13  C11 LIG X 999      44.870 125.635  23.910  1.00  0.00    -0.024 A 
HETATM   14  C17 LIG X 999      46.274 124.250  22.657  1.00  0.00     0.276 C 
HETATM   15  C14 LIG X 999      44.903 124.341  24.625  1.00  0.00     0.276 C 
HETATM   16  N5  LIG X 999      45.667 123.408  23.737  1.00  0.00    -0.067 N 
HETATM   17  C15 LIG X 999      46.721 122.703  24.503  1.00  0.00     0.272 C 
HETATM   18  C16 LIG X 999      44.750 122.406  23.144  1.00  0.00     0.272 C 
BRANCH  11  19
HETATM   19  O1  LIG X 999      44.738 131.359  21.012  1.00  0.00    -0.259 OA
BRANCH  19  20
HETATM   20  C4  LIG X 999      43.958 131.671  19.888  1.00  0.00     0.367 C 
HETATM   21  O2  LIG X 999      42.849 132.257  20.027  1.00  0.00    -0.238 OA
HETATM   22  N4  LIG X 999      44.448 131.364  18.571  1.00  0.00    -0.336 N 
HETATM   23  C5  LIG X 999      43.663 131.748  17.394  1.00  0.00     0.154 C 
HETATM   24  C6  LIG X 999      45.715 130.645  18.425  1.00  0.00     0.154 C 
ENDBRANCH  19  20
ENDBRANCH  11  19
ENDBRANCH   1   4
TORSDOF 3
ENDMDL
MODEL 3
REMARK VINA RESULT:      -5.5      3.048      7.740
REMARK  3 active torsions:
REMARK  status: ('A' for Active; 'I' for Inactive)
REMARK    1  A    between atoms: C2_2  and  N1_3 
REMARK    2  A    between atoms: C3_6  and  O1_7 
REMARK    3  A    between atoms: O1_7  and  C4_8 
REMARK       I    between atoms: C4_8  and  N4_10 
ROOT
HETATM    1  N1  LIG X 999      42.468 131.801  22.633  1.00  0.00    -0.070 NA
HETATM    2  N2  LIG X 999      42.815 132.438  23.629  1.00  0.00    -0.162 NA
HETATM    3  N3  LIG X 999      43.153 133.077  24.624  1.00  0.00     0.068 N 
ENDROOT
BRANCH   1   4
HETATM    4  C2  LIG X 999      43.384 131.325  21.634  1.00  0.00     0.128 A 
HETATM    5  C1  LIG X 999      43.201 131.783  20.322  1.00  0.00     0.049 A 
HETATM    6  C13 LIG X 999      44.057 131.378  19.292  1.00  0.00    -0.023 A 
HETATM    7  C8  LIG X 999      45.121 130.481  19.576  1.00  0.00    -0.022 A 
HETATM    8  C12 LIG X 999      43.868 131.846  17.977  1.00  0.00     0.021 A 
HETATM    9  C7  LIG X 999      45.301 130.015  20.884  1.00  0.00     0.052 A 
HETATM   10  C9  LIG X 999      45.979 130.060  18.540  1.00  0.00     0.021 A 
HETATM   11  C3  LIG X 999      44.448 130.435  21.923  1.00  0.00     0.113 A 
HETATM   12  C10 LIG X 999      45.762 130.551  17.252  1.00  0.00    -0.024 A 
HETATM   13  C11 LIG X 999      44.744 131.414  16.981  1.00  0.00    -0.024 A 
HETATM   14  C17 LIG X 999      46.516 130.232  16.021  1.00  0.00     0.276 C 
HETATM   15  C14 LIG X 999      44.721 131.752  15.542  1.00  0.00     0.276 C 
HETATM   16  N5  LIG X 999      45.951 131.126  14.960  1.00  0.00    -0.067 N 
HETATM   17  C15 LIG X 999      45.618 130.349  13.745  1.00  0.00     0.272 C 
HETATM   18  C16 LIG X 999      46.935 132.177  14.605  1.00  0.00     0.272 C 
BRANCH  11  19
HETATM   19  O1  LIG X 999      44.613 129.936  23.224  1.00  0.00    -0.259 OA
BRANCH  19  20
HETATM   20  C4  LIG X 999      43.859 128.894  23.786  1.00  0.00     0.367 C 
HETATM   21  O2  LIG X 999      42.893 129.153  24.555  1.00  0.00    -0.238 OA
HETATM   22  N4  LIG X 999      44.161 127.530  23.445  1.00  0.00    -0.336 N 
HETATM   23  C5  LIG X 999      43.333 126.445  23.980  1.00  0.00     0.154 C 
HETATM   24  C6  LIG X 999      45.311 127.241  22.587  1.00  0.00     0.154 C 
ENDBRANCH  19  20
ENDBRANCH  11  19
ENDBRANCH   1   4
TORSDOF 3
ENDMDL
MODEL 4
REMARK VINA RESULT:      -5.2      7.203     10.009
REMARK  3 active torsions:
REMARK  status: ('A' for Active; 'I' for Inactive)
REMARK    1  A    between atoms: C2_2  and  N1_3 
REMARK    2  A    between atoms: C3_6  and  O1_7 
REMARK    3  A    between atoms: O1_7  and  C4_8 
REMARK       I    between atoms: C4_8  and  N4_10 
ROOT
HETATM    1  N1  LIG X 999      42.766 128.749  23.675  1.00  0.00    -0.070 NA
HETATM    2  N2  LIG X 999      43.061 129.704  22.954  1.00  0.00    -0.162 NA
HETATM    3  N3  LIG X 999      43.348 130.661  22.237  1.00  0.00     0.068 N 
ENDROOT
BRANCH   1   4
HETATM    4  C2  LIG X 999      43.368 127.450  23.561  1.00  0.00     0.128 A 
HETATM    5  C1  LIG X 999      44.627 127.376  22.950  1.00  0.00     0.049 A 
HETATM    6  C13 LIG X 999      45.289 126.151  22.809  1.00  0.00    -0.023 A 
HETATM    7  C8  LIG X 999      44.673 124.963  23.284  1.00  0.00    -0.022 A 
HETATM    8  C12 LIG X 999      46.556 126.086  22.196  1.00  0.00     0.021 A 
HETATM    9  C7  LIG X 999      43.411 125.032  23.888  1.00  0.00     0.052 A 
HETATM   10  C9  LIG X 999      45.329 123.725  23.135  1.00  0.00     0.021 A 
HETATM   11  C3  LIG X 999      42.753 126.268  24.042  1.00  0.00     0.113 A 
HETATM   12  C10 LIG X 999      46.585 123.704  22.528  1.00  0.00    -0.024 A 
HETATM   13  C11 LIG X 999      47.177 124.843  22.076  1.00  0.00    -0.024 A 
HETATM   14  C17 LIG X 999      47.438 122.528  22.250  1.00  0.00     0.276 C 
HETATM   15  C14 LIG X 999      48.482 124.537  21.452  1.00  0.00     0.276 C 
HETATM   16  N5  LIG X 999      48.721 123.081  21.710  1.00  0.00    -0.067 N 
HETATM   17  C15 LIG X 999      49.106 122.385  20.461  1.00  0.00     0.272 C 
HETATM   18  C16 LIG X 999      49.806 122.914  22.707  1.00  0.00     0.272 C 
BRANCH  11  19
HETATM   19  O1  LIG X 999      41.473 126.326  24.616  1.00  0.00    -0.259 OA
BRANCH  19  20
HETATM   20  C4  LIG X 999      40.273 126.095  23.926  1.00  0.00     0.367 C 
HETATM   21  O2  LIG X 999      40.088 125.002  23.322  1.00  0.00    -0.238 OA
HETATM   22  N4  LIG X 999      39.234 127.089  23.948  1.00  0.00    -0.336 N 
HETATM   23  C5  LIG X 999      37.956 126.821  23.281  1.00  0.00     0.154 C 
HETATM   24  C6  LIG X 999      39.478 128.369  24.615  1.00  0.00     0.154 C 
ENDBRANCH  19  20
ENDBRANCH  11  19
ENDBRANCH   1   4
TORSDOF 3
ENDMDL
MODEL 5
REMARK VINA RESULT:      -4.8      7.331     10.453
REMARK  3 active torsions:
REMARK  status: ('A' for Active; 'I' for Inactive)
REMARK    1  A    between atoms: C2_2  and  N1_3 
REMARK    2  A    between atoms: C3_6  and  O1_7 
REMARK    3  A    between atoms: O1_7  and  C4_8 
REMARK       I    between atoms: C4_8  and  N4_10 
ROOT
HETATM    1  N1  LIG X 999      42.644 124.240  23.075  1.00  0.00    -0.070 NA
HETATM    2  N2  LIG X 999      42.198 123.312  23.750  1.00  0.00    -0.162 NA
HETATM    3  N3  LIG X 999      41.744 122.388  24.424  1.00  0.00     0.068 N 
ENDROOT
BRANCH   1   4
HETATM    4  C2  LIG X 999      44.041 124.566  22.997  1.00  0.00     0.128 A 
HETATM    5  C1  LIG X 999      44.849 123.751  22.193  1.00  0.00     0.049 A 
HETATM    6  C13 LIG X 999      46.218 124.006  22.052  1.00  0.00    -0.023 A 
HETATM    7  C8  LIG X 999      46.801 125.103  22.742  1.00  0.00    -0.022 A 
HETATM    8  C12 LIG X 999      47.021 123.182  21.240  1.00  0.00     0.021 A 
HETATM    9  C7  LIG X 999      45.998 125.915  23.552  1.00  0.00     0.052 A 
HETATM   10  C9  LIG X 999      48.180 125.358  22.614  1.00  0.00     0.021 A 
HETATM   11  C3  LIG X 999      44.618 125.665  23.681  1.00  0.00     0.113 A 
HETATM   12  C10 LIG X 999      48.941 124.522  21.794  1.00  0.00    -0.024 A 
HETATM   13  C11 LIG X 999      48.381 123.473  21.131  1.00  0.00    -0.024 A 
HETATM   14  C17 LIG X 999      50.395 124.588  21.532  1.00  0.00     0.276 C 
HETATM   15  C14 LIG X 999      49.408 122.738  20.363  1.00  0.00     0.276 C 
HETATM   16  N5  LIG X 999      50.663 123.547  20.489  1.00  0.00    -0.067 N 
HETATM   17  C15 LIG X 999      51.801 122.688  20.888  1.00  0.00     0.272 C 
HETATM   18  C16 LIG X 999      50.980 124.196  19.194  1.00  0.00     0.272 C 
BRANCH  11  19
HETATM   19  O1  LIG X 999      43.826 126.462  24.523  1.00  0.00    -0.259 OA
BRANCH  19  20
HETATM   20  C4  LIG X 999      42.891 127.411  24.084  1.00  0.00     0.367 C 
HETATM   21  O2  LIG X 999      41.764 127.040  23.655  1.00  0.00    -0.238 OA
HETATM   22  N4  LIG X 999      43.203 128.813  24.167  1.00  0.00    -0.336 N 
HETATM   23  C5  LIG X 999      42.201 129.806  23.768  1.00  0.00     0.154 C 
HETATM   24  C6  LIG X 999      44.530 129.228  24.624  1.00  0.00     0.154 C 
ENDBRANCH  19  20
ENDBRANCH  11  19
ENDBRANCH   1   4
TORSDOF 3
ENDMDL
MODEL 6
REMARK VINA RESULT:      -4.8      9.224      9.952
REMARK  3 active torsions:
REMARK  status: ('A' for Active; 'I' for Inactive)
REMARK    1  A    between atoms: C2_2  and  N1_3 
REMARK    2  A    between atoms: C3_6  and  O1_7 
REMARK    3  A    between atoms: O1_7  and  C4_8 
REMARK       I    between atoms: C4_8  and  N4_10 
ROOT
HETATM    1  N1  LIG X 999      49.524 122.422  20.734  1.00  0.00    -0.070 NA
HETATM    2  N2  LIG X 999      49.932 123.072  19.770  1.00  0.00    -0.162 NA
HETATM    3  N3  LIG X 999      50.347 123.716  18.808  1.00  0.00     0.068 N 
ENDROOT
BRANCH   1   4
HETATM    4  C2  LIG X 999      48.483 122.874  21.614  1.00  0.00     0.128 A 
HETATM    5  C1  LIG X 999      47.159 122.617  21.231  1.00  0.00     0.049 A 
HETATM    6  C13 LIG X 999      46.086 123.012  22.038  1.00  0.00    -0.023 A 
HETATM    7  C8  LIG X 999      46.339 123.694  23.258  1.00  0.00    -0.022 A 
HETATM    8  C12 LIG X 999      44.759 122.747  21.646  1.00  0.00     0.021 A 
HETATM    9  C7  LIG X 999      47.660 123.960  23.639  1.00  0.00     0.052 A 
HETATM   10  C9  LIG X 999      45.263 124.106  24.068  1.00  0.00     0.021 A 
HETATM   11  C3  LIG X 999      48.740 123.548  22.834  1.00  0.00     0.113 A 
HETATM   12  C10 LIG X 999      43.963 123.818  23.648  1.00  0.00    -0.024 A 
HETATM   13  C11 LIG X 999      43.720 123.162  22.480  1.00  0.00    -0.024 A 
HETATM   14  C17 LIG X 999      42.694 124.169  24.321  1.00  0.00     0.276 C 
HETATM   15  C14 LIG X 999      42.266 123.014  22.261  1.00  0.00     0.276 C 
HETATM   16  N5  LIG X 999      41.616 123.512  23.515  1.00  0.00    -0.067 N 
HETATM   17  C15 LIG X 999      40.539 124.477  23.198  1.00  0.00     0.272 C 
HETATM   18  C16 LIG X 999      41.037 122.377  24.273  1.00  0.00     0.272 C 
BRANCH  11  19
HETATM   19  O1  LIG X 999      50.060 123.849  23.205  1.00  0.00    -0.259 OA
BRANCH  19  20
HETATM   20  C4  LIG X 999      50.769 124.987  22.793  1.00  0.00     0.367 C 
HETATM   21  O2  LIG X 999      50.219 126.123  22.821  1.00  0.00    -0.238 OA
HETATM   22  N4  LIG X 999      52.142 124.864  22.382  1.00  0.00    -0.336 N 
HETATM   23  C5  LIG X 999      52.902 126.062  22.013  1.00  0.00     0.154 C 
HETATM   24  C6  LIG X 999      52.754 123.536  22.311  1.00  0.00     0.154 C 
ENDBRANCH  19  20
ENDBRANCH  11  19
ENDBRANCH   1   4
TORSDOF 3
ENDMDL
MODEL 7
REMARK VINA RESULT:      -4.0      5.879      9.320
REMARK  3 active torsions:
REMARK  status: ('A' for Active; 'I' for Inactive)
REMARK    1  A    between atoms: C2_2  and  N1_3 
REMARK    2  A    between atoms: C3_6  and  O1_7 
REMARK    3  A    between atoms: O1_7  and  C4_8 
REMARK       I    between atoms: C4_8  and  N4_10 
ROOT
HETATM    1  N1  LIG X 999      44.931 123.501  22.981  1.00  0.00    -0.070 NA
HETATM    2  N2  LIG X 999      45.700 122.983  23.792  1.00  0.00    -0.162 NA
HETATM    3  N3  LIG X 999      46.465 122.458  24.599  1.00  0.00     0.068 N 
ENDROOT
BRANCH   1   4
HETATM    4  C2  LIG X 999      44.549 124.885  23.018  1.00  0.00     0.128 A 
HETATM    5  C1  LIG X 999      45.288 125.778  22.231  1.00  0.00     0.049 A 
HETATM    6  C13 LIG X 999      44.975 127.142  22.201  1.00  0.00    -0.023 A 
HETATM    7  C8  LIG X 999      43.898 127.631  22.988  1.00  0.00    -0.022 A 
HETATM    8  C12 LIG X 999      45.721 128.032  21.405  1.00  0.00     0.021 A 
HETATM    9  C7  LIG X 999      43.163 126.742  23.782  1.00  0.00     0.052 A 
HETATM   10  C9  LIG X 999      43.585 129.005  22.971  1.00  0.00     0.021 A 
HETATM   11  C3  LIG X 999      43.470 125.368  23.799  1.00  0.00     0.113 A 
HETATM   12  C10 LIG X 999      44.344 129.853  22.164  1.00  0.00    -0.024 A 
HETATM   13  C11 LIG X 999      45.374 129.384  21.408  1.00  0.00    -0.024 A 
HETATM   14  C17 LIG X 999      44.210 131.317  22.008  1.00  0.00     0.276 C 
HETATM   15  C14 LIG X 999      46.027 130.490  20.676  1.00  0.00     0.276 C 
HETATM   16  N5  LIG X 999      45.180 131.698  20.933  1.00  0.00    -0.067 N 
HETATM   17  C15 LIG X 999      46.017 132.841  21.365  1.00  0.00     0.272 C 
HETATM   18  C16 LIG X 999      44.449 132.077  19.700  1.00  0.00     0.272 C 
BRANCH  11  19
HETATM   19  O1  LIG X 999      42.751 124.489  24.625  1.00  0.00    -0.259 OA
BRANCH  19  20
HETATM   20  C4  LIG X 999      41.773 123.588  24.178  1.00  0.00     0.367 C 
HETATM   21  O2  LIG X 999      42.104 122.434  23.787  1.00  0.00    -0.238 OA
HETATM   22  N4  LIG X 999      40.386 123.965  24.211  1.00  0.00    -0.336 N 
HETATM   23  C5  LIG X 999      39.359 123.001  23.805  1.00  0.00     0.154 C 
HETATM   24  C6  LIG X 999      40.019 125.320  24.625  1.00  0.00     0.154 C 
ENDBRANCH  19  20
ENDBRANCH  11  19
ENDBRANCH   1   4
TORSDOF 3
ENDMDL
MODEL 8
REMARK VINA RESULT:      -3.9      2.503      7.606
REMARK  3 active torsions:
REMARK  status: ('A' for Active; 'I' for Inactive)
REMARK    1  A    between atoms: C2_2  and  N1_3 
REMARK    2  A    between atoms: C3_6  and  O1_7 
REMARK    3  A    between atoms: O1_7  and  C4_8 
REMARK       I    between atoms: C4_8  and  N4_10 
ROOT
HETATM    1  N1  LIG X 999      41.292 132.382  19.374  1.00  0.00    -0.070 NA
HETATM    2  N2  LIG X 999      41.123 133.086  20.371  1.00  0.00    -0.162 NA
HETATM    3  N3  LIG X 999      40.946 133.792  21.363  1.00  0.00     0.068 N 
ENDROOT
BRANCH   1   4
HETATM    4  C2  LIG X 999      42.582 131.941  18.922  1.00  0.00     0.128 A 
HETATM    5  C1  LIG X 999      42.780 131.843  17.538  1.00  0.00     0.049 A 
HETATM    6  C13 LIG X 999      44.012 131.433  17.014  1.00  0.00    -0.023 A 
HETATM    7  C8  LIG X 999      45.074 131.101  17.896  1.00  0.00    -0.022 A 
HETATM    8  C12 LIG X 999      44.203 131.340  15.621  1.00  0.00     0.021 A 
HETATM    9  C7  LIG X 999      44.876 131.190  19.280  1.00  0.00     0.052 A 
HETATM   10  C9  LIG X 999      46.312 130.676  17.374  1.00  0.00     0.021 A 
HETATM   11  C3  LIG X 999      43.641 131.617  19.805  1.00  0.00     0.113 A 
HETATM   12  C10 LIG X 999      46.463 130.604  15.989  1.00  0.00    -0.024 A 
HETATM   13  C11 LIG X 999      45.446 130.925  15.143  1.00  0.00    -0.024 A 
HETATM   14  C17 LIG X 999      47.654 130.167  15.229  1.00  0.00     0.276 C 
HETATM   15  C14 LIG X 999      45.860 130.733  13.737  1.00  0.00     0.276 C 
HETATM   16  N5  LIG X 999      47.321 130.407  13.788  1.00  0.00    -0.067 N 
HETATM   17  C15 LIG X 999      47.617 129.204  12.976  1.00  0.00     0.272 C 
HETATM   18  C16 LIG X 999      48.114 131.545  13.266  1.00  0.00     0.272 C 
BRANCH  11  19
HETATM   19  O1  LIG X 999      43.439 131.669  21.193  1.00  0.00    -0.259 OA
BRANCH  19  20
HETATM   20  C4  LIG X 999      44.002 130.779  22.120  1.00  0.00     0.367 C 
HETATM   21  O2  LIG X 999      44.902 129.971  21.759  1.00  0.00    -0.238 OA
HETATM   22  N4  LIG X 999      43.584 130.820  23.496  1.00  0.00    -0.336 N 
HETATM   23  C5  LIG X 999      44.219 129.934  24.476  1.00  0.00     0.154 C 
HETATM   24  C6  LIG X 999      42.509 131.731  23.893  1.00  0.00     0.154 C 
ENDBRANCH  19  20
ENDBRANCH  11  19
ENDBRANCH   1   4
TORSDOF 3
ENDMDL
MODEL 9
REMARK VINA RESULT:      -3.8      8.997      9.571
REMARK  3 active torsions:
REMARK  status: ('A' for Active; 'I' for Inactive)
REMARK    1  A    between atoms: C2_2  and  N1_3 
REMARK    2  A    between atoms: C3_6  and  O1_7 
REMARK    3  A    between atoms: O1_7  and  C4_8 
REMARK       I    between atoms: C4_8  and  N4_10 
ROOT
HETATM    1  N1  LIG X 999      47.094 122.470  21.148  1.00  0.00    -0.070 NA
HETATM    2  N2  LIG X 999      47.765 123.075  20.311  1.00  0.00    -0.162 NA
HETATM    3  N3  LIG X 999      48.441 123.672  19.475  1.00  0.00     0.068 N 
ENDROOT
BRANCH   1   4
HETATM    4  C2  LIG X 999      46.132 123.105  22.006  1.00  0.00     0.128 A 
HETATM    5  C1  LIG X 999      44.786 123.044  21.620  1.00  0.00     0.049 A 
HETATM    6  C13 LIG X 999      43.785 123.626  22.405  1.00  0.00    -0.023 A 
HETATM    7  C8  LIG X 999      44.137 124.298  23.606  1.00  0.00    -0.022 A 
HETATM    8  C12 LIG X 999      42.434 123.557  22.011  1.00  0.00     0.021 A 
HETATM    9  C7  LIG X 999      45.482 124.368  23.990  1.00  0.00     0.052 A 
HETATM   10  C9  LIG X 999      43.134 124.897  24.394  1.00  0.00     0.021 A 
HETATM   11  C3  LIG X 999      46.487 123.768  23.206  1.00  0.00     0.113 A 
HETATM   12  C10 LIG X 999      41.807 124.801  23.973  1.00  0.00    -0.024 A 
HETATM   13  C11 LIG X 999      41.469 124.154  22.823  1.00  0.00    -0.024 A 
HETATM   14  C17 LIG X 999      40.606 125.366  24.624  1.00  0.00     0.276 C 
HETATM   15  C14 LIG X 999      40.010 124.226  22.597  1.00  0.00     0.276 C 
HETATM   16  N5  LIG X 999      39.442 124.858  23.830  1.00  0.00    -0.067 N 
HETATM   17  C15 LIG X 999      38.528 125.968  23.475  1.00  0.00     0.272 C 
HETATM   18  C16 LIG X 999      38.691 123.851  24.617  1.00  0.00     0.272 C 
BRANCH  11  19
HETATM   19  O1  LIG X 999      47.836 123.873  23.579  1.00  0.00    -0.259 OA
BRANCH  19  20
HETATM   20  C4  LIG X 999      48.506 125.079  23.838  1.00  0.00     0.367 C 
HETATM   21  O2  LIG X 999      47.867 126.081  24.261  1.00  0.00    -0.238 OA
HETATM   22  N4  LIG X 999      49.931 125.156  23.665  1.00  0.00    -0.336 N 
HETATM   23  C5  LIG X 999      50.639 126.396  23.998  1.00  0.00     0.154 C 
HETATM   24  C6  LIG X 999      50.654 124.000  23.132  1.00  0.00     0.154 C 
ENDBRANCH  19  20
ENDBRANCH  11  19
ENDBRANCH   1   4
TORSDOF 3
ENDMDL
