REMARK VINA RESULT:      -7.3      1.417      5.942
REMARK  1 active torsions:
REMARK  status: ('A' for Active; 'I' for Inactive)
REMARK    1  A    between atoms: C3_3  and  N1_4 
ROOT
HETATM    1  N1  LIG X 999      44.872 131.383  21.434  1.00  0.00    -0.072 NA
HETATM    2  N2  LIG X 999      44.736 130.481  22.262  1.00  0.00    -0.162 NA
HETATM    3  N3  LIG X 999      44.604 129.579  23.088  1.00  0.00     0.068 N 
ENDROOT
BRANCH   1   4
HETATM    4  C3  LIG X 999      43.868 131.677  20.453  1.00  0.00     0.104 A 
HETATM    5  C2  LIG X 999      42.627 132.133  20.917  1.00  0.00     0.035 A 
HETATM    6  C1  LIG X 999      41.622 132.513  20.028  1.00  0.00     0.003 A 
HETATM    7  C10 LIG X 999      41.833 132.433  18.653  1.00  0.00     0.012 A 
HETATM    8  C9  LIG X 999      43.046 131.941  18.152  1.00  0.00    -0.023 A 
HETATM    9  C4  LIG X 999      44.079 131.534  19.054  1.00  0.00     0.006 A 
HETATM   10  C8  LIG X 999      43.233 131.826  16.761  1.00  0.00     0.021 A 
HETATM   11  C5  LIG X 999      45.256 130.956  18.521  1.00  0.00     0.024 A 
HETATM   12  C6  LIG X 999      45.401 130.865  17.136  1.00  0.00    -0.023 A 
HETATM   13  C7  LIG X 999      44.430 131.293  16.288  1.00  0.00    -0.024 A 
HETATM   14  C14 LIG X 999      46.529 130.280  16.380  1.00  0.00     0.276 C 
HETATM   15  C11 LIG X 999      44.816 131.038  14.883  1.00  0.00     0.276 C 
HETATM   16  N4  LIG X 999      46.231 130.550  14.937  1.00  0.00    -0.067 N 
HETATM   17  C12 LIG X 999      47.148 131.592  14.417  1.00  0.00     0.272 C 
HETATM   18  C13 LIG X 999      46.392 129.320  14.131  1.00  0.00     0.272 C 
ENDBRANCH   1   4
TORSDOF 1
