REMARK VINA RESULT:      -6.6      5.059      7.725
REMARK  6 active torsions:
REMARK  status: ('A' for Active; 'I' for Inactive)
REMARK    1  A    between atoms: O1_2  and  C1_3 
REMARK    2  A    between atoms: C1_3  and  C2_4 
REMARK    3  A    between atoms: C1_3  and  C13_20 
REMARK    4  A    between atoms: C2_4  and  O3_6 
REMARK    5  A    between atoms: O3_6  and  C3_7 
REMARK    6  A    between atoms: C8_12  and  N1_13 
ROOT
HETATM    1  N1  LIG X 999      44.834 130.815  15.043  1.00  0.00    -0.073 NA
HETATM    2  N2  LIG X 999      45.914 131.116  14.530  1.00  0.00    -0.162 NA
HETATM    3  N3  LIG X 999      46.990 131.417  14.017  1.00  0.00     0.068 N 
ENDROOT
BRANCH   1   4
HETATM    4  C8  LIG X 999      44.552 131.051  16.429  1.00  0.00     0.094 A 
HETATM    5  C7  LIG X 999      45.463 130.696  17.442  1.00  0.00     0.046 A 
HETATM    6  C6  LIG X 999      45.154 130.942  18.790  1.00  0.00    -0.024 A 
HETATM    7  C5  LIG X 999      46.057 130.596  19.804  1.00  0.00     0.015 A 
HETATM    8  C11 LIG X 999      43.922 131.549  19.128  1.00  0.00    -0.023 A 
HETATM    9  C4  LIG X 999      45.741 130.844  21.144  1.00  0.00     0.038 A 
HETATM   10  C3  LIG X 999      44.510 131.431  21.488  1.00  0.00     0.080 A 
HETATM   11  C12 LIG X 999      43.615 131.794  20.475  1.00  0.00     0.049 A 
HETATM   12  C10 LIG X 999      43.021 131.901  18.114  1.00  0.00     0.014 A 
HETATM   13  C9  LIG X 999      43.337 131.653  16.775  1.00  0.00     0.035 A 
BRANCH  10  14
HETATM   14  O3  LIG X 999      44.158 131.705  22.817  1.00  0.00    -0.277 OA
BRANCH  14  15
HETATM   15  C2  LIG X 999      43.841 130.744  23.788  1.00  0.00     0.293 C 
HETATM   16  O2  LIG X 999      44.744 130.063  24.346  1.00  0.00    -0.262 OA
BRANCH  15  17
HETATM   17  C1  LIG X 999      42.399 130.462  24.101  1.00  0.00     0.217 C 
BRANCH  17  18
HETATM   18  O1  LIG X 999      41.608 131.533  23.659  1.00  0.00    -0.386 OA
HETATM   19  H1  LIG X 999      41.545 131.455  22.670  1.00  0.00     0.210 HD
ENDBRANCH  17  18
BRANCH  17  20
HETATM   20  C13 LIG X 999      41.927 129.175  23.407  1.00  0.00     0.037 C 
HETATM   21  C14 LIG X 999      41.006 128.336  24.295  1.00  0.00     0.008 C 
ENDBRANCH  17  20
ENDBRANCH  15  17
ENDBRANCH  14  15
ENDBRANCH  10  14
ENDBRANCH   1   4
TORSDOF 6
