MODEL 1
REMARK VINA RESULT:      -7.5      0.000      0.000
REMARK  1 active torsions:
REMARK  status: ('A' for Active; 'I' for Inactive)
REMARK    1  A    between atoms: N1_2  and  C1_3 
ROOT
HETATM    1  C1  LIG X 999      43.229 131.758  22.808  1.00  0.00     0.120 C 
HETATM    2  C2  LIG X 999      44.357 130.998  22.497  1.00  0.00     0.057 C 
HETATM    3  C3  LIG X 999      44.684 130.725  21.162  1.00  0.00    -0.045 C 
HETATM    4  C4  LIG X 999      45.723 129.653  20.939  1.00  0.00     0.049 C 
HETATM    5  C5  LIG X 999      43.934 131.352  20.115  1.00  0.00     0.008 C 
HETATM    6  C6  LIG X 999      44.286 131.340  18.724  1.00  0.00    -0.013 C 
HETATM    7  C7  LIG X 999      45.591 131.062  18.252  1.00  0.00     0.013 C 
HETATM    8  C8  LIG X 999      45.867 131.006  16.884  1.00  0.00     0.001 C 
HETATM    9  C9  LIG X 999      44.868 131.273  15.953  1.00  0.00     0.001 C 
HETATM   10  C10 LIG X 999      43.601 131.654  16.386  1.00  0.00     0.012 C 
HETATM   11  C11 LIG X 999      43.313 131.730  17.759  1.00  0.00    -0.025 C 
HETATM   12  C12 LIG X 999      42.082 132.245  18.170  1.00  0.00     0.014 C 
HETATM   13  C13 LIG X 999      41.816 132.433  19.519  1.00  0.00     0.031 C 
HETATM   14  C14 LIG X 999      42.726 132.006  20.494  1.00  0.00     0.045 C 
HETATM   15  N2  LIG X 999      42.425 132.207  21.810  1.00  0.00    -0.341 N 
HETATM   16  H12 LIG X 999      41.551 132.724  22.067  1.00  0.00     0.167 HD
ENDROOT
BRANCH   1  17
HETATM   17  N1  LIG X 999      42.917 132.002  24.043  1.00  0.00    -0.284 NA
HETATM   18  H1  LIG X 999      41.933 131.963  24.393  1.00  0.00     0.188 HD
ENDBRANCH   1  17
TORSDOF 1
ENDMDL
MODEL 2
REMARK VINA RESULT:      -7.3      2.148      4.793
REMARK  1 active torsions:
REMARK  status: ('A' for Active; 'I' for Inactive)
REMARK    1  A    between atoms: N1_2  and  C1_3 
ROOT
HETATM    1  C1  LIG X 999      44.173 131.481  17.090  1.00  0.00     0.120 C 
HETATM    2  C2  LIG X 999      45.226 130.996  17.866  1.00  0.00     0.057 C 
HETATM    3  C3  LIG X 999      45.160 131.047  19.265  1.00  0.00    -0.045 C 
HETATM    4  C4  LIG X 999      46.454 130.794  20.000  1.00  0.00     0.049 C 
HETATM    5  C5  LIG X 999      43.944 131.467  19.893  1.00  0.00     0.008 C 
HETATM    6  C6  LIG X 999      43.659 131.363  21.296  1.00  0.00    -0.013 C 
HETATM    7  C7  LIG X 999      44.352 130.491  22.171  1.00  0.00     0.013 C 
HETATM    8  C8  LIG X 999      44.075 130.470  23.539  1.00  0.00     0.001 C 
HETATM    9  C9  LIG X 999      43.071 131.277  24.065  1.00  0.00     0.001 C 
HETATM   10  C10 LIG X 999      42.299 132.066  23.217  1.00  0.00     0.012 C 
HETATM   11  C11 LIG X 999      42.557 132.086  21.836  1.00  0.00    -0.025 C 
HETATM   12  C12 LIG X 999      41.687 132.775  20.990  1.00  0.00     0.014 C 
HETATM   13  C13 LIG X 999      41.855 132.718  19.614  1.00  0.00     0.031 C 
HETATM   14  C14 LIG X 999      42.961 132.067  19.054  1.00  0.00     0.045 C 
HETATM   15  N2  LIG X 999      43.092 132.036  17.696  1.00  0.00    -0.341 N 
HETATM   16  H12 LIG X 999      42.340 132.448  17.095  1.00  0.00     0.167 HD
ENDROOT
BRANCH   1  17
HETATM   17  N1  LIG X 999      44.236 131.447  15.795  1.00  0.00    -0.284 NA
HETATM   18  H1  LIG X 999      43.466 131.804  15.184  1.00  0.00     0.188 HD
ENDBRANCH   1  17
TORSDOF 1
ENDMDL
MODEL 3
REMARK VINA RESULT:      -7.1      0.951      2.754
REMARK  1 active torsions:
REMARK  status: ('A' for Active; 'I' for Inactive)
REMARK    1  A    between atoms: N1_2  and  C1_3 
ROOT
HETATM    1  C1  LIG X 999      43.318 131.223  23.112  1.00  0.00     0.120 C 
HETATM    2  C2  LIG X 999      42.399 131.954  22.359  1.00  0.00     0.057 C 
HETATM    3  C3  LIG X 999      42.623 132.184  20.994  1.00  0.00    -0.045 C 
HETATM    4  C4  LIG X 999      41.749 133.231  20.346  1.00  0.00     0.049 C 
HETATM    5  C5  LIG X 999      43.727 131.541  20.348  1.00  0.00     0.008 C 
HETATM    6  C6  LIG X 999      43.951 131.509  18.931  1.00  0.00    -0.013 C 
HETATM    7  C7  LIG X 999      42.935 131.751  17.974  1.00  0.00     0.013 C 
HETATM    8  C8  LIG X 999      43.219 131.764  16.607  1.00  0.00     0.001 C 
HETATM    9  C9  LIG X 999      44.505 131.488  16.153  1.00  0.00     0.001 C 
HETATM   10  C10 LIG X 999      45.502 131.141  17.062  1.00  0.00     0.012 C 
HETATM   11  C11 LIG X 999      45.227 131.109  18.439  1.00  0.00    -0.025 C 
HETATM   12  C12 LIG X 999      46.199 130.628  19.317  1.00  0.00     0.014 C 
HETATM   13  C13 LIG X 999      45.914 130.482  20.667  1.00  0.00     0.031 C 
HETATM   14  C14 LIG X 999      44.692 130.919  21.192  1.00  0.00     0.045 C 
HETATM   15  N2  LIG X 999      44.452 130.761  22.526  1.00  0.00    -0.341 N 
HETATM   16  H12 LIG X 999      45.156 130.267  23.123  1.00  0.00     0.167 HD
ENDROOT
BRANCH   1  17
HETATM   17  N1  LIG X 999      43.120 131.019  24.378  1.00  0.00    -0.284 NA
HETATM   18  H1  LIG X 999      43.702 131.472  25.119  1.00  0.00     0.188 HD
ENDBRANCH   1  17
TORSDOF 1
ENDMDL
MODEL 4
REMARK VINA RESULT:      -6.3      2.358      5.456
REMARK  1 active torsions:
REMARK  status: ('A' for Active; 'I' for Inactive)
REMARK    1  A    between atoms: N1_2  and  C1_3 
ROOT
HETATM    1  C1  LIG X 999      44.947 131.531  16.531  1.00  0.00     0.120 C 
HETATM    2  C2  LIG X 999      43.631 131.901  16.810  1.00  0.00     0.057 C 
HETATM    3  C3  LIG X 999      43.120 131.784  18.110  1.00  0.00    -0.045 C 
HETATM    4  C4  LIG X 999      41.621 131.908  18.248  1.00  0.00     0.049 C 
HETATM    5  C5  LIG X 999      44.001 131.420  19.178  1.00  0.00     0.008 C 
HETATM    6  C6  LIG X 999      43.674 131.473  20.574  1.00  0.00    -0.013 C 
HETATM    7  C7  LIG X 999      42.612 132.248  21.099  1.00  0.00     0.013 C 
HETATM    8  C8  LIG X 999      42.300 132.219  22.459  1.00  0.00     0.001 C 
HETATM    9  C9  LIG X 999      43.064 131.460  23.340  1.00  0.00     0.001 C 
HETATM   10  C10 LIG X 999      44.180 130.771  22.874  1.00  0.00     0.012 C 
HETATM   11  C11 LIG X 999      44.515 130.803  21.510  1.00  0.00    -0.025 C 
HETATM   12  C12 LIG X 999      45.711 130.220  21.087  1.00  0.00     0.014 C 
HETATM   13  C13 LIG X 999      46.119 130.335  19.766  1.00  0.00     0.031 C 
HETATM   14  C14 LIG X 999      45.290 130.934  18.810  1.00  0.00     0.045 C 
HETATM   15  N2  LIG X 999      45.726 131.024  17.521  1.00  0.00    -0.341 N 
HETATM   16  H12 LIG X 999      46.691 130.697  17.278  1.00  0.00     0.167 HD
ENDROOT
BRANCH   1  17
HETATM   17  N1  LIG X 999      45.419 131.626  15.327  1.00  0.00    -0.284 NA
HETATM   18  H1  LIG X 999      45.302 130.870  14.615  1.00  0.00     0.188 HD
ENDBRANCH   1  17
TORSDOF 1
ENDMDL
MODEL 5
REMARK VINA RESULT:      -6.1      2.678      5.442
REMARK  1 active torsions:
REMARK  status: ('A' for Active; 'I' for Inactive)
REMARK    1  A    between atoms: N1_2  and  C1_3 
ROOT
HETATM    1  C1  LIG X 999      46.212 130.781  16.315  1.00  0.00     0.120 C 
HETATM    2  C2  LIG X 999      44.989 131.402  16.063  1.00  0.00     0.057 C 
HETATM    3  C3  LIG X 999      44.074 131.619  17.103  1.00  0.00    -0.045 C 
HETATM    4  C4  LIG X 999      42.675 132.005  16.686  1.00  0.00     0.049 C 
HETATM    5  C5  LIG X 999      44.464 131.330  18.450  1.00  0.00     0.008 C 
HETATM    6  C6  LIG X 999      43.725 131.699  19.623  1.00  0.00    -0.013 C 
HETATM    7  C7  LIG X 999      42.744 132.720  19.637  1.00  0.00     0.013 C 
HETATM    8  C8  LIG X 999      42.012 133.002  20.792  1.00  0.00     0.001 C 
HETATM    9  C9  LIG X 999      42.269 132.313  21.973  1.00  0.00     0.001 C 
HETATM   10  C10 LIG X 999      43.299 131.378  22.021  1.00  0.00     0.012 C 
HETATM   11  C11 LIG X 999      44.055 131.095  20.870  1.00  0.00    -0.025 C 
HETATM   12  C12 LIG X 999      45.168 130.259  20.973  1.00  0.00     0.014 C 
HETATM   13  C13 LIG X 999      45.993 130.052  19.878  1.00  0.00     0.031 C 
HETATM   14  C14 LIG X 999      45.666 130.583  18.624  1.00  0.00     0.045 C 
HETATM   15  N2  LIG X 999      46.503 130.354  17.571  1.00  0.00    -0.341 N 
HETATM   16  H12 LIG X 999      47.400 129.837  17.727  1.00  0.00     0.167 HD
ENDROOT
BRANCH   1  17
HETATM   17  N1  LIG X 999      47.055 130.567  15.353  1.00  0.00    -0.284 NA
HETATM   18  H1  LIG X 999      46.767 130.532  14.349  1.00  0.00     0.188 HD
ENDBRANCH   1  17
TORSDOF 1
ENDMDL
MODEL 6
REMARK VINA RESULT:      -5.2      7.097      8.866
REMARK  1 active torsions:
REMARK  status: ('A' for Active; 'I' for Inactive)
REMARK    1  A    between atoms: N1_2  and  C1_3 
ROOT
HETATM    1  C1  LIG X 999      44.198 126.919  23.111  1.00  0.00     0.120 C 
HETATM    2  C2  LIG X 999      43.069 127.477  23.711  1.00  0.00     0.057 C 
HETATM    3  C3  LIG X 999      41.867 126.759  23.768  1.00  0.00    -0.045 C 
HETATM    4  C4  LIG X 999      40.638 127.551  24.147  1.00  0.00     0.049 C 
HETATM    5  C5  LIG X 999      41.846 125.394  23.336  1.00  0.00     0.008 C 
HETATM    6  C6  LIG X 999      40.757 124.480  23.536  1.00  0.00    -0.013 C 
HETATM    7  C7  LIG X 999      39.747 124.671  24.510  1.00  0.00     0.013 C 
HETATM    8  C8  LIG X 999      38.678 123.780  24.625  1.00  0.00     0.001 C 
HETATM    9  C9  LIG X 999      38.611 122.653  23.811  1.00  0.00     0.001 C 
HETATM   10  C10 LIG X 999      39.642 122.381  22.917  1.00  0.00     0.012 C 
HETATM   11  C11 LIG X 999      40.732 123.260  22.802  1.00  0.00    -0.025 C 
HETATM   12  C12 LIG X 999      41.818 122.899  22.002  1.00  0.00     0.014 C 
HETATM   13  C13 LIG X 999      42.953 123.696  21.958  1.00  0.00     0.031 C 
HETATM   14  C14 LIG X 999      42.987 124.929  22.621  1.00  0.00     0.045 C 
HETATM   15  N2  LIG X 999      44.121 125.685  22.550  1.00  0.00    -0.341 N 
HETATM   16  H12 LIG X 999      44.962 125.309  22.052  1.00  0.00     0.167 HD
ENDROOT
BRANCH   1  17
HETATM   17  N1  LIG X 999      45.309 127.586  23.045  1.00  0.00    -0.284 NA
HETATM   18  H1  LIG X 999      45.344 128.629  23.097  1.00  0.00     0.188 HD
ENDBRANCH   1  17
TORSDOF 1
ENDMDL
MODEL 7
REMARK VINA RESULT:      -5.2      6.957      8.552
REMARK  1 active torsions:
REMARK  status: ('A' for Active; 'I' for Inactive)
REMARK    1  A    between atoms: N1_2  and  C1_3 
ROOT
HETATM    1  C1  LIG X 999      42.233 128.555  23.514  1.00  0.00     0.120 C 
HETATM    2  C2  LIG X 999      43.033 127.422  23.662  1.00  0.00     0.057 C 
HETATM    3  C3  LIG X 999      42.457 126.178  23.958  1.00  0.00    -0.045 C 
HETATM    4  C4  LIG X 999      43.409 125.094  24.402  1.00  0.00     0.049 C 
HETATM    5  C5  LIG X 999      41.030 126.052  23.964  1.00  0.00     0.008 C 
HETATM    6  C6  LIG X 999      40.310 124.813  24.033  1.00  0.00    -0.013 C 
HETATM    7  C7  LIG X 999      40.882 123.558  23.709  1.00  0.00     0.013 C 
HETATM    8  C8  LIG X 999      40.154 122.375  23.850  1.00  0.00     0.001 C 
HETATM    9  C9  LIG X 999      38.827 122.411  24.266  1.00  0.00     0.001 C 
HETATM   10  C10 LIG X 999      38.203 123.635  24.490  1.00  0.00     0.012 C 
HETATM   11  C11 LIG X 999      38.919 124.835  24.338  1.00  0.00    -0.025 C 
HETATM   12  C12 LIG X 999      38.240 126.051  24.434  1.00  0.00     0.014 C 
HETATM   13  C13 LIG X 999      38.899 127.244  24.179  1.00  0.00     0.031 C 
HETATM   14  C14 LIG X 999      40.278 127.262  23.934  1.00  0.00     0.045 C 
HETATM   15  N2  LIG X 999      40.890 128.457  23.691  1.00  0.00    -0.341 N 
HETATM   16  H12 LIG X 999      40.315 129.330  23.635  1.00  0.00     0.167 HD
ENDROOT
BRANCH   1  17
HETATM   17  N1  LIG X 999      42.764 129.709  23.253  1.00  0.00    -0.284 NA
HETATM   18  H1  LIG X 999      42.191 130.561  23.058  1.00  0.00     0.188 HD
ENDBRANCH   1  17
TORSDOF 1
ENDMDL
MODEL 8
REMARK VINA RESULT:      -5.0      6.785      8.581
REMARK  1 active torsions:
REMARK  status: ('A' for Active; 'I' for Inactive)
REMARK    1  A    between atoms: N1_2  and  C1_3 
ROOT
HETATM    1  C1  LIG X 999      40.230 123.122  22.634  1.00  0.00     0.120 C 
HETATM    2  C2  LIG X 999      40.303 124.388  23.216  1.00  0.00     0.057 C 
HETATM    3  C3  LIG X 999      41.539 125.033  23.360  1.00  0.00    -0.045 C 
HETATM    4  C4  LIG X 999      41.555 126.240  24.268  1.00  0.00     0.049 C 
HETATM    5  C5  LIG X 999      42.707 124.447  22.776  1.00  0.00     0.008 C 
HETATM    6  C6  LIG X 999      43.984 125.091  22.655  1.00  0.00    -0.013 C 
HETATM    7  C7  LIG X 999      44.160 126.494  22.727  1.00  0.00     0.013 C 
HETATM    8  C8  LIG X 999      45.432 127.066  22.661  1.00  0.00     0.001 C 
HETATM    9  C9  LIG X 999      46.554 126.266  22.473  1.00  0.00     0.001 C 
HETATM   10  C10 LIG X 999      46.405 124.894  22.292  1.00  0.00     0.012 C 
HETATM   11  C11 LIG X 999      45.130 124.306  22.340  1.00  0.00    -0.025 C 
HETATM   12  C12 LIG X 999      44.990 122.954  22.021  1.00  0.00     0.014 C 
HETATM   13  C13 LIG X 999      43.730 122.377  21.953  1.00  0.00     0.031 C 
HETATM   14  C14 LIG X 999      42.589 123.104  22.314  1.00  0.00     0.045 C 
HETATM   15  N2  LIG X 999      41.369 122.498  22.236  1.00  0.00    -0.341 N 
HETATM   16  H12 LIG X 999      41.298 121.524  21.858  1.00  0.00     0.167 HD
ENDROOT
BRANCH   1  17
HETATM   17  N1  LIG X 999      39.090 122.516  22.510  1.00  0.00    -0.284 NA
HETATM   18  H1  LIG X 999      38.977 121.489  22.668  1.00  0.00     0.188 HD
ENDBRANCH   1  17
TORSDOF 1
ENDMDL
MODEL 9
REMARK VINA RESULT:      -4.8      6.317      7.834
REMARK  1 active torsions:
REMARK  status: ('A' for Active; 'I' for Inactive)
REMARK    1  A    between atoms: N1_2  and  C1_3 
ROOT
HETATM    1  C1  LIG X 999      40.767 125.061  23.103  1.00  0.00     0.120 C 
HETATM    2  C2  LIG X 999      41.194 123.926  22.415  1.00  0.00     0.057 C 
HETATM    3  C3  LIG X 999      42.536 123.786  22.037  1.00  0.00    -0.045 C 
HETATM    4  C4  LIG X 999      42.836 122.693  21.040  1.00  0.00     0.049 C 
HETATM    5  C5  LIG X 999      43.494 124.749  22.491  1.00  0.00     0.008 C 
HETATM    6  C6  LIG X 999      44.918 124.620  22.369  1.00  0.00    -0.013 C 
HETATM    7  C7  LIG X 999      45.574 123.383  22.156  1.00  0.00     0.013 C 
HETATM    8  C8  LIG X 999      46.959 123.320  21.987  1.00  0.00     0.001 C 
HETATM    9  C9  LIG X 999      47.732 124.474  22.074  1.00  0.00     0.001 C 
HETATM   10  C10 LIG X 999      47.130 125.690  22.389  1.00  0.00     0.012 C 
HETATM   11  C11 LIG X 999      45.739 125.766  22.576  1.00  0.00    -0.025 C 
HETATM   12  C12 LIG X 999      45.176 126.962  23.024  1.00  0.00     0.014 C 
HETATM   13  C13 LIG X 999      43.823 127.031  23.323  1.00  0.00     0.031 C 
HETATM   14  C14 LIG X 999      42.978 125.942  23.075  1.00  0.00     0.045 C 
HETATM   15  N2  LIG X 999      41.653 126.052  23.380  1.00  0.00    -0.341 N 
HETATM   16  H12 LIG X 999      41.300 126.922  23.845  1.00  0.00     0.167 HD
ENDROOT
BRANCH   1  17
HETATM   17  N1  LIG X 999      39.523 125.199  23.443  1.00  0.00    -0.284 NA
HETATM   18  H1  LIG X 999      38.734 124.991  22.789  1.00  0.00     0.188 HD
ENDBRANCH   1  17
TORSDOF 1
ENDMDL
