REMARK VINA RESULT:      -7.1      1.801      7.413
REMARK  5 active torsions:
REMARK  status: ('A' for Active; 'I' for Inactive)
REMARK    1  A    between atoms: C6_6  and  C7_7 
REMARK       I    between atoms: C7_7  and  N1_9 
REMARK    2  A    between atoms: N1_9  and  C8_11 
REMARK    3  A    between atoms: C8_11  and  C9_12 
REMARK    4  A    between atoms: C9_12  and  N2_13 
REMARK    5  A    between atoms: C13_19  and  N5_20 
ROOT
HETATM    1  N2  LIG X 999      43.705 130.013  24.004  1.00  0.00    -0.114 NA
HETATM    2  N3  LIG X 999      44.296 129.144  23.364  1.00  0.00    -0.168 NA
HETATM    3  N4  LIG X 999      44.887 128.275  22.725  1.00  0.00     0.068 N 
ENDROOT
BRANCH   1   4
HETATM    4  C9  LIG X 999      42.418 130.521  23.550  1.00  0.00     0.208 C 
BRANCH   4   5
HETATM    5  C8  LIG X 999      42.611 131.829  22.782  1.00  0.00     0.147 C 
BRANCH   5   6
HETATM    6  N1  LIG X 999      42.962 131.568  21.386  1.00  0.00    -0.355 N 
HETATM    7  C7  LIG X 999      44.311 131.669  20.898  1.00  0.00     0.251 C 
HETATM    8  O1  LIG X 999      45.223 132.081  21.667  1.00  0.00    -0.268 OA
HETATM    9  H4  LIG X 999      42.188 131.316  20.733  1.00  0.00     0.162 HD
BRANCH   7  10
HETATM   10  C6  LIG X 999      44.651 131.312  19.500  1.00  0.00     0.032 A 
HETATM   11  C1  LIG X 999      45.777 130.519  19.234  1.00  0.00     0.017 A 
HETATM   12  C2  LIG X 999      46.106 130.168  17.924  1.00  0.00     0.011 A 
HETATM   13  C3  LIG X 999      45.310 130.589  16.848  1.00  0.00    -0.024 A 
HETATM   14  C4  LIG X 999      44.175 131.396  17.102  1.00  0.00    -0.049 A 
HETATM   15  C13 LIG X 999      45.743 130.245  15.440  1.00  0.00     0.179 C 
HETATM   16  C5  LIG X 999      43.846 131.733  18.426  1.00  0.00     0.024 A 
HETATM   17  C10 LIG X 999      43.232 131.807  15.995  1.00  0.00     0.039 C 
HETATM   18  C11 LIG X 999      43.871 131.721  14.606  1.00  0.00     0.007 C 
HETATM   19  C12 LIG X 999      44.587 130.381  14.433  1.00  0.00     0.035 C 
BRANCH  15  20
HETATM   20  N5  LIG X 999      46.858 131.114  15.066  1.00  0.00    -0.105 NA
HETATM   21  N6  LIG X 999      47.316 131.106  13.924  1.00  0.00    -0.167 NA
HETATM   22  N7  LIG X 999      47.776 131.099  12.783  1.00  0.00     0.068 N 
ENDBRANCH  15  20
ENDBRANCH   7  10
ENDBRANCH   5   6
ENDBRANCH   4   5
ENDBRANCH   1   4
TORSDOF 5
