REMARK VINA RESULT:      -6.5      0.918      2.657
REMARK  1 active torsions:
REMARK  status: ('A' for Active; 'I' for Inactive)
REMARK    1  A    between atoms: C10_11  and  N2_12 
ROOT
HETATM    1  N2  LIG X 999      44.469 130.963  15.070  1.00  0.00    -0.214 NA
HETATM    2  C11 LIG X 999      45.617 130.991  14.521  1.00  0.00     0.165 C 
HETATM    3  S1  LIG X 999      47.070 131.027  13.825  1.00  0.00    -0.055 SA
ENDROOT
BRANCH   1   4
HETATM    4  C10 LIG X 999      44.241 131.208  16.466  1.00  0.00     0.152 C 
HETATM    5  N1  LIG X 999      45.257 130.994  17.335  1.00  0.00    -0.229 NA
HETATM    6  C9  LIG X 999      45.126 131.173  18.675  1.00  0.00     0.070 C 
HETATM    7  C8  LIG X 999      46.250 130.989  19.480  1.00  0.00     0.033 C 
HETATM    8  C15 LIG X 999      43.878 131.560  19.239  1.00  0.00     0.010 C 
HETATM    9  C7  LIG X 999      46.170 131.166  20.854  1.00  0.00     0.014 C 
HETATM   10  C5  LIG X 999      44.937 131.423  21.462  1.00  0.00    -0.025 C 
HETATM   11  C4  LIG X 999      43.760 131.557  20.669  1.00  0.00    -0.013 C 
HETATM   12  C6  LIG X 999      44.865 131.491  22.862  1.00  0.00     0.012 C 
HETATM   13  C3  LIG X 999      42.519 131.572  21.351  1.00  0.00     0.013 C 
HETATM   14  C2  LIG X 999      42.463 131.625  22.746  1.00  0.00     0.001 C 
HETATM   15  C1  LIG X 999      43.633 131.613  23.498  1.00  0.00     0.001 C 
HETATM   16  C13 LIG X 999      42.854 131.961  18.320  1.00  0.00    -0.045 C 
HETATM   17  C12 LIG X 999      43.026 131.713  16.949  1.00  0.00     0.060 C 
HETATM   18  C14 LIG X 999      41.645 132.779  18.699  1.00  0.00     0.049 C 
ENDBRANCH   1   4
TORSDOF 1
