REMARK VINA RESULT:      -8.1      0.000      0.000
REMARK  1 active torsions:
REMARK  status: ('A' for Active; 'I' for Inactive)
REMARK    1  A    between atoms: C2_2  and  N1_3 
ROOT
HETATM    1  N1  LIG X 999      46.492 130.915  13.565  1.00  0.00    -0.073 NA
HETATM    2  N2  LIG X 999      47.491 130.195  13.538  1.00  0.00    -0.162 NA
HETATM    3  N3  LIG X 999      48.491 129.478  13.510  1.00  0.00     0.068 N 
ENDROOT
BRANCH   1   4
HETATM    4  C2  LIG X 999      45.711 131.099  14.754  1.00  0.00     0.094 A 
HETATM    5  C1  LIG X 999      44.420 131.629  14.635  1.00  0.00     0.035 A 
HETATM    6  C10 LIG X 999      43.623 131.826  15.766  1.00  0.00     0.014 A 
HETATM    7  C9  LIG X 999      44.109 131.496  17.038  1.00  0.00    -0.025 A 
HETATM    8  C4  LIG X 999      45.421 130.958  17.170  1.00  0.00    -0.023 A 
HETATM    9  C8  LIG X 999      43.312 131.690  18.183  1.00  0.00     0.021 A 
HETATM   10  C3  LIG X 999      46.210 130.763  16.027  1.00  0.00     0.046 A 
HETATM   11  C5  LIG X 999      45.913 130.622  18.447  1.00  0.00     0.021 A 
HETATM   12  C6  LIG X 999      45.095 130.835  19.557  1.00  0.00    -0.024 A 
HETATM   13  C7  LIG X 999      43.840 131.350  19.430  1.00  0.00    -0.024 A 
HETATM   14  C14 LIG X 999      45.392 130.539  20.975  1.00  0.00     0.276 C 
HETATM   15  C11 LIG X 999      43.181 131.446  20.750  1.00  0.00     0.276 C 
HETATM   16  N4  LIG X 999      44.232 131.080  21.752  1.00  0.00    -0.067 N 
HETATM   17  C12 LIG X 999      44.650 132.283  22.512  1.00  0.00     0.272 C 
HETATM   18  C13 LIG X 999      43.720 130.065  22.701  1.00  0.00     0.272 C 
ENDBRANCH   1   4
TORSDOF 1
