REMARK VINA RESULT:      -3.1      2.305      7.280
REMARK  5 active torsions:
REMARK  status: ('A' for Active; 'I' for Inactive)
REMARK    1  A    between atoms: C3_3  and  C4_4 
REMARK    2  A    between atoms: C4_4  and  S1_5 
REMARK    3  A    between atoms: S1_5  and  C5_6 
REMARK    4  A    between atoms: C6_7  and  N1_8 
REMARK    5  A    between atoms: C10_12  and  N2_13 
ROOT
HETATM    1  C1  LIG X 999      47.740 131.012  12.783  1.00  0.00     0.112 C 
HETATM    2  C2  LIG X 999      46.884 130.766  13.942  1.00  0.00    -0.110 C 
HETATM    3  C3  LIG X 999      46.176 130.572  14.898  1.00  0.00    -0.097 C 
ENDROOT
BRANCH   3   4
HETATM    4  C4  LIG X 999      45.311 130.345  16.058  1.00  0.00     0.173 C 
BRANCH   4   5
HETATM    5  S1  LIG X 999      46.293 129.756  17.480  1.00  0.00    -0.115 SA
BRANCH   5   6
HETATM    6  C5  LIG X 999      45.367 130.702  18.719  1.00  0.00     0.038 A 
HETATM    7  C6  LIG X 999      44.886 131.991  18.394  1.00  0.00     0.043 A 
HETATM    8  C7  LIG X 999      44.154 132.715  19.337  1.00  0.00     0.031 A 
HETATM    9  C8  LIG X 999      43.890 132.191  20.598  1.00  0.00     0.017 A 
HETATM   10  C9  LIG X 999      44.351 130.913  20.961  1.00  0.00     0.002 A 
HETATM   11  C10 LIG X 999      44.090 130.361  22.252  1.00  0.00     0.045 A 
HETATM   12  C14 LIG X 999      45.125 130.168  20.012  1.00  0.00    -0.004 A 
HETATM   13  C11 LIG X 999      44.635 129.107  22.558  1.00  0.00     0.003 A 
HETATM   14  C12 LIG X 999      45.380 128.412  21.659  1.00  0.00    -0.021 A 
HETATM   15  C18 LIG X 999      44.521 128.337  23.822  1.00  0.00     0.278 C 
HETATM   16  C13 LIG X 999      45.641 128.905  20.387  1.00  0.00     0.023 A 
HETATM   17  C15 LIG X 999      45.844 127.131  22.232  1.00  0.00     0.276 C 
HETATM   18  N3  LIG X 999      45.156 127.008  23.554  1.00  0.00    -0.067 N 
HETATM   19  C16 LIG X 999      44.119 125.951  23.492  1.00  0.00     0.272 C 
HETATM   20  C17 LIG X 999      46.128 126.668  24.620  1.00  0.00     0.272 C 
BRANCH   7  21
HETATM   21  N1  LIG X 999      45.144 132.593  17.117  1.00  0.00    -0.398 N 
HETATM   22  H6  LIG X 999      44.639 132.263  16.264  1.00  0.00     0.156 HD
HETATM   23  H7  LIG X 999      45.820 133.377  16.991  1.00  0.00     0.156 HD
ENDBRANCH   7  21
BRANCH  11  24
HETATM   24  N2  LIG X 999      43.283 131.034  23.233  1.00  0.00    -0.398 N 
HETATM   25  H10 LIG X 999      42.452 131.609  22.981  1.00  0.00     0.156 HD
HETATM   26  H11 LIG X 999      43.439 130.875  24.252  1.00  0.00     0.156 HD
ENDBRANCH  11  24
ENDBRANCH   5   6
ENDBRANCH   4   5
ENDBRANCH   3   4
TORSDOF 5
