REMARK VINA RESULT:      -5.3      1.964      2.749
REMARK  5 active torsions:
REMARK  status: ('A' for Active; 'I' for Inactive)
REMARK    1  A    between atoms: C3_3  and  C4_4 
REMARK    2  A    between atoms: C4_4  and  S1_5 
REMARK    3  A    between atoms: S1_5  and  C5_6 
REMARK    4  A    between atoms: C6_7  and  N1_8 
REMARK    5  A    between atoms: C10_12  and  N2_13 
ROOT
HETATM    1  C1  LIG X 999      46.591 125.743  22.074  1.00  0.00     0.112 C 
HETATM    2  C2  LIG X 999      45.737 126.874  22.432  1.00  0.00    -0.110 C 
HETATM    3  C3  LIG X 999      45.040 127.810  22.733  1.00  0.00    -0.097 C 
ENDROOT
BRANCH   3   4
HETATM    4  C4  LIG X 999      44.201 128.953  23.099  1.00  0.00     0.173 C 
BRANCH   4   5
HETATM    5  S1  LIG X 999      45.100 130.518  22.825  1.00  0.00    -0.115 SA
BRANCH   5   6
HETATM    6  C5  LIG X 999      43.733 131.341  21.963  1.00  0.00     0.038 A 
HETATM    7  C6  LIG X 999      42.670 131.894  22.712  1.00  0.00     0.043 A 
HETATM    8  C7  LIG X 999      41.627 132.547  22.055  1.00  0.00     0.031 A 
HETATM    9  C8  LIG X 999      41.610 132.663  20.669  1.00  0.00     0.017 A 
HETATM   10  C9  LIG X 999      42.649 132.125  19.886  1.00  0.00     0.002 A 
HETATM   11  C10 LIG X 999      42.647 132.233  18.463  1.00  0.00     0.045 A 
HETATM   12  C14 LIG X 999      43.715 131.431  20.546  1.00  0.00    -0.004 A 
HETATM   13  C11 LIG X 999      43.687 131.619  17.751  1.00  0.00     0.003 A 
HETATM   14  C12 LIG X 999      44.686 130.950  18.382  1.00  0.00    -0.021 A 
HETATM   15  C18 LIG X 999      43.898 131.578  16.282  1.00  0.00     0.278 C 
HETATM   16  C13 LIG X 999      44.734 130.838  19.765  1.00  0.00     0.023 A 
HETATM   17  C15 LIG X 999      45.645 130.388  17.406  1.00  0.00     0.276 C 
HETATM   18  N3  LIG X 999      45.232 130.930  16.076  1.00  0.00    -0.067 N 
HETATM   19  C16 LIG X 999      46.217 131.934  15.608  1.00  0.00     0.272 C 
HETATM   20  C17 LIG X 999      45.137 129.843  15.074  1.00  0.00     0.272 C 
BRANCH   7  21
HETATM   21  N1  LIG X 999      42.620 131.789  24.143  1.00  0.00    -0.398 N 
HETATM   22  H6  LIG X 999      42.268 132.586  24.720  1.00  0.00     0.156 HD
HETATM   23  H7  LIG X 999      42.912 130.928  24.654  1.00  0.00     0.156 HD
ENDBRANCH   7  21
BRANCH  11  24
HETATM   24  N2  LIG X 999      41.634 132.956  17.743  1.00  0.00    -0.398 N 
HETATM   25  H10 LIG X 999      40.616 132.791  17.882  1.00  0.00     0.156 HD
HETATM   26  H11 LIG X 999      41.888 133.761  17.130  1.00  0.00     0.156 HD
ENDBRANCH  11  24
ENDBRANCH   5   6
ENDBRANCH   4   5
ENDBRANCH   3   4
TORSDOF 5
