MODEL 1
REMARK VINA RESULT:      -8.4      0.000      0.000
REMARK  1 active torsions:
REMARK  status: ('A' for Active; 'I' for Inactive)
REMARK    1  A    between atoms: C8_9  and  N2_10 
ROOT
HETATM    1  C1  LIG X 999      46.385 131.675  14.904  1.00  0.00     0.283 C 
HETATM    2  N1  LIG X 999      45.598 130.698  15.686  1.00  0.00    -0.005 N 
HETATM    3  C2  LIG X 999      45.241 129.533  14.851  1.00  0.00     0.283 C 
HETATM    4  C3  LIG X 999      46.333 130.276  16.925  1.00  0.00     0.286 A 
HETATM    5  C4  LIG X 999      45.476 130.705  18.075  1.00  0.00    -0.015 A 
HETATM    6  C5  LIG X 999      45.720 130.541  19.439  1.00  0.00     0.022 A 
HETATM    7  C6  LIG X 999      44.768 131.028  20.358  1.00  0.00    -0.023 A 
HETATM    8  C7  LIG X 999      44.972 130.885  21.739  1.00  0.00     0.041 A 
HETATM    9  C8  LIG X 999      44.022 131.370  22.650  1.00  0.00     0.026 A 
HETATM   10  C9  LIG X 999      42.862 132.001  22.177  1.00  0.00     0.030 A 
HETATM   11  C10 LIG X 999      42.644 132.150  20.805  1.00  0.00     0.014 A 
HETATM   12  C11 LIG X 999      43.586 131.670  19.885  1.00  0.00    -0.025 A 
HETATM   13  C12 LIG X 999      43.374 131.817  18.500  1.00  0.00     0.030 A 
HETATM   14  C13 LIG X 999      44.344 131.321  17.630  1.00  0.00     0.049 A 
HETATM   15  C14 LIG X 999      44.400 131.326  16.194  1.00  0.00     0.351 A 
HETATM   16  O1  LIG X 999      43.504 131.822  15.456  1.00  0.00    -0.259 OA
ENDROOT
BRANCH   9  17
HETATM   17  N2  LIG X 999      44.235 131.222  24.055  1.00  0.00    -0.399 N 
HETATM   18  H11 LIG X 999      44.108 130.295  24.521  1.00  0.00     0.156 HD
HETATM   19  H12 LIG X 999      44.522 132.037  24.643  1.00  0.00     0.156 HD
ENDBRANCH   9  17
TORSDOF 1
ENDMDL
MODEL 2
REMARK VINA RESULT:      -7.8      1.785      5.825
REMARK  1 active torsions:
REMARK  status: ('A' for Active; 'I' for Inactive)
REMARK    1  A    between atoms: C8_9  and  N2_10 
ROOT
HETATM    1  C1  LIG X 999      43.355 130.236  22.369  1.00  0.00     0.283 C 
HETATM    2  N1  LIG X 999      44.154 131.231  21.622  1.00  0.00    -0.005 N 
HETATM    3  C2  LIG X 999      44.570 132.335  22.511  1.00  0.00     0.283 C 
HETATM    4  C3  LIG X 999      45.338 130.589  20.959  1.00  0.00     0.286 A 
HETATM    5  C4  LIG X 999      45.148 130.799  19.489  1.00  0.00    -0.015 A 
HETATM    6  C5  LIG X 999      45.978 130.389  18.446  1.00  0.00     0.022 A 
HETATM    7  C6  LIG X 999      45.602 130.696  17.123  1.00  0.00    -0.023 A 
HETATM    8  C7  LIG X 999      46.407 130.303  16.043  1.00  0.00     0.041 A 
HETATM    9  C8  LIG X 999      46.028 130.611  14.728  1.00  0.00     0.026 A 
HETATM   10  C9  LIG X 999      44.839 131.316  14.492  1.00  0.00     0.030 A 
HETATM   11  C10 LIG X 999      44.027 131.714  15.557  1.00  0.00     0.014 A 
HETATM   12  C11 LIG X 999      44.394 131.412  16.875  1.00  0.00    -0.025 A 
HETATM   13  C12 LIG X 999      43.580 131.810  17.955  1.00  0.00     0.030 A 
HETATM   14  C13 LIG X 999      43.994 131.483  19.245  1.00  0.00     0.049 A 
HETATM   15  C14 LIG X 999      43.382 131.752  20.518  1.00  0.00     0.351 A 
HETATM   16  O1  LIG X 999      42.293 132.373  20.658  1.00  0.00    -0.259 OA
ENDROOT
BRANCH   9  17
HETATM   17  N2  LIG X 999      46.852 130.208  13.631  1.00  0.00    -0.399 N 
HETATM   18  H11 LIG X 999      47.686 130.772  13.353  1.00  0.00     0.156 HD
HETATM   19  H12 LIG X 999      46.634 129.342  13.088  1.00  0.00     0.156 HD
ENDBRANCH   9  17
TORSDOF 1
ENDMDL
MODEL 3
REMARK VINA RESULT:      -7.7      1.236      2.320
REMARK  1 active torsions:
REMARK  status: ('A' for Active; 'I' for Inactive)
REMARK    1  A    between atoms: C8_9  and  N2_10 
ROOT
HETATM    1  C1  LIG X 999      44.882 129.992  14.736  1.00  0.00     0.283 C 
HETATM    2  N1  LIG X 999      45.279 131.066  15.670  1.00  0.00    -0.005 N 
HETATM    3  C2  LIG X 999      46.164 132.038  14.996  1.00  0.00     0.283 C 
HETATM    4  C3  LIG X 999      44.077 131.743  16.262  1.00  0.00     0.286 A 
HETATM    5  C4  LIG X 999      44.158 131.504  17.738  1.00  0.00    -0.015 A 
HETATM    6  C5  LIG X 999      43.274 131.931  18.729  1.00  0.00     0.022 A 
HETATM    7  C6  LIG X 999      43.547 131.589  20.070  1.00  0.00    -0.023 A 
HETATM    8  C7  LIG X 999      42.686 131.997  21.099  1.00  0.00     0.041 A 
HETATM    9  C8  LIG X 999      42.961 131.655  22.431  1.00  0.00     0.026 A 
HETATM   10  C9  LIG X 999      44.105 130.901  22.734  1.00  0.00     0.030 A 
HETATM   11  C10 LIG X 999      44.972 130.487  21.720  1.00  0.00     0.014 A 
HETATM   12  C11 LIG X 999      44.708 130.823  20.386  1.00  0.00    -0.025 A 
HETATM   13  C12 LIG X 999      45.577 130.409  19.357  1.00  0.00     0.030 A 
HETATM   14  C13 LIG X 999      45.265 130.771  18.048  1.00  0.00     0.049 A 
HETATM   15  C14 LIG X 999      45.953 130.498  16.815  1.00  0.00     0.351 A 
HETATM   16  O1  LIG X 999      47.025 129.837  16.738  1.00  0.00    -0.259 OA
ENDROOT
BRANCH   9  17
HETATM   17  N2  LIG X 999      42.081 132.073  23.476  1.00  0.00    -0.399 N 
HETATM   18  H11 LIG X 999      41.357 132.806  23.305  1.00  0.00     0.156 HD
HETATM   19  H12 LIG X 999      42.145 131.653  24.431  1.00  0.00     0.156 HD
ENDBRANCH   9  17
TORSDOF 1
ENDMDL
MODEL 4
REMARK VINA RESULT:      -7.0      1.979      5.935
REMARK  1 active torsions:
REMARK  status: ('A' for Active; 'I' for Inactive)
REMARK    1  A    between atoms: C8_9  and  N2_10 
ROOT
HETATM    1  C1  LIG X 999      42.627 130.234  23.884  1.00  0.00     0.283 C 
HETATM    2  N1  LIG X 999      43.540 131.199  23.237  1.00  0.00    -0.005 N 
HETATM    3  C2  LIG X 999      43.934 132.258  24.189  1.00  0.00     0.283 C 
HETATM    4  C3  LIG X 999      44.743 130.509  22.662  1.00  0.00     0.286 A 
HETATM    5  C4  LIG X 999      44.694 130.762  21.187  1.00  0.00    -0.015 A 
HETATM    6  C5  LIG X 999      45.590 130.331  20.209  1.00  0.00     0.022 A 
HETATM    7  C6  LIG X 999      45.348 130.689  18.866  1.00  0.00    -0.023 A 
HETATM    8  C7  LIG X 999      46.223 130.276  17.850  1.00  0.00     0.041 A 
HETATM    9  C8  LIG X 999      45.978 130.635  16.516  1.00  0.00     0.026 A 
HETATM   10  C9  LIG X 999      44.853 131.409  16.198  1.00  0.00     0.030 A 
HETATM   11  C10 LIG X 999      43.973 131.828  17.199  1.00  0.00     0.014 A 
HETATM   12  C11 LIG X 999      44.206 131.476  18.535  1.00  0.00    -0.025 A 
HETATM   13  C12 LIG X 999      43.323 131.893  19.551  1.00  0.00     0.030 A 
HETATM   14  C13 LIG X 999      43.604 131.514  20.863  1.00  0.00     0.049 A 
HETATM   15  C14 LIG X 999      42.897 131.788  22.084  1.00  0.00     0.351 A 
HETATM   16  O1  LIG X 999      41.834 132.465  22.147  1.00  0.00    -0.259 OA
ENDROOT
BRANCH   9  17
HETATM   17  N2  LIG X 999      46.873 130.213  15.484  1.00  0.00    -0.399 N 
HETATM   18  H11 LIG X 999      46.598 129.464  14.810  1.00  0.00     0.156 HD
HETATM   19  H12 LIG X 999      47.819 130.646  15.385  1.00  0.00     0.156 HD
ENDBRANCH   9  17
TORSDOF 1
ENDMDL
MODEL 5
REMARK VINA RESULT:      -6.6      2.285      6.249
REMARK  1 active torsions:
REMARK  status: ('A' for Active; 'I' for Inactive)
REMARK    1  A    between atoms: C8_9  and  N2_10 
ROOT
HETATM    1  C1  LIG X 999      43.817 131.949  24.259  1.00  0.00     0.283 C 
HETATM    2  N1  LIG X 999      43.265 131.106  23.178  1.00  0.00    -0.005 N 
HETATM    3  C2  LIG X 999      42.209 130.215  23.703  1.00  0.00     0.283 C 
HETATM    4  C3  LIG X 999      42.757 131.943  22.042  1.00  0.00     0.286 A 
HETATM    5  C4  LIG X 999      43.581 131.562  20.851  1.00  0.00    -0.015 A 
HETATM    6  C5  LIG X 999      43.496 132.059  19.550  1.00  0.00     0.022 A 
HETATM    7  C6  LIG X 999      44.380 131.552  18.575  1.00  0.00    -0.023 A 
HETATM    8  C7  LIG X 999      44.330 132.023  17.254  1.00  0.00     0.041 A 
HETATM    9  C8  LIG X 999      45.212 131.516  16.288  1.00  0.00     0.026 A 
HETATM   10  C9  LIG X 999      46.147 130.534  16.645  1.00  0.00     0.030 A 
HETATM   11  C10 LIG X 999      46.208 130.055  17.956  1.00  0.00     0.014 A 
HETATM   12  C11 LIG X 999      45.334 130.553  18.930  1.00  0.00    -0.025 A 
HETATM   13  C12 LIG X 999      45.389 130.076  20.255  1.00  0.00     0.030 A 
HETATM   14  C13 LIG X 999      44.495 130.607  21.183  1.00  0.00     0.049 A 
HETATM   15  C14 LIG X 999      44.320 130.319  22.581  1.00  0.00     0.351 A 
HETATM   16  O1  LIG X 999      45.009 129.476  23.218  1.00  0.00    -0.259 OA
ENDROOT
BRANCH   9  17
HETATM   17  N2  LIG X 999      45.157 131.999  14.944  1.00  0.00    -0.399 N 
HETATM   18  H11 LIG X 999      44.316 131.829  14.348  1.00  0.00     0.156 HD
HETATM   19  H12 LIG X 999      45.957 132.531  14.533  1.00  0.00     0.156 HD
ENDBRANCH   9  17
TORSDOF 1
ENDMDL
MODEL 6
REMARK VINA RESULT:      -5.8      2.199      6.276
REMARK  1 active torsions:
REMARK  status: ('A' for Active; 'I' for Inactive)
REMARK    1  A    between atoms: C8_9  and  N2_10 
ROOT
HETATM    1  C1  LIG X 999      45.022 132.241  21.809  1.00  0.00     0.283 C 
HETATM    2  N1  LIG X 999      44.310 131.515  20.736  1.00  0.00    -0.005 N 
HETATM    3  C2  LIG X 999      43.021 130.991  21.231  1.00  0.00     0.283 C 
HETATM    4  C3  LIG X 999      44.118 132.383  19.527  1.00  0.00     0.286 A 
HETATM    5  C4  LIG X 999      44.860 131.709  18.416  1.00  0.00    -0.015 A 
HETATM    6  C5  LIG X 999      44.985 132.122  17.089  1.00  0.00     0.022 A 
HETATM    7  C6  LIG X 999      45.739 131.325  16.202  1.00  0.00    -0.023 A 
HETATM    8  C7  LIG X 999      45.892 131.702  14.859  1.00  0.00     0.041 A 
HETATM    9  C8  LIG X 999      46.643 130.907  13.981  1.00  0.00     0.026 A 
HETATM   10  C9  LIG X 999      47.244 129.729  14.449  1.00  0.00     0.030 A 
HETATM   11  C10 LIG X 999      47.100 129.341  15.783  1.00  0.00     0.014 A 
HETATM   12  C11 LIG X 999      46.353 130.127  16.670  1.00  0.00    -0.025 A 
HETATM   13  C12 LIG X 999      46.204 129.742  18.018  1.00  0.00     0.030 A 
HETATM   14  C13 LIG X 999      45.450 130.562  18.856  1.00  0.00     0.049 A 
HETATM   15  C14 LIG X 999      45.130 130.428  20.251  1.00  0.00     0.351 A 
HETATM   16  O1  LIG X 999      45.520 129.470  20.974  1.00  0.00    -0.259 OA
ENDROOT
BRANCH   9  17
HETATM   17  N2  LIG X 999      46.795 131.295  12.614  1.00  0.00    -0.399 N 
HETATM   18  H11 LIG X 999      47.256 130.660  11.925  1.00  0.00     0.156 HD
HETATM   19  H12 LIG X 999      46.447 132.221  12.279  1.00  0.00     0.156 HD
ENDBRANCH   9  17
TORSDOF 1
ENDMDL
