REMARK VINA RESULT:      -6.5      7.793      8.789
REMARK  1 active torsions:
REMARK  status: ('A' for Active; 'I' for Inactive)
REMARK    1  A    between atoms: C2_5  and  C3_6 
ROOT
HETATM    1  C3  LIG X 999      49.407 136.327  21.346  1.00  0.00     0.030 A 
HETATM    2  C4  LIG X 999      48.507 135.276  21.616  1.00  0.00     0.017 A 
HETATM    3  C5  LIG X 999      48.739 134.361  22.637  1.00  0.00     0.002 A 
HETATM    4  C6  LIG X 999      49.877 134.464  23.423  1.00  0.00     0.012 A 
HETATM    5  C7  LIG X 999      50.803 135.489  23.196  1.00  0.00    -0.025 A 
HETATM    6  C8  LIG X 999      51.944 135.566  24.010  1.00  0.00     0.012 A 
HETATM    7  C9  LIG X 999      52.884 136.573  23.813  1.00  0.00     0.001 A 
HETATM    8  C10 LIG X 999      52.695 137.511  22.803  1.00  0.00     0.001 A 
HETATM    9  C11 LIG X 999      51.565 137.452  21.983  1.00  0.00     0.013 A 
HETATM   10  C12 LIG X 999      50.588 136.442  22.154  1.00  0.00    -0.011 A 
ENDROOT
BRANCH   1  11
HETATM   11  C2  LIG X 999      49.027 137.235  20.218  1.00  0.00     0.203 A 
HETATM   12  O1  LIG X 999      49.686 137.278  19.074  1.00  0.00    -0.255 OA
HETATM   13  C1  LIG X 999      49.062 138.176  18.356  1.00  0.00     0.262 A 
HETATM   14  N1  LIG X 999      49.400 138.518  17.155  1.00  0.00    -0.260 NA
HETATM   15  N3  LIG X 999      48.027 138.701  19.021  1.00  0.00    -0.238 N 
HETATM   16  H1  LIG X 999      50.220 138.075  16.685  1.00  0.00     0.190 HD
HETATM   17  N2  LIG X 999      47.997 138.109  20.203  1.00  0.00    -0.145 NA
HETATM   18  H9  LIG X 999      47.357 139.433  18.697  1.00  0.00     0.193 HD
ENDBRANCH   1  11
TORSDOF 1
