REMARK VINA RESULT:      -4.9      2.905      5.191
REMARK  1 active torsions:
REMARK  status: ('A' for Active; 'I' for Inactive)
REMARK    1  A    between atoms: C7_7  and  N1_8 
ROOT
HETATM    1  N1  LIG X 999      45.303 131.993  15.530  1.00  0.00    -0.110 NA
HETATM    2  N2  LIG X 999      45.825 131.364  14.608  1.00  0.00    -0.167 NA
HETATM    3  N3  LIG X 999      46.346 130.736  13.688  1.00  0.00     0.068 N 
ENDROOT
BRANCH   1   4
HETATM    4  C7  LIG X 999      45.633 131.705  16.924  1.00  0.00     0.153 C 
HETATM    5  C6  LIG X 999      45.787 130.179  17.118  1.00  0.00     0.031 C 
HETATM    6  C5  LIG X 999      45.561 129.717  18.573  1.00  0.00     0.003 C 
HETATM    7  C4  LIG X 999      45.899 130.818  19.585  1.00  0.00     0.009 C 
HETATM    8  C3  LIG X 999      45.039 132.093  19.377  1.00  0.00     0.018 C 
HETATM    9  C2  LIG X 999      43.887 132.122  20.355  1.00  0.00    -0.021 C 
HETATM   10  C8  LIG X 999      44.581 132.299  17.894  1.00  0.00     0.043 C 
HETATM   11  C1  LIG X 999      42.638 131.836  19.988  1.00  0.00    -0.004 C 
HETATM   12  C10 LIG X 999      42.301 131.565  18.585  1.00  0.00    -0.004 C 
HETATM   13  C9  LIG X 999      43.200 131.733  17.615  1.00  0.00    -0.019 C 
ENDBRANCH   1   4
TORSDOF 1
