REMARK VINA RESULT:      -4.5      6.359      7.864
REMARK  1 active torsions:
REMARK  status: ('A' for Active; 'I' for Inactive)
REMARK    1  A    between atoms: C7_7  and  N1_8 
ROOT
HETATM    1  N1  LIG X 999      44.998 128.227  23.330  1.00  0.00    -0.110 NA
HETATM    2  N2  LIG X 999      44.760 127.117  22.852  1.00  0.00    -0.167 NA
HETATM    3  N3  LIG X 999      44.523 126.009  22.374  1.00  0.00     0.068 N 
ENDROOT
BRANCH   1   4
HETATM    4  C7  LIG X 999      43.979 129.272  23.354  1.00  0.00     0.153 C 
HETATM    5  C6  LIG X 999      44.304 130.282  24.464  1.00  0.00     0.031 C 
HETATM    6  C5  LIG X 999      43.238 131.380  24.528  1.00  0.00     0.003 C 
HETATM    7  C4  LIG X 999      43.126 132.114  23.186  1.00  0.00     0.009 C 
HETATM    8  C3  LIG X 999      42.822 131.138  22.030  1.00  0.00     0.018 C 
HETATM    9  C2  LIG X 999      42.823 131.894  20.722  1.00  0.00    -0.021 C 
HETATM   10  C8  LIG X 999      43.851 129.973  21.975  1.00  0.00     0.043 C 
HETATM   11  C1  LIG X 999      43.954 132.045  20.021  1.00  0.00    -0.004 C 
HETATM   12  C10 LIG X 999      45.202 131.391  20.462  1.00  0.00    -0.004 C 
HETATM   13  C9  LIG X 999      45.178 130.461  21.424  1.00  0.00    -0.019 C 
ENDBRANCH   1   4
TORSDOF 1
