REMARK VINA RESULT:      -6.5      2.230      3.793
REMARK  1 active torsions:
REMARK  status: ('A' for Active; 'I' for Inactive)
REMARK    1  A    between atoms: C5_8  and  O1_9 
ROOT
HETATM    1  H1  LIG X 999      42.676 132.083  22.585  1.00  0.00     0.187 HD
HETATM    2  N1  LIG X 999      42.091 132.337  21.759  1.00  0.00    -0.300 NA
HETATM    3  C1  LIG X 999      42.483 132.174  20.535  1.00  0.00     0.059 A 
HETATM    4  C2  LIG X 999      41.569 132.570  19.410  1.00  0.00     0.034 A 
HETATM    5  C3  LIG X 999      41.939 132.417  18.119  1.00  0.00     0.035 A 
HETATM    6  C4  LIG X 999      43.267 131.850  17.832  1.00  0.00     0.071 A 
HETATM    7  N2  LIG X 999      43.847 131.606  16.633  1.00  0.00    -0.224 NA
HETATM    8  C5  LIG X 999      45.067 131.083  16.952  1.00  0.00     0.174 A 
HETATM    9  C6  LIG X 999      45.237 131.005  18.325  1.00  0.00     0.030 A 
HETATM   10  C7  LIG X 999      46.264 130.561  19.158  1.00  0.00     0.017 A 
HETATM   11  C8  LIG X 999      46.051 130.646  20.555  1.00  0.00     0.002 A 
HETATM   12  C9  LIG X 999      44.833 131.165  21.077  1.00  0.00     0.015 A 
HETATM   13  C10 LIG X 999      43.821 131.603  20.191  1.00  0.00     0.005 A 
HETATM   14  C11 LIG X 999      44.092 131.492  18.844  1.00  0.00     0.020 A 
ENDROOT
BRANCH   8  15
HETATM   15  O1  LIG X 999      46.006 130.684  16.008  1.00  0.00    -0.344 OA
HETATM   16  H4  LIG X 999      46.919 131.121  15.973  1.00  0.00     0.219 HD
ENDBRANCH   8  15
TORSDOF 1
