REMARK VINA RESULT:      -6.6      2.279      3.555
REMARK  1 active torsions:
REMARK  status: ('A' for Active; 'I' for Inactive)
REMARK    1  A    between atoms: N1_1  and  C1_2 
ROOT
HETATM    1  C1  LIG X 999      43.331 131.851  19.703  1.00  0.00     0.026 A 
HETATM    2  C2  LIG X 999      44.557 131.319  20.125  1.00  0.00     0.030 A 
HETATM    3  C3  LIG X 999      45.497 130.877  19.191  1.00  0.00     0.014 A 
HETATM    4  C4  LIG X 999      45.222 130.963  17.818  1.00  0.00    -0.026 A 
HETATM    5  C5  LIG X 999      46.159 130.523  16.871  1.00  0.00     0.012 A 
HETATM    6  C6  LIG X 999      45.871 130.614  15.506  1.00  0.00     0.001 A 
HETATM    7  C7  LIG X 999      44.651 131.143  15.078  1.00  0.00     0.001 A 
HETATM    8  C8  LIG X 999      43.709 131.585  16.012  1.00  0.00     0.012 A 
HETATM    9  C9  LIG X 999      43.985 131.500  17.385  1.00  0.00    -0.024 A 
HETATM   10  C10 LIG X 999      43.048 131.940  18.332  1.00  0.00     0.041 A 
ENDROOT
BRANCH   1  11
HETATM   11  N1  LIG X 999      42.374 132.300  20.665  1.00  0.00    -0.399 N 
HETATM   12  H1  LIG X 999      41.866 133.203  20.532  1.00  0.00     0.156 HD
HETATM   13  H2  LIG X 999      42.164 131.734  21.516  1.00  0.00     0.156 HD
ENDBRANCH   1  11
TORSDOF 1
