REMARK VINA RESULT:      -3.7      0.000      0.000
REMARK  3 active torsions:
REMARK  status: ('A' for Active; 'I' for Inactive)
REMARK    1  A    between atoms: C3_3  and  S1_4 
REMARK    2  A    between atoms: S1_4  and  C4_7 
REMARK    3  A    between atoms: C13_17  and  N2_18 
ROOT
HETATM    1  C1  LIG X 999      46.820 122.977  21.635  1.00  0.00     0.013 C 
HETATM    2  C2  LIG X 999      46.109 123.680  22.308  1.00  0.00    -0.102 C 
HETATM    3  C3  LIG X 999      45.245 124.540  23.122  1.00  0.00     0.238 C 
ENDROOT
BRANCH   3   4
HETATM    4  S1  LIG X 999      45.928 126.183  23.211  1.00  0.00     0.185 S 
HETATM    5  O1  LIG X 999      46.522 126.404  24.574  1.00  0.00    -0.222 OA
HETATM    6  O2  LIG X 999      47.017 126.332  22.185  1.00  0.00    -0.222 OA
BRANCH   4   7
HETATM    7  C4  LIG X 999      44.653 127.369  22.928  1.00  0.00     0.062 C 
HETATM    8  C5  LIG X 999      45.013 128.619  22.395  1.00  0.00     0.025 C 
HETATM    9  C6  LIG X 999      44.138 129.412  21.643  1.00  0.00     0.024 C 
HETATM   10  C7  LIG X 999      44.051 130.805  21.803  1.00  0.00     0.044 C 
HETATM   11  C8  LIG X 999      43.596 131.586  20.683  1.00  0.00     0.099 C 
HETATM   12  C9  LIG X 999      44.305 131.474  23.020  1.00  0.00     0.022 C 
HETATM   13  N1  LIG X 999      43.230 132.215  19.783  1.00  0.00    -0.191 NA
HETATM   14  C10 LIG X 999      44.269 130.894  24.304  1.00  0.00     0.002 C 
HETATM   15  C11 LIG X 999      43.615 129.696  24.624  1.00  0.00     0.002 C 
HETATM   16  C12 LIG X 999      42.476 129.252  23.942  1.00  0.00     0.034 C 
HETATM   17  C13 LIG X 999      42.271 127.915  23.567  1.00  0.00     0.094 C 
HETATM   18  C14 LIG X 999      43.333 127.017  23.287  1.00  0.00     0.057 C 
BRANCH  17  19
HETATM   19  N2  LIG X 999      40.910 127.493  23.398  1.00  0.00    -0.073 NA
HETATM   20  N3  LIG X 999      40.553 126.325  23.564  1.00  0.00    -0.162 NA
HETATM   21  N4  LIG X 999      40.195 125.160  23.729  1.00  0.00     0.068 N 
ENDBRANCH  17  19
ENDBRANCH   4   7
ENDBRANCH   3   4
TORSDOF 3
