REMARK VINA RESULT:      -6.4      8.442      9.521
REMARK  1 active torsions:
REMARK  status: ('A' for Active; 'I' for Inactive)
REMARK    1  A    between atoms: N1_2  and  C1_3 
ROOT
HETATM    1  C1  LIG X 999      48.538 138.737  19.574  1.00  0.00     0.120 C 
HETATM    2  C2  LIG X 999      49.619 139.325  20.224  1.00  0.00     0.057 C 
HETATM    3  C3  LIG X 999      50.297 138.637  21.239  1.00  0.00    -0.045 C 
HETATM    4  C4  LIG X 999      51.237 139.461  22.085  1.00  0.00     0.049 C 
HETATM    5  C5  LIG X 999      49.961 137.270  21.504  1.00  0.00     0.008 C 
HETATM    6  C6  LIG X 999      50.706 136.384  22.353  1.00  0.00    -0.013 C 
HETATM    7  C7  LIG X 999      52.055 136.605  22.718  1.00  0.00     0.013 C 
HETATM    8  C8  LIG X 999      52.717 135.742  23.595  1.00  0.00     0.001 C 
HETATM    9  C9  LIG X 999      52.072 134.613  24.089  1.00  0.00     0.001 C 
HETATM   10  C10 LIG X 999      50.781 134.310  23.666  1.00  0.00     0.012 C 
HETATM   11  C11 LIG X 999      50.109 135.161  22.773  1.00  0.00    -0.025 C 
HETATM   12  C12 LIG X 999      48.872 134.768  22.257  1.00  0.00     0.014 C 
HETATM   13  C13 LIG X 999      48.240 135.537  21.291  1.00  0.00     0.031 C 
HETATM   14  C14 LIG X 999      48.769 136.772  20.899  1.00  0.00     0.045 C 
HETATM   15  N2  LIG X 999      48.115 137.500  19.947  1.00  0.00    -0.341 N 
HETATM   16  H12 LIG X 999      47.264 137.099  19.489  1.00  0.00     0.167 HD
ENDROOT
BRANCH   1  17
HETATM   17  N1  LIG X 999      47.918 139.395  18.645  1.00  0.00    -0.284 NA
HETATM   18  H1  LIG X 999      48.316 139.514  17.686  1.00  0.00     0.188 HD
ENDBRANCH   1  17
TORSDOF 1
