REMARK VINA RESULT:      -7.5      1.060      1.424
REMARK  3 active torsions:
REMARK  status: ('A' for Active; 'I' for Inactive)
REMARK    1  A    between atoms: C3_3  and  N1_4 
REMARK    2  A    between atoms: N1_4  and  C6_7 
REMARK    3  A    between atoms: C6_7  and  C7_8 
ROOT
HETATM    1  C1  LIG X 999      47.482 130.826  13.229  1.00  0.00     0.013 C 
HETATM    2  C2  LIG X 999      46.868 131.310  14.147  1.00  0.00    -0.089 C 
HETATM    3  C3  LIG X 999      46.116 131.904  15.269  1.00  0.00     0.329 C 
ENDROOT
BRANCH   3   4
HETATM    4  N1  LIG X 999      45.353 130.901  16.073  1.00  0.00    -0.061 N 
HETATM    5  C4  LIG X 999      45.318 129.624  15.315  1.00  0.00     0.273 C 
HETATM    6  C5  LIG X 999      43.948 131.357  16.240  1.00  0.00     0.273 C 
BRANCH   4   7
HETATM    7  C6  LIG X 999      45.943 130.682  17.433  1.00  0.00     0.276 C 
BRANCH   7   8
HETATM    8  C7  LIG X 999      45.023 131.045  18.586  1.00  0.00    -0.032 A 
HETATM    9  C8  LIG X 999      43.864 131.805  18.357  1.00  0.00     0.010 A 
HETATM   10  C9  LIG X 999      43.015 132.146  19.412  1.00  0.00     0.013 A 
HETATM   11  C10 LIG X 999      43.316 131.740  20.719  1.00  0.00    -0.026 A 
HETATM   12  C11 LIG X 999      42.469 132.076  21.786  1.00  0.00     0.012 A 
HETATM   13  C15 LIG X 999      44.491 130.990  20.965  1.00  0.00    -0.025 A 
HETATM   14  C12 LIG X 999      42.785 131.669  23.086  1.00  0.00     0.001 A 
HETATM   15  C13 LIG X 999      43.945 130.929  23.330  1.00  0.00     0.001 A 
HETATM   16  C14 LIG X 999      44.797 130.590  22.276  1.00  0.00     0.012 A 
HETATM   17  C16 LIG X 999      45.339 130.655  19.899  1.00  0.00     0.021 A 
ENDBRANCH   7   8
ENDBRANCH   4   7
ENDBRANCH   3   4
TORSDOF 3
