MODEL 1
REMARK VINA RESULT:      -8.6      0.000      0.000
REMARK  3 active torsions:
REMARK  status: ('A' for Active; 'I' for Inactive)
REMARK    1  A    between atoms: C6_6  and  C7_7 
REMARK    2  A    between atoms: C8_8  and  C9_9 
REMARK    3  A    between atoms: C10_12  and  N1_13 
ROOT
HETATM    1  N1  LIG X 999      45.377 129.540  20.989  1.00  0.00    -0.105 NA
HETATM    2  N2  LIG X 999      45.017 129.085  22.074  1.00  0.00    -0.167 NA
HETATM    3  N3  LIG X 999      44.656 128.628  23.158  1.00  0.00     0.068 N 
ENDROOT
BRANCH   1   4
HETATM    4  C10 LIG X 999      45.400 130.981  20.743  1.00  0.00     0.179 C 
HETATM    5  C4  LIG X 999      44.855 131.245  19.356  1.00  0.00    -0.023 A 
HETATM    6  C3  LIG X 999      43.527 131.693  19.150  1.00  0.00    -0.050 A 
HETATM    7  C5  LIG X 999      45.664 130.952  18.244  1.00  0.00     0.030 A 
HETATM    8  C2  LIG X 999      43.054 131.873  17.841  1.00  0.00     0.009 A 
HETATM    9  C13 LIG X 999      42.637 132.095  20.303  1.00  0.00     0.039 C 
HETATM   10  C1  LIG X 999      43.870 131.585  16.745  1.00  0.00     0.021 A 
HETATM   11  C6  LIG X 999      45.174 131.124  16.943  1.00  0.00     0.018 A 
HETATM   12  C12 LIG X 999      43.100 131.512  21.641  1.00  0.00     0.007 C 
HETATM   13  C11 LIG X 999      44.602 131.729  21.826  1.00  0.00     0.035 C 
BRANCH  11  14
HETATM   14  C7  LIG X 999      46.013 130.824  15.812  1.00  0.00    -0.056 C 
HETATM   15  C8  LIG X 999      46.714 130.573  14.864  1.00  0.00     0.010 C 
BRANCH  15  16
HETATM   16  C9  LIG X 999      47.549 130.274  13.737  1.00  0.00     0.258 C 
HETATM   17  O1  LIG X 999      48.270 129.242  13.744  1.00  0.00    -0.637 OA
HETATM   18  O2  LIG X 999      47.562 131.122  12.637  1.00  0.00    -0.637 OA
ENDBRANCH  15  16
ENDBRANCH  11  14
ENDBRANCH   1   4
TORSDOF 3
ENDMDL
MODEL 2
REMARK VINA RESULT:      -7.0      1.733      2.878
REMARK  3 active torsions:
REMARK  status: ('A' for Active; 'I' for Inactive)
REMARK    1  A    between atoms: C6_6  and  C7_7 
REMARK    2  A    between atoms: C8_8  and  C9_9 
REMARK    3  A    between atoms: C10_12  and  N1_13 
ROOT
HETATM    1  N1  LIG X 999      44.244 128.468  22.829  1.00  0.00    -0.105 NA
HETATM    2  N2  LIG X 999      45.045 127.533  22.857  1.00  0.00    -0.167 NA
HETATM    3  N3  LIG X 999      45.843 126.598  22.887  1.00  0.00     0.068 N 
ENDROOT
BRANCH   1   4
HETATM    4  C10 LIG X 999      44.678 129.843  23.063  1.00  0.00     0.179 C 
HETATM    5  C4  LIG X 999      44.164 130.714  21.937  1.00  0.00    -0.023 A 
HETATM    6  C3  LIG X 999      43.018 131.533  22.093  1.00  0.00    -0.050 A 
HETATM    7  C5  LIG X 999      44.790 130.636  20.681  1.00  0.00     0.030 A 
HETATM    8  C2  LIG X 999      42.551 132.281  21.001  1.00  0.00     0.009 A 
HETATM    9  C13 LIG X 999      42.349 131.715  23.435  1.00  0.00     0.039 C 
HETATM   10  C1  LIG X 999      43.187 132.200  19.760  1.00  0.00     0.021 A 
HETATM   11  C6  LIG X 999      44.305 131.378  19.597  1.00  0.00     0.018 A 
HETATM   12  C12 LIG X 999      42.689 130.596  24.425  1.00  0.00     0.007 C 
HETATM   13  C11 LIG X 999      44.195 130.338  24.439  1.00  0.00     0.035 C 
BRANCH  11  14
HETATM   14  C7  LIG X 999      44.956 131.293  18.316  1.00  0.00    -0.056 C 
HETATM   15  C8  LIG X 999      45.502 131.222  17.244  1.00  0.00     0.010 C 
BRANCH  15  16
HETATM   16  C9  LIG X 999      46.151 131.137  15.967  1.00  0.00     0.258 C 
HETATM   17  O1  LIG X 999      46.173 132.138  15.205  1.00  0.00    -0.637 OA
HETATM   18  O2  LIG X 999      46.757 129.952  15.573  1.00  0.00    -0.637 OA
ENDBRANCH  15  16
ENDBRANCH  11  14
ENDBRANCH   1   4
TORSDOF 3
ENDMDL
