REMARK VINA RESULT:      -7.9      0.996      1.980
REMARK  3 active torsions:
REMARK  status: ('A' for Active; 'I' for Inactive)
REMARK    1  A    between atoms: C6_6  and  C7_7 
REMARK    2  A    between atoms: C7_7  and  C8_9 
REMARK    3  A    between atoms: C8_9  and  N1_10 
ROOT
HETATM    1  N1  LIG X 999      47.005 129.768  14.746  1.00  0.00    -0.108 NA
HETATM    2  N2  LIG X 999      47.453 130.424  13.805  1.00  0.00    -0.167 NA
HETATM    3  N3  LIG X 999      47.899 131.078  12.864  1.00  0.00     0.068 N 
ENDROOT
BRANCH   1   4
HETATM    4  C8  LIG X 999      45.568 129.649  14.962  1.00  0.00     0.272 C 
BRANCH   4   5
HETATM    5  C7  LIG X 999      44.994 130.900  15.580  1.00  0.00     0.181 C 
HETATM    6  O1  LIG X 999      44.633 131.845  14.825  1.00  0.00    -0.290 OA
BRANCH   5   7
HETATM    7  C6  LIG X 999      44.797 131.026  17.048  1.00  0.00     0.012 A 
HETATM    8  C5  LIG X 999      43.641 131.653  17.550  1.00  0.00     0.027 A 
HETATM    9  C4  LIG X 999      43.437 131.780  18.933  1.00  0.00    -0.025 A 
HETATM   10  C3  LIG X 999      42.286 132.410  19.431  1.00  0.00     0.012 A 
HETATM   11  C11 LIG X 999      44.400 131.268  19.834  1.00  0.00    -0.026 A 
HETATM   12  C2  LIG X 999      42.093 132.531  20.810  1.00  0.00     0.001 A 
HETATM   13  C1  LIG X 999      43.044 132.024  21.700  1.00  0.00     0.001 A 
HETATM   14  C12 LIG X 999      44.194 131.394  21.217  1.00  0.00     0.012 A 
HETATM   15  C10 LIG X 999      45.547 130.637  19.336  1.00  0.00     0.013 A 
HETATM   16  C9  LIG X 999      45.744 130.517  17.958  1.00  0.00     0.016 A 
ENDBRANCH   5   7
ENDBRANCH   4   5
ENDBRANCH   1   4
TORSDOF 3
