REMARK VINA RESULT:      -5.7      5.032      7.296
REMARK  6 active torsions:
REMARK  status: ('A' for Active; 'I' for Inactive)
REMARK    1  A    between atoms: O1_2  and  C1_3 
REMARK    2  A    between atoms: C1_3  and  C2_4 
REMARK    3  A    between atoms: C1_3  and  C13_20 
REMARK    4  A    between atoms: C2_4  and  O3_6 
REMARK    5  A    between atoms: O3_6  and  C3_7 
REMARK    6  A    between atoms: C8_12  and  N1_13 
ROOT
HETATM    1  N1  LIG X 999      45.058 131.206  15.039  1.00  0.00    -0.073 NA
HETATM    2  N2  LIG X 999      44.192 131.289  14.165  1.00  0.00    -0.162 NA
HETATM    3  N3  LIG X 999      43.329 131.372  13.293  1.00  0.00     0.068 N 
ENDROOT
BRANCH   1   4
HETATM    4  C8  LIG X 999      44.748 131.304  16.436  1.00  0.00     0.094 A 
HETATM    5  C7  LIG X 999      43.498 131.765  16.889  1.00  0.00     0.046 A 
HETATM    6  C6  LIG X 999      43.229 131.847  18.264  1.00  0.00    -0.024 A 
HETATM    7  C5  LIG X 999      41.985 132.300  18.723  1.00  0.00     0.015 A 
HETATM    8  C11 LIG X 999      44.221 131.465  19.197  1.00  0.00    -0.023 A 
HETATM    9  C4  LIG X 999      41.726 132.380  20.095  1.00  0.00     0.038 A 
HETATM   10  C3  LIG X 999      42.714 132.018  21.029  1.00  0.00     0.080 A 
HETATM   11  C12 LIG X 999      43.951 131.547  20.572  1.00  0.00     0.049 A 
HETATM   12  C10 LIG X 999      45.463 131.005  18.740  1.00  0.00     0.014 A 
HETATM   13  C9  LIG X 999      45.722 130.926  17.368  1.00  0.00     0.035 A 
BRANCH  10  14
HETATM   14  O3  LIG X 999      42.493 132.073  22.412  1.00  0.00    -0.277 OA
BRANCH  14  15
HETATM   15  C2  LIG X 999      42.749 131.033  23.317  1.00  0.00     0.293 C 
HETATM   16  O2  LIG X 999      42.123 129.940  23.244  1.00  0.00    -0.262 OA
BRANCH  15  17
HETATM   17  C1  LIG X 999      43.718 131.258  24.442  1.00  0.00     0.217 C 
BRANCH  17  18
HETATM   18  O1  LIG X 999      44.919 130.588  24.163  1.00  0.00    -0.386 OA
HETATM   19  H1  LIG X 999      44.674 129.726  23.732  1.00  0.00     0.210 HD
ENDBRANCH  17  18
BRANCH  17  20
HETATM   20  C13 LIG X 999      44.015 132.755  24.622  1.00  0.00     0.037 C 
HETATM   21  C14 LIG X 999      45.515 133.058  24.624  1.00  0.00     0.008 C 
ENDBRANCH  17  20
ENDBRANCH  15  17
ENDBRANCH  14  15
ENDBRANCH  10  14
ENDBRANCH   1   4
TORSDOF 6
