REMARK VINA RESULT:      -4.9      1.842      2.722
REMARK  1 active torsions:
REMARK  status: ('A' for Active; 'I' for Inactive)
REMARK    1  A    between atoms: C5_8  and  O1_9 
ROOT
HETATM    1  H1  LIG X 999      47.122 129.216  20.097  1.00  0.00     0.187 HD
HETATM    2  N1  LIG X 999      46.401 129.570  20.766  1.00  0.00    -0.300 NA
HETATM    3  C1  LIG X 999      45.436 130.342  20.382  1.00  0.00     0.059 A 
HETATM    4  C2  LIG X 999      45.307 130.767  18.943  1.00  0.00     0.034 A 
HETATM    5  C3  LIG X 999      44.297 131.575  18.542  1.00  0.00     0.035 A 
HETATM    6  C4  LIG X 999      43.321 132.030  19.547  1.00  0.00     0.071 A 
HETATM    7  N2  LIG X 999      42.241 132.831  19.387  1.00  0.00    -0.224 NA
HETATM    8  C5  LIG X 999      41.702 132.921  20.639  1.00  0.00     0.174 A 
HETATM    9  C6  LIG X 999      42.437 132.189  21.557  1.00  0.00     0.030 A 
HETATM   10  C7  LIG X 999      42.331 131.945  22.927  1.00  0.00     0.017 A 
HETATM   11  C8  LIG X 999      43.315 131.112  23.519  1.00  0.00     0.002 A 
HETATM   12  C9  LIG X 999      44.364 130.553  22.736  1.00  0.00     0.015 A 
HETATM   13  C10 LIG X 999      44.423 130.832  21.353  1.00  0.00     0.005 A 
HETATM   14  C11 LIG X 999      43.441 131.646  20.839  1.00  0.00     0.020 A 
ENDROOT
BRANCH   8  15
HETATM   15  O1  LIG X 999      40.561 133.658  20.937  1.00  0.00    -0.344 OA
HETATM   16  H4  LIG X 999      40.538 134.269  21.743  1.00  0.00     0.219 HD
ENDBRANCH   8  15
TORSDOF 1
