REMARK VINA RESULT:      -5.5      3.413      6.166
REMARK  1 active torsions:
REMARK  status: ('A' for Active; 'I' for Inactive)
REMARK    1  A    between atoms: C4_4  and  N1_5 
ROOT
HETATM    1  C1  LIG X 999      43.080 131.317  14.378  1.00  0.00     0.049 C 
HETATM    2  C2  LIG X 999      44.489 131.220  14.914  1.00  0.00    -0.045 C 
HETATM    3  C3  LIG X 999      45.500 131.049  13.957  1.00  0.00     0.055 C 
HETATM    4  C4  LIG X 999      46.784 130.677  14.347  1.00  0.00     0.099 C 
HETATM    5  N2  LIG X 999      47.049 130.442  15.658  1.00  0.00    -0.342 N 
HETATM    6  C5  LIG X 999      46.112 130.639  16.630  1.00  0.00     0.045 C 
HETATM    7  C6  LIG X 999      46.429 130.309  17.953  1.00  0.00     0.031 C 
HETATM    8  C7  LIG X 999      45.504 130.490  18.971  1.00  0.00     0.014 C 
HETATM    9  C8  LIG X 999      44.280 131.111  18.709  1.00  0.00    -0.025 C 
HETATM   10  C9  LIG X 999      43.408 131.384  19.775  1.00  0.00     0.012 C 
HETATM   11  C10 LIG X 999      42.245 132.120  19.563  1.00  0.00     0.001 C 
HETATM   12  C11 LIG X 999      41.965 132.623  18.297  1.00  0.00     0.001 C 
HETATM   13  C12 LIG X 999      42.816 132.347  17.224  1.00  0.00     0.013 C 
HETATM   14  C13 LIG X 999      43.948 131.512  17.383  1.00  0.00    -0.013 C 
HETATM   15  C14 LIG X 999      44.822 131.149  16.303  1.00  0.00     0.008 C 
HETATM   16  H7  LIG X 999      48.003 130.101  15.919  1.00  0.00     0.167 HD
ENDROOT
BRANCH   4  17
HETATM   17  N1  LIG X 999      47.804 130.483  13.362  1.00  0.00    -0.385 N 
HETATM   18  H5  LIG X 999      48.788 130.274  13.644  1.00  0.00     0.157 HD
HETATM   19  H6  LIG X 999      47.579 130.541  12.345  1.00  0.00     0.157 HD
ENDBRANCH   4  17
TORSDOF 1
