REMARK VINA RESULT:      -5.6      1.947      7.329
REMARK  5 active torsions:
REMARK  status: ('A' for Active; 'I' for Inactive)
REMARK    1  A    between atoms: C6_6  and  C7_7 
REMARK       I    between atoms: C7_7  and  N1_9 
REMARK    2  A    between atoms: N1_9  and  C8_11 
REMARK    3  A    between atoms: C8_11  and  C9_12 
REMARK    4  A    between atoms: C9_12  and  N2_13 
REMARK    5  A    between atoms: C13_19  and  N5_20 
ROOT
HETATM    1  N2  LIG X 999      46.839 129.841  14.059  1.00  0.00    -0.114 NA
HETATM    2  N3  LIG X 999      46.056 129.289  14.833  1.00  0.00    -0.168 NA
HETATM    3  N4  LIG X 999      45.275 128.736  15.606  1.00  0.00     0.068 N 
ENDROOT
BRANCH   1   4
HETATM    4  C9  LIG X 999      47.245 131.226  14.263  1.00  0.00     0.208 C 
BRANCH   4   5
HETATM    5  C8  LIG X 999      46.026 132.073  14.627  1.00  0.00     0.147 C 
BRANCH   5   6
HETATM    6  N1  LIG X 999      45.673 131.905  16.037  1.00  0.00    -0.355 N 
HETATM    7  C7  LIG X 999      44.306 131.744  16.446  1.00  0.00     0.251 C 
HETATM    8  O1  LIG X 999      43.409 131.593  15.571  1.00  0.00    -0.268 OA
HETATM    9  H4  LIG X 999      46.433 131.858  16.753  1.00  0.00     0.162 HD
BRANCH   7  10
HETATM   10  C6  LIG X 999      43.930 131.733  17.881  1.00  0.00     0.032 A 
HETATM   11  C1  LIG X 999      42.587 131.834  18.279  1.00  0.00     0.017 A 
HETATM   12  C2  LIG X 999      42.246 131.823  19.632  1.00  0.00     0.011 A 
HETATM   13  C3  LIG X 999      43.236 131.710  20.620  1.00  0.00    -0.024 A 
HETATM   14  C4  LIG X 999      44.589 131.573  20.230  1.00  0.00    -0.049 A 
HETATM   15  C13 LIG X 999      42.813 131.634  22.071  1.00  0.00     0.179 C 
HETATM   16  C5  LIG X 999      44.922 131.599  18.867  1.00  0.00     0.024 A 
HETATM   17  C10 LIG X 999      45.705 131.518  21.247  1.00  0.00     0.039 C 
HETATM   18  C11 LIG X 999      45.218 131.123  22.644  1.00  0.00     0.007 C 
HETATM   19  C12 LIG X 999      43.981 131.935  23.026  1.00  0.00     0.035 C 
BRANCH  15  20
HETATM   20  N5  LIG X 999      42.265 130.304  22.331  1.00  0.00    -0.105 NA
HETATM   21  N6  LIG X 999      42.175 129.864  23.478  1.00  0.00    -0.167 NA
HETATM   22  N7  LIG X 999      42.085 129.424  24.623  1.00  0.00     0.068 N 
ENDBRANCH  15  20
ENDBRANCH   7  10
ENDBRANCH   5   6
ENDBRANCH   4   5
ENDBRANCH   1   4
TORSDOF 5
