REMARK VINA RESULT:      -6.5      1.495      2.154
REMARK  4 active torsions:
REMARK  status: ('A' for Active; 'I' for Inactive)
REMARK    1  A    between atoms: C3_3  and  O1_4 
REMARK    2  A    between atoms: O1_4  and  C4_5 
REMARK    3  A    between atoms: C4_5  and  C5_7 
REMARK    4  A    between atoms: C5_7  and  C6_8 
ROOT
HETATM    1  C1  LIG X 999      47.231 131.012  13.103  1.00  0.00     0.014 C 
HETATM    2  C2  LIG X 999      46.957 130.622  14.210  1.00  0.00    -0.091 C 
HETATM    3  C3  LIG X 999      46.624 130.149  15.554  1.00  0.00     0.271 C 
ENDROOT
BRANCH   3   4
HETATM    4  O1  LIG X 999      46.128 131.238  16.324  1.00  0.00    -0.309 OA
BRANCH   4   5
HETATM    5  C4  LIG X 999      45.103 131.093  17.262  1.00  0.00     0.263 C 
HETATM    6  O2  LIG X 999      43.893 131.137  16.905  1.00  0.00    -0.265 OA
BRANCH   5   7
HETATM    7  C5  LIG X 999      45.444 130.846  18.697  1.00  0.00     0.150 C 
BRANCH   7   8
HETATM    8  C6  LIG X 999      44.343 131.365  19.597  1.00  0.00    -0.038 A 
HETATM    9  C7  LIG X 999      43.462 132.326  19.072  1.00  0.00     0.008 A 
HETATM   10  C8  LIG X 999      42.412 132.831  19.837  1.00  0.00     0.001 A 
HETATM   11  C9  LIG X 999      42.214 132.382  21.140  1.00  0.00     0.012 A 
HETATM   12  C10 LIG X 999      43.064 131.414  21.692  1.00  0.00    -0.025 A 
HETATM   13  C11 LIG X 999      42.847 130.961  23.002  1.00  0.00     0.012 A 
HETATM   14  C15 LIG X 999      44.140 130.890  20.923  1.00  0.00    -0.019 A 
HETATM   15  C12 LIG X 999      43.681 129.991  23.559  1.00  0.00     0.001 A 
HETATM   16  C13 LIG X 999      44.736 129.466  22.815  1.00  0.00     0.001 A 
HETATM   17  C14 LIG X 999      44.968 129.907  21.511  1.00  0.00     0.013 A 
ENDBRANCH   7   8
ENDBRANCH   5   7
ENDBRANCH   4   5
ENDBRANCH   3   4
TORSDOF 4
