REMARK VINA RESULT:      -7.1      1.816      6.564
REMARK  4 active torsions:
REMARK  status: ('A' for Active; 'I' for Inactive)
REMARK    1  A    between atoms: C3_4  and  O1_5 
REMARK    2  A    between atoms: C3_4  and  O2_6 
REMARK    3  A    between atoms: O2_6  and  C4_7 
REMARK    4  A    between atoms: C13_16  and  N2_17 
ROOT
HETATM    1  C4  LIG X 999      45.264 131.188  16.953  1.00  0.00     0.106 A 
HETATM    2  C5  LIG X 999      45.318 132.402  16.251  1.00  0.00     0.040 A 
HETATM    3  C6  LIG X 999      46.082 132.521  15.095  1.00  0.00     0.015 A 
HETATM    4  C7  LIG X 999      46.784 131.420  14.595  1.00  0.00    -0.024 A 
HETATM    5  C8  LIG X 999      47.538 131.552  13.418  1.00  0.00     0.012 A 
HETATM    6  C9  LIG X 999      48.218 130.455  12.891  1.00  0.00     0.001 A 
HETATM    7  C10 LIG X 999      48.144 129.217  13.527  1.00  0.00     0.001 A 
HETATM    8  C11 LIG X 999      47.399 129.068  14.699  1.00  0.00     0.014 A 
HETATM    9  C12 LIG X 999      46.719 130.169  15.266  1.00  0.00     0.003 A 
HETATM   10  C13 LIG X 999      45.957 130.061  16.464  1.00  0.00     0.071 A 
ENDROOT
BRANCH   1  11
HETATM   11  O2  LIG X 999      44.497 131.064  18.121  1.00  0.00    -0.272 OA
BRANCH  11  12
HETATM   12  C3  LIG X 999      45.007 131.084  19.429  1.00  0.00     0.265 C 
HETATM   13  N1  LIG X 999      44.279 131.588  20.399  1.00  0.00    -0.350 N 
HETATM   14  C1  LIG X 999      44.762 131.615  21.786  1.00  0.00     0.153 C 
HETATM   15  C2  LIG X 999      42.951 132.141  20.092  1.00  0.00     0.153 C 
BRANCH  12  16
HETATM   16  O1  LIG X 999      46.270 130.526  19.671  1.00  0.00    -0.327 OA
HETATM   17  H7  LIG X 999      47.145 130.971  19.425  1.00  0.00     0.221 HD
ENDBRANCH  12  16
ENDBRANCH  11  12
ENDBRANCH   1  11
BRANCH  10  18
HETATM   18  N2  LIG X 999      45.895 128.836  17.214  1.00  0.00    -0.396 N 
HETATM   19  H14 LIG X 999      46.629 128.554  17.899  1.00  0.00     0.156 HD
HETATM   20  H15 LIG X 999      45.045 128.231  17.186  1.00  0.00     0.156 HD
ENDBRANCH  10  18
TORSDOF 4
