REMARK VINA RESULT:      -4.6      7.236      8.540
REMARK  3 active torsions:
REMARK  status: ('A' for Active; 'I' for Inactive)
REMARK    1  A    between atoms: C6_6  and  C7_7 
REMARK    2  A    between atoms: C8_8  and  C9_9 
REMARK    3  A    between atoms: C10_12  and  N1_13 
ROOT
HETATM    1  N1  LIG X 999      44.265 129.658  22.363  1.00  0.00    -0.105 NA
HETATM    2  N2  LIG X 999      43.681 130.738  22.276  1.00  0.00    -0.167 NA
HETATM    3  N3  LIG X 999      43.098 131.817  22.188  1.00  0.00     0.068 N 
ENDROOT
BRANCH   1   4
HETATM    4  C10 LIG X 999      44.346 128.942  23.633  1.00  0.00     0.179 C 
HETATM    5  C4  LIG X 999      44.370 127.454  23.353  1.00  0.00    -0.023 A 
HETATM    6  C3  LIG X 999      43.212 126.650  23.497  1.00  0.00    -0.050 A 
HETATM    7  C5  LIG X 999      45.550 126.878  22.848  1.00  0.00     0.030 A 
HETATM    8  C2  LIG X 999      43.274 125.286  23.174  1.00  0.00     0.009 A 
HETATM    9  C13 LIG X 999      41.939 127.195  24.102  1.00  0.00     0.039 C 
HETATM   10  C1  LIG X 999      44.454 124.726  22.680  1.00  0.00     0.021 A 
HETATM   11  C6  LIG X 999      45.593 125.519  22.517  1.00  0.00     0.018 A 
HETATM   12  C12 LIG X 999      41.867 128.723  24.058  1.00  0.00     0.007 C 
HETATM   13  C11 LIG X 999      43.177 129.334  24.555  1.00  0.00     0.035 C 
BRANCH  11  14
HETATM   14  C7  LIG X 999      46.807 124.940  22.005  1.00  0.00    -0.056 C 
HETATM   15  C8  LIG X 999      47.824 124.456  21.577  1.00  0.00     0.010 C 
BRANCH  15  16
HETATM   16  C9  LIG X 999      49.035 123.879  21.068  1.00  0.00     0.258 C 
HETATM   17  O1  LIG X 999      50.085 123.904  21.762  1.00  0.00    -0.637 OA
HETATM   18  O2  LIG X 999      49.049 123.291  19.811  1.00  0.00    -0.637 OA
ENDBRANCH  15  16
ENDBRANCH  11  14
ENDBRANCH   1   4
TORSDOF 3
