REMARK VINA RESULT:      -4.7      5.604      6.797
REMARK  4 active torsions:
REMARK  status: ('A' for Active; 'I' for Inactive)
REMARK    1  A    between atoms: C4_4  and  N1_5 
REMARK    2  A    between atoms: C7_10  and  S1_11 
REMARK    3  A    between atoms: S1_11  and  C8_12 
REMARK    4  A    between atoms: C8_12  and  C9_13 
ROOT
HETATM    1  N1  LIG X 999      45.535 126.208  24.513  1.00  0.00    -0.071 NA
HETATM    2  N2  LIG X 999      45.038 127.270  24.143  1.00  0.00    -0.162 NA
HETATM    3  N3  LIG X 999      44.524 128.327  23.779  1.00  0.00     0.068 N 
ENDROOT
BRANCH   1   4
HETATM    4  C4  LIG X 999      45.838 125.119  23.618  1.00  0.00     0.108 A 
HETATM    5  C3  LIG X 999      44.853 124.231  23.139  1.00  0.00     0.008 A 
HETATM    6  C2  LIG X 999      45.180 123.188  22.325  1.00  0.00    -0.021 A 
HETATM    7  C15 LIG X 999      43.380 124.238  23.355  1.00  0.00     0.278 C 
HETATM    8  C1  LIG X 999      46.483 122.976  21.892  1.00  0.00     0.018 A 
HETATM    9  C18 LIG X 999      43.980 122.403  21.965  1.00  0.00     0.276 C 
HETATM   10  C6  LIG X 999      47.493 123.884  22.267  1.00  0.00    -0.035 A 
HETATM   11  C5  LIG X 999      47.177 124.934  23.185  1.00  0.00    -0.018 A 
HETATM   12  C7  LIG X 999      48.916 123.653  21.780  1.00  0.00     0.081 C 
HETATM   13  C14 LIG X 999      48.238 125.911  23.649  1.00  0.00     0.042 C 
HETATM   14  C13 LIG X 999      49.668 125.421  23.409  1.00  0.00     0.006 C 
HETATM   15  C12 LIG X 999      49.812 124.879  21.992  1.00  0.00     0.020 C 
HETATM   16  N4  LIG X 999      42.825 123.251  22.380  1.00  0.00    -0.067 N 
HETATM   17  C16 LIG X 999      42.274 123.960  21.201  1.00  0.00     0.272 C 
HETATM   18  C17 LIG X 999      41.761 122.431  22.999  1.00  0.00     0.272 C 
BRANCH  12  19
HETATM   19  S1  LIG X 999      48.946 123.255  19.983  1.00  0.00    -0.147 SA
BRANCH  19  20
HETATM   20  C8  LIG X 999      50.573 122.432  19.955  1.00  0.00     0.168 C 
BRANCH  20  21
HETATM   21  C9  LIG X 999      51.457 123.086  18.987  1.00  0.00    -0.097 C 
HETATM   22  C10 LIG X 999      52.189 123.627  18.194  1.00  0.00    -0.110 C 
HETATM   23  C11 LIG X 999      53.077 124.281  17.232  1.00  0.00     0.112 C 
ENDBRANCH  20  21
ENDBRANCH  19  20
ENDBRANCH  12  19
ENDBRANCH   1   4
TORSDOF 4
