REMARK VINA RESULT:      -5.8      2.618      4.746
REMARK  1 active torsions:
REMARK  status: ('A' for Active; 'I' for Inactive)
REMARK    1  A    between atoms: N1_2  and  C1_3 
ROOT
HETATM    1  C1  LIG X 999      43.157 131.827  17.625  1.00  0.00     0.143 C 
HETATM    2  N2  LIG X 999      44.265 131.121  17.959  1.00  0.00    -0.229 NA
HETATM    3  C2  LIG X 999      45.167 130.705  17.033  1.00  0.00     0.070 C 
HETATM    4  C3  LIG X 999      46.242 129.926  17.459  1.00  0.00     0.033 C 
HETATM    5  C4  LIG X 999      47.186 129.469  16.550  1.00  0.00     0.014 C 
HETATM    6  C5  LIG X 999      47.134 129.876  15.214  1.00  0.00    -0.025 C 
HETATM    7  C6  LIG X 999      48.161 129.486  14.339  1.00  0.00     0.012 C 
HETATM    8  C7  LIG X 999      48.206 129.986  13.040  1.00  0.00     0.001 C 
HETATM    9  C8  LIG X 999      47.252 130.907  12.618  1.00  0.00     0.001 C 
HETATM   10  C9  LIG X 999      46.216 131.293  13.472  1.00  0.00     0.013 C 
HETATM   11  C10 LIG X 999      46.080 130.723  14.761  1.00  0.00    -0.013 C 
HETATM   12  C11 LIG X 999      45.005 131.039  15.658  1.00  0.00     0.010 C 
HETATM   13  C12 LIG X 999      43.754 131.632  15.283  1.00  0.00    -0.045 C 
HETATM   14  C13 LIG X 999      43.225 131.682  13.870  1.00  0.00     0.049 C 
HETATM   15  C14 LIG X 999      42.879 132.080  16.285  1.00  0.00     0.059 C 
ENDROOT
BRANCH   1  16
HETATM   16  N1  LIG X 999      42.339 132.225  18.544  1.00  0.00    -0.282 NA
HETATM   17  H1  LIG X 999      41.983 131.575  19.280  1.00  0.00     0.188 HD
ENDBRANCH   1  16
TORSDOF 1
