REMARK VINA RESULT:      -4.1      0.000      0.000
REMARK  2 active torsions:
REMARK  status: ('A' for Active; 'I' for Inactive)
REMARK    1  A    between atoms: C4_4  and  O1_5 
REMARK    2  A    between atoms: C10_11  and  N1_12 
ROOT
HETATM    1  N1  LIG X 999      45.676 126.818  22.268  1.00  0.00    -0.072 NA
HETATM    2  N2  LIG X 999      45.006 127.739  22.736  1.00  0.00    -0.162 NA
HETATM    3  N3  LIG X 999      44.336 128.660  23.202  1.00  0.00     0.068 N 
ENDROOT
BRANCH   1   4
HETATM    4  C10 LIG X 999      45.469 125.449  22.648  1.00  0.00     0.101 C 
HETATM    5  C9  LIG X 999      46.292 124.467  22.055  1.00  0.00     0.007 C 
HETATM    6  C8  LIG X 999      45.999 123.125  21.858  1.00  0.00    -0.022 C 
HETATM    7  C12 LIG X 999      47.690 124.716  21.621  1.00  0.00     0.278 C 
HETATM    8  C7  LIG X 999      44.736 122.522  21.923  1.00  0.00     0.012 C 
HETATM    9  C15 LIG X 999      47.246 122.376  21.562  1.00  0.00     0.276 C 
HETATM   10  C6  LIG X 999      43.564 123.210  21.589  1.00  0.00     0.037 C 
HETATM   11  C4  LIG X 999      42.369 123.104  22.330  1.00  0.00     0.068 C 
HETATM   12  C3  LIG X 999      42.350 122.881  23.722  1.00  0.00     0.037 C 
HETATM   13  C2  LIG X 999      43.398 123.149  24.624  1.00  0.00     0.003 C 
HETATM   14  C1  LIG X 999      44.485 123.997  24.374  1.00  0.00     0.002 C 
HETATM   15  C11 LIG X 999      44.418 125.107  23.523  1.00  0.00     0.035 C 
HETATM   16  N4  LIG X 999      48.351 123.380  21.587  1.00  0.00    -0.067 N 
HETATM   17  C13 LIG X 999      49.213 123.252  20.391  1.00  0.00     0.272 C 
HETATM   18  C14 LIG X 999      49.179 123.195  22.804  1.00  0.00     0.272 C 
BRANCH  11  19
HETATM   19  O1  LIG X 999      41.124 123.259  21.701  1.00  0.00    -0.356 OA
HETATM   20  C5  LIG X 999      39.899 123.497  22.388  1.00  0.00     0.210 C 
ENDBRANCH  11  19
ENDBRANCH   1   4
TORSDOF 2
