REMARK VINA RESULT:      -7.1      0.000      0.000
REMARK  7 active torsions:
REMARK  status: ('A' for Active; 'I' for Inactive)
REMARK    1  A    between atoms: N1_2  and  C2_3 
REMARK    2  A    between atoms: C2_3  and  C4_5 
REMARK    3  A    between atoms: C4_5  and  C5_6 
REMARK    4  A    between atoms: C5_6  and  C6_7 
REMARK    5  A    between atoms: C6_7  and  C7_8 
REMARK    6  A    between atoms: C7_8  and  N2_9 
REMARK    7  A    between atoms: N2_9  and  C8_10 
ROOT
HETATM    1  C8  LIG X 999      44.186 129.945  22.748  1.00  0.00     0.226 C 
HETATM    2  C9  LIG X 999      45.001 128.833  22.528  1.00  0.00     0.065 C 
HETATM    3  C10 LIG X 999      44.557 127.546  22.872  1.00  0.00    -0.045 C 
HETATM    4  C11 LIG X 999      45.608 126.464  22.880  1.00  0.00     0.049 C 
HETATM    5  C12 LIG X 999      43.207 127.366  23.316  1.00  0.00     0.010 C 
HETATM    6  C13 LIG X 999      42.475 128.547  23.632  1.00  0.00     0.070 C 
HETATM    7  C14 LIG X 999      41.244 128.475  24.283  1.00  0.00     0.033 C 
HETATM    8  C15 LIG X 999      40.698 127.246  24.625  1.00  0.00     0.014 C 
HETATM    9  C16 LIG X 999      41.321 126.062  24.223  1.00  0.00    -0.025 C 
HETATM   10  C17 LIG X 999      40.692 124.834  24.488  1.00  0.00     0.012 C 
HETATM   11  C18 LIG X 999      41.222 123.649  23.983  1.00  0.00     0.001 C 
HETATM   12  C19 LIG X 999      42.357 123.683  23.179  1.00  0.00     0.001 C 
HETATM   13  C20 LIG X 999      43.001 124.896  22.918  1.00  0.00     0.013 C 
HETATM   14  C21 LIG X 999      42.551 126.103  23.503  1.00  0.00    -0.013 C 
HETATM   15  N3  LIG X 999      42.970 129.774  23.324  1.00  0.00    -0.224 NA
ENDROOT
BRANCH   1  16
HETATM   16  N2  LIG X 999      44.633 131.269  22.399  1.00  0.00    -0.028 N 
HETATM   17  H17 LIG X 999      45.378 131.567  23.070  1.00  0.00     0.285 HD
HETATM   18  H18 LIG X 999      43.841 131.949  22.487  1.00  0.00     0.285 HD
BRANCH  16  19
HETATM   19  C7  LIG X 999      45.177 131.308  21.032  1.00  0.00     0.240 C 
BRANCH  19  20
HETATM   20  C6  LIG X 999      44.067 131.358  19.967  1.00  0.00     0.028 C 
BRANCH  20  21
HETATM   21  C5  LIG X 999      44.641 131.700  18.587  1.00  0.00     0.004 C 
BRANCH  21  22
HETATM   22  C4  LIG X 999      45.568 130.580  18.084  1.00  0.00     0.035 C 
BRANCH  22  23
HETATM   23  C2  LIG X 999      45.746 130.566  16.547  1.00  0.00     0.216 C 
HETATM   24  C3  LIG X 999      45.820 131.998  15.987  1.00  0.00     0.042 C 
BRANCH  23  25
HETATM   25  N1  LIG X 999      46.944 129.788  16.170  1.00  0.00     0.083 N 
HETATM   26  C1  LIG X 999      47.106 129.696  14.716  1.00  0.00     0.307 C 
HETATM   27  H4  LIG X 999      46.821 128.806  16.514  1.00  0.00     0.315 HD
ENDBRANCH  23  25
ENDBRANCH  22  23
ENDBRANCH  21  22
ENDBRANCH  20  21
ENDBRANCH  19  20
ENDBRANCH  16  19
ENDBRANCH   1  16
TORSDOF 7
