REMARK VINA RESULT:      -5.1      7.128      8.320
REMARK  1 active torsions:
REMARK  status: ('A' for Active; 'I' for Inactive)
REMARK    1  A    between atoms: C10_11  and  N2_12 
ROOT
HETATM    1  N2  LIG X 999      46.884 125.726  22.055  1.00  0.00    -0.214 NA
HETATM    2  C11 LIG X 999      47.413 124.625  21.697  1.00  0.00     0.165 C 
HETATM    3  S1  LIG X 999      48.082 123.231  21.243  1.00  0.00    -0.055 SA
ENDROOT
BRANCH   1   4
HETATM    4  C10 LIG X 999      45.525 125.857  22.500  1.00  0.00     0.152 C 
HETATM    5  N1  LIG X 999      44.716 124.774  22.434  1.00  0.00    -0.229 NA
HETATM    6  C9  LIG X 999      43.411 124.810  22.807  1.00  0.00     0.070 C 
HETATM    7  C8  LIG X 999      42.677 123.625  22.764  1.00  0.00     0.033 C 
HETATM    8  C15 LIG X 999      42.814 126.024  23.252  1.00  0.00     0.010 C 
HETATM    9  C7  LIG X 999      41.342 123.607  23.141  1.00  0.00     0.014 C 
HETATM   10  C5  LIG X 999      40.684 124.799  23.463  1.00  0.00    -0.025 C 
HETATM   11  C4  LIG X 999      41.394 126.035  23.458  1.00  0.00    -0.013 C 
HETATM   12  C6  LIG X 999      39.308 124.769  23.736  1.00  0.00     0.012 C 
HETATM   13  C3  LIG X 999      40.628 127.222  23.552  1.00  0.00     0.013 C 
HETATM   14  C2  LIG X 999      39.256 127.176  23.809  1.00  0.00     0.001 C 
HETATM   15  C1  LIG X 999      38.602 125.954  23.929  1.00  0.00     0.001 C 
HETATM   16  C13 LIG X 999      43.700 127.124  23.494  1.00  0.00    -0.045 C 
HETATM   17  C12 LIG X 999      45.029 127.046  23.049  1.00  0.00     0.060 C 
HETATM   18  C14 LIG X 999      43.351 128.325  24.338  1.00  0.00     0.049 C 
ENDBRANCH   1   4
TORSDOF 1
