MODEL 1
REMARK VINA RESULT:      -8.6      0.000      0.000
REMARK  2 active torsions:
REMARK  status: ('A' for Active; 'I' for Inactive)
REMARK    1  A    between atoms: C3_3  and  S1_4 
REMARK    2  A    between atoms: S1_4  and  C4_5 
ROOT
HETATM    1  C1  LIG X 999      47.612 131.036  12.985  1.00  0.00     0.013 C 
HETATM    2  C2  LIG X 999      46.767 130.624  13.740  1.00  0.00    -0.107 C 
HETATM    3  C3  LIG X 999      45.738 130.124  14.655  1.00  0.00     0.172 C 
ENDROOT
BRANCH   3   4
HETATM    4  S1  LIG X 999      44.485 131.413  14.964  1.00  0.00    -0.118 SA
BRANCH   4   5
HETATM    5  C4  LIG X 999      44.581 131.297  16.754  1.00  0.00     0.002 A 
HETATM    6  C5  LIG X 999      45.709 130.728  17.357  1.00  0.00     0.019 A 
HETATM    7  C6  LIG X 999      45.792 130.635  18.749  1.00  0.00     0.013 A 
HETATM    8  C7  LIG X 999      44.747 131.115  19.551  1.00  0.00    -0.026 A 
HETATM    9  C8  LIG X 999      44.818 131.025  20.950  1.00  0.00     0.012 A 
HETATM   10  C12 LIG X 999      43.607 131.699  18.944  1.00  0.00    -0.025 A 
HETATM   11  C9  LIG X 999      43.769 131.508  21.739  1.00  0.00     0.001 A 
HETATM   12  C10 LIG X 999      42.645 132.083  21.138  1.00  0.00     0.001 A 
HETATM   13  C11 LIG X 999      42.562 132.179  19.746  1.00  0.00     0.012 A 
HETATM   14  C13 LIG X 999      43.537 131.788  17.545  1.00  0.00     0.030 A 
ENDBRANCH   4   5
ENDBRANCH   3   4
TORSDOF 2
ENDMDL
MODEL 2
REMARK VINA RESULT:      -8.4      0.818      2.000
REMARK  2 active torsions:
REMARK  status: ('A' for Active; 'I' for Inactive)
REMARK    1  A    between atoms: C3_3  and  S1_4 
REMARK    2  A    between atoms: S1_4  and  C4_5 
ROOT
HETATM    1  C1  LIG X 999      47.623 130.948  12.825  1.00  0.00     0.013 C 
HETATM    2  C2  LIG X 999      47.049 131.217  13.850  1.00  0.00    -0.107 C 
HETATM    3  C3  LIG X 999      46.349 131.541  15.096  1.00  0.00     0.172 C 
ENDROOT
BRANCH   3   4
HETATM    4  S1  LIG X 999      44.544 131.430  14.856  1.00  0.00    -0.118 SA
BRANCH   4   5
HETATM    5  C4  LIG X 999      44.149 131.515  16.605  1.00  0.00     0.002 A 
HETATM    6  C5  LIG X 999      42.861 131.881  17.013  1.00  0.00     0.019 A 
HETATM    7  C6  LIG X 999      42.544 131.950  18.372  1.00  0.00     0.013 A 
HETATM    8  C7  LIG X 999      43.515 131.646  19.338  1.00  0.00    -0.026 A 
HETATM    9  C8  LIG X 999      43.210 131.714  20.706  1.00  0.00     0.012 A 
HETATM   10  C12 LIG X 999      44.818 131.268  18.928  1.00  0.00    -0.025 A 
HETATM   11  C9  LIG X 999      44.187 131.408  21.659  1.00  0.00     0.001 A 
HETATM   12  C10 LIG X 999      45.472 131.036  21.254  1.00  0.00     0.001 A 
HETATM   13  C11 LIG X 999      45.789 130.965  19.894  1.00  0.00     0.012 A 
HETATM   14  C13 LIG X 999      45.123 131.202  17.560  1.00  0.00     0.030 A 
ENDBRANCH   4   5
ENDBRANCH   3   4
TORSDOF 2
ENDMDL
MODEL 3
REMARK VINA RESULT:      -7.7      1.688      6.522
REMARK  2 active torsions:
REMARK  status: ('A' for Active; 'I' for Inactive)
REMARK    1  A    between atoms: C3_3  and  S1_4 
REMARK    2  A    between atoms: S1_4  and  C4_5 
ROOT
HETATM    1  C1  LIG X 999      42.875 131.719  21.705  1.00  0.00     0.013 C 
HETATM    2  C2  LIG X 999      43.574 131.801  20.726  1.00  0.00    -0.107 C 
HETATM    3  C3  LIG X 999      44.421 131.897  19.534  1.00  0.00     0.172 C 
ENDROOT
BRANCH   3   4
HETATM    4  S1  LIG X 999      45.278 130.315  19.238  1.00  0.00    -0.118 SA
BRANCH   4   5
HETATM    5  C4  LIG X 999      45.731 130.698  17.543  1.00  0.00     0.002 A 
HETATM    6  C5  LIG X 999      45.284 131.885  16.952  1.00  0.00     0.019 A 
HETATM    7  C6  LIG X 999      45.632 132.192  15.634  1.00  0.00     0.013 A 
HETATM    8  C7  LIG X 999      46.437 131.313  14.895  1.00  0.00    -0.026 A 
HETATM    9  C8  LIG X 999      46.791 131.607  13.570  1.00  0.00     0.012 A 
HETATM   10  C12 LIG X 999      46.897 130.113  15.493  1.00  0.00    -0.025 A 
HETATM   11  C9  LIG X 999      47.595 130.723  12.844  1.00  0.00     0.001 A 
HETATM   12  C10 LIG X 999      48.048 129.540  13.435  1.00  0.00     0.001 A 
HETATM   13  C11 LIG X 999      47.702 129.233  14.755  1.00  0.00     0.012 A 
HETATM   14  C13 LIG X 999      46.542 129.818  16.818  1.00  0.00     0.030 A 
ENDBRANCH   4   5
ENDBRANCH   3   4
TORSDOF 2
ENDMDL
MODEL 4
REMARK VINA RESULT:      -7.7      1.812      6.065
REMARK  2 active torsions:
REMARK  status: ('A' for Active; 'I' for Inactive)
REMARK    1  A    between atoms: C3_3  and  S1_4 
REMARK    2  A    between atoms: S1_4  and  C4_5 
ROOT
HETATM    1  C1  LIG X 999      42.492 131.903  23.787  1.00  0.00     0.013 C 
HETATM    2  C2  LIG X 999      42.893 131.547  22.707  1.00  0.00    -0.107 C 
HETATM    3  C3  LIG X 999      43.383 131.117  21.395  1.00  0.00     0.172 C 
ENDROOT
BRANCH   3   4
HETATM    4  S1  LIG X 999      42.762 132.233  20.092  1.00  0.00    -0.118 SA
BRANCH   4   5
HETATM    5  C4  LIG X 999      43.887 131.635  18.826  1.00  0.00     0.002 A 
HETATM    6  C5  LIG X 999      45.074 130.991  19.194  1.00  0.00     0.019 A 
HETATM    7  C6  LIG X 999      45.955 130.522  18.216  1.00  0.00     0.013 A 
HETATM    8  C7  LIG X 999      45.653 130.690  16.857  1.00  0.00    -0.026 A 
HETATM    9  C8  LIG X 999      46.530 130.226  15.865  1.00  0.00     0.012 A 
HETATM   10  C12 LIG X 999      44.448 131.335  16.481  1.00  0.00    -0.025 A 
HETATM   11  C9  LIG X 999      46.217 130.399  14.513  1.00  0.00     0.001 A 
HETATM   12  C10 LIG X 999      45.029 131.036  14.144  1.00  0.00     0.001 A 
HETATM   13  C11 LIG X 999      44.145 131.504  15.121  1.00  0.00     0.012 A 
HETATM   14  C13 LIG X 999      43.571 131.800  17.473  1.00  0.00     0.030 A 
ENDBRANCH   4   5
ENDBRANCH   3   4
TORSDOF 2
ENDMDL
MODEL 5
REMARK VINA RESULT:      -7.6      1.919      6.348
REMARK  2 active torsions:
REMARK  status: ('A' for Active; 'I' for Inactive)
REMARK    1  A    between atoms: C3_3  and  S1_4 
REMARK    2  A    between atoms: S1_4  and  C4_5 
ROOT
HETATM    1  C1  LIG X 999      42.947 131.709  23.891  1.00  0.00     0.013 C 
HETATM    2  C2  LIG X 999      43.093 131.566  22.702  1.00  0.00    -0.107 C 
HETATM    3  C3  LIG X 999      43.271 131.389  21.259  1.00  0.00     0.172 C 
ENDROOT
BRANCH   3   4
HETATM    4  S1  LIG X 999      45.019 131.032  20.877  1.00  0.00    -0.118 SA
BRANCH   4   5
HETATM    5  C4  LIG X 999      44.814 131.139  19.096  1.00  0.00     0.002 A 
HETATM    6  C5  LIG X 999      43.666 131.733  18.559  1.00  0.00     0.019 A 
HETATM    7  C6  LIG X 999      43.498 131.820  17.175  1.00  0.00     0.013 A 
HETATM    8  C7  LIG X 999      44.483 131.317  16.313  1.00  0.00    -0.026 A 
HETATM    9  C8  LIG X 999      44.326 131.397  14.921  1.00  0.00     0.012 A 
HETATM   10  C12 LIG X 999      45.651 130.722  16.853  1.00  0.00    -0.025 A 
HETATM   11  C9  LIG X 999      45.316 130.892  14.072  1.00  0.00     0.001 A 
HETATM   12  C10 LIG X 999      46.467 130.305  14.606  1.00  0.00     0.001 A 
HETATM   13  C11 LIG X 999      46.636 130.218  15.991  1.00  0.00     0.012 A 
HETATM   14  C13 LIG X 999      45.807 130.642  18.245  1.00  0.00     0.030 A 
ENDBRANCH   4   5
ENDBRANCH   3   4
TORSDOF 2
ENDMDL
MODEL 6
REMARK VINA RESULT:      -7.6      1.369      6.253
REMARK  2 active torsions:
REMARK  status: ('A' for Active; 'I' for Inactive)
REMARK    1  A    between atoms: C3_3  and  S1_4 
REMARK    2  A    between atoms: S1_4  and  C4_5 
ROOT
HETATM    1  C1  LIG X 999      42.831 131.648  21.567  1.00  0.00     0.013 C 
HETATM    2  C2  LIG X 999      43.597 131.682  20.636  1.00  0.00    -0.107 C 
HETATM    3  C3  LIG X 999      44.526 131.726  19.504  1.00  0.00     0.172 C 
ENDROOT
BRANCH   3   4
HETATM    4  S1  LIG X 999      43.607 131.904  17.938  1.00  0.00    -0.118 SA
BRANCH   4   5
HETATM    5  C4  LIG X 999      44.883 131.153  16.922  1.00  0.00     0.002 A 
HETATM    6  C5  LIG X 999      45.614 130.064  17.411  1.00  0.00     0.019 A 
HETATM    7  C6  LIG X 999      46.609 129.474  16.627  1.00  0.00     0.013 A 
HETATM    8  C7  LIG X 999      46.878 129.966  15.341  1.00  0.00    -0.026 A 
HETATM    9  C8  LIG X 999      47.876 129.384  14.545  1.00  0.00     0.012 A 
HETATM   10  C12 LIG X 999      46.135 131.065  14.841  1.00  0.00    -0.025 A 
HETATM   11  C9  LIG X 999      48.134 129.885  13.265  1.00  0.00     0.001 A 
HETATM   12  C10 LIG X 999      47.401 130.968  12.773  1.00  0.00     0.001 A 
HETATM   13  C11 LIG X 999      46.404 131.558  13.556  1.00  0.00     0.012 A 
HETATM   14  C13 LIG X 999      45.138 131.647  15.638  1.00  0.00     0.030 A 
ENDBRANCH   4   5
ENDBRANCH   3   4
TORSDOF 2
ENDMDL
MODEL 7
REMARK VINA RESULT:      -6.2      2.714      6.375
REMARK  2 active torsions:
REMARK  status: ('A' for Active; 'I' for Inactive)
REMARK    1  A    between atoms: C3_3  and  S1_4 
REMARK    2  A    between atoms: S1_4  and  C4_5 
ROOT
HETATM    1  C1  LIG X 999      44.097 128.246  24.160  1.00  0.00     0.013 C 
HETATM    2  C2  LIG X 999      43.412 129.130  23.709  1.00  0.00    -0.107 C 
HETATM    3  C3  LIG X 999      42.583 130.205  23.158  1.00  0.00     0.172 C 
ENDROOT
BRANCH   3   4
HETATM    4  S1  LIG X 999      43.562 131.735  22.987  1.00  0.00    -0.118 SA
BRANCH   4   5
HETATM    5  C4  LIG X 999      43.584 131.705  21.191  1.00  0.00     0.002 A 
HETATM    6  C5  LIG X 999      42.489 132.196  20.471  1.00  0.00     0.019 A 
HETATM    7  C6  LIG X 999      42.498 132.177  19.074  1.00  0.00     0.013 A 
HETATM    8  C7  LIG X 999      43.608 131.669  18.383  1.00  0.00    -0.026 A 
HETATM    9  C8  LIG X 999      43.628 131.642  16.980  1.00  0.00     0.012 A 
HETATM   10  C12 LIG X 999      44.721 131.178  19.109  1.00  0.00    -0.025 A 
HETATM   11  C9  LIG X 999      44.742 131.134  16.304  1.00  0.00     0.001 A 
HETATM   12  C10 LIG X 999      45.839 130.650  17.021  1.00  0.00     0.001 A 
HETATM   13  C11 LIG X 999      45.832 130.670  18.419  1.00  0.00     0.012 A 
HETATM   14  C13 LIG X 999      44.700 131.204  20.512  1.00  0.00     0.030 A 
ENDBRANCH   4   5
ENDBRANCH   3   4
TORSDOF 2
ENDMDL
MODEL 8
REMARK VINA RESULT:      -5.8      1.797      2.686
REMARK  2 active torsions:
REMARK  status: ('A' for Active; 'I' for Inactive)
REMARK    1  A    between atoms: C3_3  and  S1_4 
REMARK    2  A    between atoms: S1_4  and  C4_5 
ROOT
HETATM    1  C1  LIG X 999      45.000 129.137  15.041  1.00  0.00     0.013 C 
HETATM    2  C2  LIG X 999      45.433 129.731  15.996  1.00  0.00    -0.107 C 
HETATM    3  C3  LIG X 999      45.957 130.452  17.160  1.00  0.00     0.172 C 
ENDROOT
BRANCH   3   4
HETATM    4  S1  LIG X 999      44.843 131.826  17.606  1.00  0.00    -0.118 SA
BRANCH   4   5
HETATM    5  C4  LIG X 999      44.658 131.325  19.321  1.00  0.00     0.002 A 
HETATM    6  C5  LIG X 999      45.553 130.407  19.881  1.00  0.00     0.019 A 
HETATM    7  C6  LIG X 999      45.416 130.012  21.214  1.00  0.00     0.013 A 
HETATM    8  C7  LIG X 999      44.383 130.538  22.002  1.00  0.00    -0.026 A 
HETATM    9  C8  LIG X 999      44.233 130.148  23.342  1.00  0.00     0.012 A 
HETATM   10  C12 LIG X 999      43.478 131.473  21.440  1.00  0.00    -0.025 A 
HETATM   11  C9  LIG X 999      43.198 130.680  24.117  1.00  0.00     0.001 A 
HETATM   12  C10 LIG X 999      42.307 131.602  23.562  1.00  0.00     0.001 A 
HETATM   13  C11 LIG X 999      42.444 132.000  22.228  1.00  0.00     0.012 A 
HETATM   14  C13 LIG X 999      43.628 131.863  20.100  1.00  0.00     0.030 A 
ENDBRANCH   4   5
ENDBRANCH   3   4
TORSDOF 2
ENDMDL
MODEL 9
REMARK VINA RESULT:      -5.8      1.844      3.469
REMARK  2 active torsions:
REMARK  status: ('A' for Active; 'I' for Inactive)
REMARK    1  A    between atoms: C3_3  and  S1_4 
REMARK    2  A    between atoms: S1_4  and  C4_5 
ROOT
HETATM    1  C1  LIG X 999      45.622 131.589  14.714  1.00  0.00     0.013 C 
HETATM    2  C2  LIG X 999      45.155 131.581  15.825  1.00  0.00    -0.107 C 
HETATM    3  C3  LIG X 999      44.591 131.574  17.178  1.00  0.00     0.172 C 
ENDROOT
BRANCH   3   4
HETATM    4  S1  LIG X 999      45.739 130.759  18.338  1.00  0.00    -0.118 SA
BRANCH   4   5
HETATM    5  C4  LIG X 999      44.724 131.049  19.790  1.00  0.00     0.002 A 
HETATM    6  C5  LIG X 999      43.658 131.954  19.729  1.00  0.00     0.019 A 
HETATM    7  C6  LIG X 999      42.863 132.185  20.854  1.00  0.00     0.013 A 
HETATM    8  C7  LIG X 999      43.125 131.507  22.053  1.00  0.00    -0.026 A 
HETATM    9  C8  LIG X 999      42.335 131.732  23.191  1.00  0.00     0.012 A 
HETATM   10  C12 LIG X 999      44.199 130.585  22.117  1.00  0.00    -0.025 A 
HETATM   11  C9  LIG X 999      42.607 131.049  24.381  1.00  0.00     0.001 A 
HETATM   12  C10 LIG X 999      43.666 130.140  24.443  1.00  0.00     0.001 A 
HETATM   13  C11 LIG X 999      44.462 129.906  23.316  1.00  0.00     0.012 A 
HETATM   14  C13 LIG X 999      44.989 130.360  20.979  1.00  0.00     0.030 A 
ENDBRANCH   4   5
ENDBRANCH   3   4
TORSDOF 2
ENDMDL
