REMARK VINA RESULT:      -4.6      9.179      9.928
REMARK  1 active torsions:
REMARK  status: ('A' for Active; 'I' for Inactive)
REMARK    1  A    between atoms: C13_15  and  N2_16 
ROOT
HETATM    1  N1  LIG X 999      51.698 122.375  16.748  1.00  0.00    -0.191 NA
HETATM    2  C1  LIG X 999      51.377 122.824  17.765  1.00  0.00     0.109 C 
HETATM    3  C2  LIG X 999      50.978 123.383  19.029  1.00  0.00     0.113 A 
HETATM    4  S1  LIG X 999      49.495 123.081  19.759  1.00  0.00    -0.076 SA
HETATM    5  C3  LIG X 999      49.742 124.144  21.033  1.00  0.00     0.019 A 
HETATM    6  C4  LIG X 999      48.834 124.447  22.040  1.00  0.00     0.021 A 
HETATM    7  C5  LIG X 999      49.197 125.386  23.008  1.00  0.00     0.013 A 
HETATM    8  C6  LIG X 999      50.483 125.963  22.997  1.00  0.00    -0.025 A 
HETATM    9  C7  LIG X 999      50.849 126.856  24.017  1.00  0.00     0.012 A 
HETATM   10  C8  LIG X 999      52.145 127.369  24.072  1.00  0.00     0.001 A 
HETATM   11  C9  LIG X 999      53.094 126.973  23.132  1.00  0.00     0.001 A 
HETATM   12  C10 LIG X 999      52.746 126.092  22.104  1.00  0.00     0.013 A 
HETATM   13  C11 LIG X 999      51.424 125.618  21.980  1.00  0.00    -0.012 A 
HETATM   14  C12 LIG X 999      50.999 124.744  20.942  1.00  0.00     0.020 A 
HETATM   15  C13 LIG X 999      51.679 124.347  19.760  1.00  0.00     0.066 A 
ENDROOT
BRANCH  15  16
HETATM   16  N2  LIG X 999      52.843 124.988  19.227  1.00  0.00    -0.397 N 
HETATM   17  H7  LIG X 999      52.748 125.811  18.592  1.00  0.00     0.156 HD
HETATM   18  H8  LIG X 999      53.780 124.820  19.654  1.00  0.00     0.156 HD
ENDBRANCH  15  16
TORSDOF 1
