REMARK VINA RESULT:      -5.3      3.967      4.900
REMARK  6 active torsions:
REMARK  status: ('A' for Active; 'I' for Inactive)
REMARK    1  A    between atoms: C8_8  and  O1_9 
REMARK    2  A    between atoms: O1_9  and  C9_10 
REMARK    3  A    between atoms: C9_10  and  C10_11 
REMARK    4  A    between atoms: C10_11  and  C11_12 
REMARK    5  A    between atoms: C11_12  and  N1_13 
REMARK    6  A    between atoms: C13_18  and  N4_19 
ROOT
HETATM    1  N1  LIG X 999      43.625 131.514  20.529  1.00  0.00    -0.116 NA
HETATM    2  N2  LIG X 999      42.835 131.827  19.638  1.00  0.00    -0.168 NA
HETATM    3  N3  LIG X 999      42.046 132.140  18.747  1.00  0.00     0.068 N 
ENDROOT
BRANCH   1   4
HETATM    4  C11 LIG X 999      43.170 131.301  21.896  1.00  0.00     0.191 C 
BRANCH   4   5
HETATM    5  C10 LIG X 999      44.106 130.339  22.634  1.00  0.00     0.051 C 
BRANCH   5   6
HETATM    6  C9  LIG X 999      43.317 129.280  23.404  1.00  0.00     0.170 C 
BRANCH   6   7
HETATM    7  O1  LIG X 999      44.221 128.345  23.958  1.00  0.00    -0.384 OA
BRANCH   7   8
HETATM    8  C8  LIG X 999      43.697 127.029  23.878  1.00  0.00     0.146 C 
HETATM    9  C7  LIG X 999      42.163 127.094  23.988  1.00  0.00     0.072 C 
HETATM   10  C5  LIG X 999      41.471 125.821  23.557  1.00  0.00    -0.047 A 
HETATM   11  C4  LIG X 999      42.116 124.863  22.736  1.00  0.00    -0.023 A 
HETATM   12  C6  LIG X 999      40.114 125.654  23.878  1.00  0.00     0.008 A 
HETATM   13  C3  LIG X 999      41.388 123.749  22.278  1.00  0.00     0.010 A 
HETATM   14  C13 LIG X 999      43.593 124.963  22.415  1.00  0.00     0.199 C 
HETATM   15  C2  LIG X 999      40.044 123.591  22.618  1.00  0.00     0.001 A 
HETATM   16  C1  LIG X 999      39.409 124.541  23.417  1.00  0.00     0.001 A 
HETATM   17  C12 LIG X 999      44.092 126.416  22.525  1.00  0.00     0.143 C 
HETATM   18 CL1  LIG X 999      45.868 126.489  22.290  1.00  0.00    -0.120 Cl
BRANCH  14  19
HETATM   19  N4  LIG X 999      44.356 124.104  23.319  1.00  0.00    -0.104 NA
HETATM   20  N5  LIG X 999      45.122 123.239  22.891  1.00  0.00    -0.167 NA
HETATM   21  N6  LIG X 999      45.886 122.375  22.464  1.00  0.00     0.068 N 
ENDBRANCH  14  19
ENDBRANCH   7   8
ENDBRANCH   6   7
ENDBRANCH   5   6
ENDBRANCH   4   5
ENDBRANCH   1   4
TORSDOF 6
