REMARK VINA RESULT:      -1.0      7.691      9.166
REMARK  4 active torsions:
REMARK  status: ('A' for Active; 'I' for Inactive)
REMARK    1  A    between atoms: C5_5  and  O1_6 
REMARK    2  A    between atoms: O1_6  and  C6_7 
REMARK       I    between atoms: C6_7  and  N1_9 
REMARK    3  A    between atoms: C9_12  and  N2_13 
REMARK    4  A    between atoms: C11_18  and  N5_19 
ROOT
HETATM    1  N2  LIG X 999      45.973 132.860  21.077  1.00  0.00    -0.068 NA
HETATM    2  N3  LIG X 999      47.054 133.058  21.633  1.00  0.00    -0.162 NA
HETATM    3  N4  LIG X 999      48.132 133.261  22.189  1.00  0.00     0.068 N 
ENDROOT
BRANCH   1   4
HETATM    4  C9  LIG X 999      45.129 131.736  21.382  1.00  0.00     0.151 C 
HETATM    5  C5  LIG X 999      45.250 130.612  20.525  1.00  0.00     0.114 C 
HETATM    6  C4  LIG X 999      44.864 129.288  20.858  1.00  0.00     0.040 C 
HETATM    7  C3  LIG X 999      44.640 128.800  22.148  1.00  0.00     0.003 C 
HETATM    8  C2  LIG X 999      45.303 129.281  23.279  1.00  0.00     0.000 C 
HETATM    9  C1  LIG X 999      44.647 129.470  24.499  1.00  0.00     0.000 C 
HETATM   10  C13 LIG X 999      43.295 129.841  24.625  1.00  0.00     0.002 C 
HETATM   11  C12 LIG X 999      42.504 130.447  23.626  1.00  0.00     0.036 C 
HETATM   12  C11 LIG X 999      42.995 131.114  22.478  1.00  0.00     0.117 C 
HETATM   13  C10 LIG X 999      44.230 131.792  22.480  1.00  0.00     0.100 C 
HETATM   14 CL1  LIG X 999      44.678 132.715  23.921  1.00  0.00    -0.079 Cl
BRANCH   5  15
HETATM   15  O1  LIG X 999      45.822 130.851  19.266  1.00  0.00    -0.259 OA
BRANCH  15  16
HETATM   16  C6  LIG X 999      45.111 131.244  18.123  1.00  0.00     0.367 C 
HETATM   17  O2  LIG X 999      44.162 132.070  18.216  1.00  0.00    -0.238 OA
HETATM   18  N1  LIG X 999      45.505 130.747  16.832  1.00  0.00    -0.336 N 
HETATM   19  C7  LIG X 999      44.780 131.172  15.633  1.00  0.00     0.154 C 
HETATM   20  C8  LIG X 999      46.629 129.812  16.739  1.00  0.00     0.154 C 
ENDBRANCH  15  16
ENDBRANCH   5  15
BRANCH  12  21
HETATM   21  N5  LIG X 999      42.221 131.133  21.267  1.00  0.00    -0.071 NA
HETATM   22  N6  LIG X 999      41.973 132.176  20.659  1.00  0.00    -0.162 NA
HETATM   23  N7  LIG X 999      41.723 133.215  20.051  1.00  0.00     0.068 N 
ENDBRANCH  12  21
ENDBRANCH   1   4
TORSDOF 4
