REMARK VINA RESULT:      -5.8      2.345      4.852
REMARK  1 active torsions:
REMARK  status: ('A' for Active; 'I' for Inactive)
REMARK    1  A    between atoms: C5_8  and  O1_9 
ROOT
HETATM    1  H1  LIG X 999      41.471 132.698  22.912  1.00  0.00     0.187 HD
HETATM    2  N1  LIG X 999      41.636 132.600  21.885  1.00  0.00    -0.300 NA
HETATM    3  C1  LIG X 999      42.722 132.076  21.415  1.00  0.00     0.059 A 
HETATM    4  C2  LIG X 999      43.805 131.579  22.336  1.00  0.00     0.034 A 
HETATM    5  C3  LIG X 999      44.941 131.031  21.845  1.00  0.00     0.035 A 
HETATM    6  C4  LIG X 999      45.096 130.929  20.383  1.00  0.00     0.071 A 
HETATM    7  N2  LIG X 999      46.129 130.425  19.667  1.00  0.00    -0.224 NA
HETATM    8  C5  LIG X 999      45.743 130.582  18.365  1.00  0.00     0.174 A 
HETATM    9  C6  LIG X 999      44.494 131.174  18.280  1.00  0.00     0.030 A 
HETATM   10  C7  LIG X 999      43.657 131.551  17.228  1.00  0.00     0.017 A 
HETATM   11  C8  LIG X 999      42.416 132.147  17.564  1.00  0.00     0.002 A 
HETATM   12  C9  LIG X 999      42.047 132.348  18.924  1.00  0.00     0.015 A 
HETATM   13  C10 LIG X 999      42.932 131.948  19.950  1.00  0.00     0.005 A 
HETATM   14  C11 LIG X 999      44.120 131.376  19.560  1.00  0.00     0.020 A 
ENDROOT
BRANCH   8  15
HETATM   15  O1  LIG X 999      46.518 130.193  17.279  1.00  0.00    -0.344 OA
HETATM   16  H4  LIG X 999      46.763 130.858  16.556  1.00  0.00     0.219 HD
ENDBRANCH   8  15
TORSDOF 1
