REMARK VINA RESULT:      -4.9      5.610      8.375
REMARK  7 active torsions:
REMARK  status: ('A' for Active; 'I' for Inactive)
REMARK    1  A    between atoms: C14_14  and  N1_15 
REMARK    2  A    between atoms: N1_15  and  C15_17 
REMARK    3  A    between atoms: C15_17  and  C16_18 
REMARK    4  A    between atoms: C16_18  and  C17_19 
REMARK    5  A    between atoms: C17_19  and  C18_20 
REMARK    6  A    between atoms: C18_20  and  C19_21 
REMARK    7  A    between atoms: C19_21  and  N2_22 
ROOT
HETATM    1  C1  LIG X 999      53.413 137.652  23.170  1.00  0.00     0.001 C 
HETATM    2  C2  LIG X 999      53.303 136.358  23.670  1.00  0.00     0.001 C 
HETATM    3  C3  LIG X 999      52.152 135.604  23.432  1.00  0.00     0.013 C 
HETATM    4  C4  LIG X 999      51.054 136.149  22.725  1.00  0.00    -0.013 C 
HETATM    5  C5  LIG X 999      51.236 137.426  22.121  1.00  0.00    -0.025 C 
HETATM    6  C6  LIG X 999      52.393 138.179  22.380  1.00  0.00     0.012 C 
HETATM    7  C7  LIG X 999      50.291 137.917  21.217  1.00  0.00     0.014 C 
HETATM    8  C8  LIG X 999      49.198 137.143  20.859  1.00  0.00     0.031 C 
HETATM    9  C9  LIG X 999      48.958 135.909  21.476  1.00  0.00     0.045 C 
HETATM   10  C10 LIG X 999      49.826 135.440  22.502  1.00  0.00     0.008 C 
HETATM   11  C11 LIG X 999      49.377 134.314  23.259  1.00  0.00    -0.045 C 
HETATM   12  C12 LIG X 999      49.908 133.944  24.623  1.00  0.00     0.049 C 
HETATM   13  C13 LIG X 999      48.282 133.569  22.799  1.00  0.00     0.056 C 
HETATM   14  C14 LIG X 999      47.538 133.996  21.687  1.00  0.00     0.101 C 
HETATM   15  N3  LIG X 999      47.873 135.176  21.093  1.00  0.00    -0.342 N 
HETATM   16  H28 LIG X 999      47.281 135.532  20.307  1.00  0.00     0.167 HD
ENDROOT
BRANCH  14  17
HETATM   17  N1  LIG X 999      46.509 133.318  21.230  1.00  0.00    -0.376 N 
HETATM   18  H11 LIG X 999      45.680 133.846  20.870  1.00  0.00     0.161 HD
BRANCH  17  19
HETATM   19  C15 LIG X 999      46.391 131.856  21.173  1.00  0.00     0.121 C 
BRANCH  19  20
HETATM   20  C16 LIG X 999      44.988 131.441  20.712  1.00  0.00     0.020 C 
BRANCH  20  21
HETATM   21  C17 LIG X 999      44.836 131.610  19.192  1.00  0.00     0.004 C 
BRANCH  21  22
HETATM   22  C18 LIG X 999      45.709 130.627  18.391  1.00  0.00     0.035 C 
BRANCH  22  23
HETATM   23  C19 LIG X 999      45.313 130.510  16.905  1.00  0.00     0.216 C 
HETATM   24  C21 LIG X 999      44.263 131.581  16.559  1.00  0.00     0.042 C 
BRANCH  23  25
HETATM   25  N2  LIG X 999      46.515 130.640  16.059  1.00  0.00     0.083 N 
HETATM   26  H21 LIG X 999      47.348 130.885  16.645  1.00  0.00     0.315 HD
HETATM   27  C20 LIG X 999      46.352 131.660  15.020  1.00  0.00     0.307 C 
ENDBRANCH  23  25
ENDBRANCH  22  23
ENDBRANCH  21  22
ENDBRANCH  20  21
ENDBRANCH  19  20
ENDBRANCH  17  19
ENDBRANCH  14  17
TORSDOF 7
