MODEL 1
REMARK VINA RESULT:      -8.7      0.000      0.000
REMARK  2 active torsions:
REMARK  status: ('A' for Active; 'I' for Inactive)
REMARK    1  A    between atoms: C1_1  and  N1_2 
REMARK    2  A    between atoms: C2_5  and  C3_7 
ROOT
HETATM    1  N1  LIG X 999      46.900 131.376  13.961  1.00  0.00    -0.082 NA
HETATM    2  N2  LIG X 999      47.647 130.443  13.665  1.00  0.00    -0.163 NA
HETATM    3  N3  LIG X 999      48.393 129.512  13.370  1.00  0.00     0.068 N 
ENDROOT
BRANCH   1   4
HETATM    4  C1  LIG X 999      46.394 131.507  15.289  1.00  0.00     0.196 C 
HETATM    5  C2  LIG X 999      45.086 131.354  15.531  1.00  0.00     0.137 C 
HETATM    6  O1  LIG X 999      44.230 131.093  14.464  1.00  0.00    -0.190 OA
BRANCH   5   7
HETATM    7  C3  LIG X 999      44.511 131.476  16.896  1.00  0.00     0.003 A 
HETATM    8  C4  LIG X 999      43.154 131.809  17.042  1.00  0.00     0.015 A 
HETATM    9  C5  LIG X 999      42.578 131.925  18.308  1.00  0.00     0.013 A 
HETATM   10  C6  LIG X 999      43.346 131.698  19.457  1.00  0.00    -0.026 A 
HETATM   11  C7  LIG X 999      42.775 131.810  20.735  1.00  0.00     0.012 A 
HETATM   12  C11 LIG X 999      44.711 131.347  19.328  1.00  0.00    -0.025 A 
HETATM   13  C8  LIG X 999      43.552 131.575  21.873  1.00  0.00     0.001 A 
HETATM   14  C9  LIG X 999      44.898 131.225  21.746  1.00  0.00     0.001 A 
HETATM   15  C10 LIG X 999      45.479 131.110  20.479  1.00  0.00     0.012 A 
HETATM   16  C12 LIG X 999      45.283 131.234  18.051  1.00  0.00     0.026 A 
ENDBRANCH   5   7
ENDBRANCH   1   4
TORSDOF 2
ENDMDL
MODEL 2
REMARK VINA RESULT:      -8.4      0.898      2.017
REMARK  2 active torsions:
REMARK  status: ('A' for Active; 'I' for Inactive)
REMARK    1  A    between atoms: C1_1  and  N1_2 
REMARK    2  A    between atoms: C2_5  and  C3_7 
ROOT
HETATM    1  N1  LIG X 999      46.738 131.227  13.744  1.00  0.00    -0.082 NA
HETATM    2  N2  LIG X 999      47.615 130.383  13.554  1.00  0.00    -0.163 NA
HETATM    3  N3  LIG X 999      48.491 129.542  13.364  1.00  0.00     0.068 N 
ENDROOT
BRANCH   1   4
HETATM    4  C1  LIG X 999      46.295 131.528  15.066  1.00  0.00     0.196 C 
HETATM    5  C2  LIG X 999      45.520 130.662  15.731  1.00  0.00     0.137 C 
HETATM    6  O1  LIG X 999      45.134 129.482  15.101  1.00  0.00    -0.190 OA
BRANCH   5   7
HETATM    7  C3  LIG X 999      45.037 130.927  17.111  1.00  0.00     0.003 A 
HETATM    8  C4  LIG X 999      45.841 130.558  18.203  1.00  0.00     0.015 A 
HETATM    9  C5  LIG X 999      45.424 130.799  19.513  1.00  0.00     0.013 A 
HETATM   10  C6  LIG X 999      44.196 131.426  19.759  1.00  0.00    -0.026 A 
HETATM   11  C7  LIG X 999      43.768 131.675  21.073  1.00  0.00     0.012 A 
HETATM   12  C11 LIG X 999      43.380 131.818  18.671  1.00  0.00    -0.025 A 
HETATM   13  C8  LIG X 999      42.543 132.306  21.304  1.00  0.00     0.001 A 
HETATM   14  C9  LIG X 999      41.738 132.696  20.230  1.00  0.00     0.001 A 
HETATM   15  C10 LIG X 999      42.153 132.455  18.917  1.00  0.00     0.012 A 
HETATM   16  C12 LIG X 999      43.806 131.570  17.356  1.00  0.00     0.026 A 
ENDBRANCH   5   7
ENDBRANCH   1   4
TORSDOF 2
ENDMDL
MODEL 3
REMARK VINA RESULT:      -8.3      4.643      6.645
REMARK  2 active torsions:
REMARK  status: ('A' for Active; 'I' for Inactive)
REMARK    1  A    between atoms: C1_1  and  N1_2 
REMARK    2  A    between atoms: C2_5  and  C3_7 
ROOT
HETATM    1  N1  LIG X 999      42.438 132.231  21.707  1.00  0.00    -0.082 NA
HETATM    2  N2  LIG X 999      42.575 131.962  22.901  1.00  0.00    -0.163 NA
HETATM    3  N3  LIG X 999      42.712 131.694  24.093  1.00  0.00     0.068 N 
ENDROOT
BRANCH   1   4
HETATM    4  C1  LIG X 999      43.381 131.763  20.744  1.00  0.00     0.196 C 
HETATM    5  C2  LIG X 999      43.152 131.935  19.436  1.00  0.00     0.137 C 
HETATM    6  O1  LIG X 999      41.969 132.550  19.035  1.00  0.00    -0.190 OA
BRANCH   5   7
HETATM    7  C3  LIG X 999      44.106 131.469  18.396  1.00  0.00     0.003 A 
HETATM    8  C4  LIG X 999      45.250 130.752  18.785  1.00  0.00     0.015 A 
HETATM    9  C5  LIG X 999      46.163 130.292  17.835  1.00  0.00     0.013 A 
HETATM   10  C6  LIG X 999      45.945 130.530  16.472  1.00  0.00    -0.026 A 
HETATM   11  C7  LIG X 999      46.857 130.070  15.509  1.00  0.00     0.012 A 
HETATM   12  C11 LIG X 999      44.791 131.238  16.062  1.00  0.00    -0.025 A 
HETATM   13  C8  LIG X 999      46.625 130.309  14.152  1.00  0.00     0.001 A 
HETATM   14  C9  LIG X 999      45.484 131.005  13.746  1.00  0.00     0.001 A 
HETATM   15  C10 LIG X 999      44.567 131.468  14.695  1.00  0.00     0.012 A 
HETATM   16  C12 LIG X 999      43.878 131.699  17.024  1.00  0.00     0.026 A 
ENDBRANCH   5   7
ENDBRANCH   1   4
TORSDOF 2
ENDMDL
MODEL 4
REMARK VINA RESULT:      -8.2      0.943      1.974
REMARK  2 active torsions:
REMARK  status: ('A' for Active; 'I' for Inactive)
REMARK    1  A    between atoms: C1_1  and  N1_2 
REMARK    2  A    between atoms: C2_5  and  C3_7 
ROOT
HETATM    1  N1  LIG X 999      45.809 131.062  14.000  1.00  0.00    -0.082 NA
HETATM    2  N2  LIG X 999      46.862 131.013  13.364  1.00  0.00    -0.163 NA
HETATM    3  N3  LIG X 999      47.913 130.966  12.728  1.00  0.00     0.068 N 
ENDROOT
BRANCH   1   4
HETATM    4  C1  LIG X 999      45.818 130.982  15.425  1.00  0.00     0.196 C 
HETATM    5  C2  LIG X 999      44.727 131.315  16.126  1.00  0.00     0.137 C 
HETATM    6  O1  LIG X 999      43.600 131.765  15.444  1.00  0.00    -0.190 OA
BRANCH   5   7
HETATM    7  C3  LIG X 999      44.685 131.245  17.610  1.00  0.00     0.003 A 
HETATM    8  C4  LIG X 999      45.768 130.674  18.301  1.00  0.00     0.015 A 
HETATM    9  C5  LIG X 999      45.768 130.598  19.695  1.00  0.00     0.013 A 
HETATM   10  C6  LIG X 999      44.687 131.103  20.429  1.00  0.00    -0.026 A 
HETATM   11  C7  LIG X 999      44.678 131.033  21.831  1.00  0.00     0.012 A 
HETATM   12  C11 LIG X 999      43.596 131.695  19.750  1.00  0.00    -0.025 A 
HETATM   13  C8  LIG X 999      43.597 131.547  22.552  1.00  0.00     0.001 A 
HETATM   14  C9  LIG X 999      42.520 132.134  21.883  1.00  0.00     0.001 A 
HETATM   15  C10 LIG X 999      42.517 132.211  20.487  1.00  0.00     0.012 A 
HETATM   16  C12 LIG X 999      43.603 131.766  18.348  1.00  0.00     0.026 A 
ENDBRANCH   5   7
ENDBRANCH   1   4
TORSDOF 2
ENDMDL
MODEL 5
REMARK VINA RESULT:      -8.0      4.655      6.411
REMARK  2 active torsions:
REMARK  status: ('A' for Active; 'I' for Inactive)
REMARK    1  A    between atoms: C1_1  and  N1_2 
REMARK    2  A    between atoms: C2_5  and  C3_7 
ROOT
HETATM    1  N1  LIG X 999      43.297 131.508  22.174  1.00  0.00    -0.082 NA
HETATM    2  N2  LIG X 999      42.901 130.524  22.800  1.00  0.00    -0.163 NA
HETATM    3  N3  LIG X 999      42.505 129.542  23.424  1.00  0.00     0.068 N 
ENDROOT
BRANCH   1   4
HETATM    4  C1  LIG X 999      43.349 131.489  20.748  1.00  0.00     0.196 C 
HETATM    5  C2  LIG X 999      44.507 131.257  20.119  1.00  0.00     0.137 C 
HETATM    6  O1  LIG X 999      45.659 131.064  20.877  1.00  0.00    -0.190 OA
BRANCH   5   7
HETATM    7  C3  LIG X 999      44.612 131.223  18.636  1.00  0.00     0.003 A 
HETATM    8  C4  LIG X 999      43.584 131.787  17.863  1.00  0.00     0.015 A 
HETATM    9  C5  LIG X 999      43.651 131.781  16.468  1.00  0.00     0.013 A 
HETATM   10  C6  LIG X 999      44.757 131.218  15.818  1.00  0.00    -0.026 A 
HETATM   11  C7  LIG X 999      44.835 131.208  14.416  1.00  0.00     0.012 A 
HETATM   12  C11 LIG X 999      45.808 130.659  16.582  1.00  0.00    -0.025 A 
HETATM   13  C8  LIG X 999      45.947 130.649  13.780  1.00  0.00     0.001 A 
HETATM   14  C9  LIG X 999      46.986 130.099  14.533  1.00  0.00     0.001 A 
HETATM   15  C10 LIG X 999      46.921 130.103  15.930  1.00  0.00     0.012 A 
HETATM   16  C12 LIG X 999      45.731 130.668  17.984  1.00  0.00     0.026 A 
ENDBRANCH   5   7
ENDBRANCH   1   4
TORSDOF 2
ENDMDL
MODEL 6
REMARK VINA RESULT:      -7.8      4.244      6.186
REMARK  2 active torsions:
REMARK  status: ('A' for Active; 'I' for Inactive)
REMARK    1  A    between atoms: C1_1  and  N1_2 
REMARK    2  A    between atoms: C2_5  and  C3_7 
ROOT
HETATM    1  N1  LIG X 999      44.640 131.241  21.673  1.00  0.00    -0.082 NA
HETATM    2  N2  LIG X 999      44.442 130.243  22.366  1.00  0.00    -0.163 NA
HETATM    3  N3  LIG X 999      44.244 129.247  23.058  1.00  0.00     0.068 N 
ENDROOT
BRANCH   1   4
HETATM    4  C1  LIG X 999      45.056 131.110  20.314  1.00  0.00     0.196 C 
HETATM    5  C2  LIG X 999      44.193 131.348  19.318  1.00  0.00     0.137 C 
HETATM    6  O1  LIG X 999      42.883 131.697  19.632  1.00  0.00    -0.190 OA
BRANCH   5   7
HETATM    7  C3  LIG X 999      44.580 131.230  17.888  1.00  0.00     0.003 A 
HETATM    8  C4  LIG X 999      43.737 131.772  16.903  1.00  0.00     0.015 A 
HETATM    9  C5  LIG X 999      44.071 131.688  15.550  1.00  0.00     0.013 A 
HETATM   10  C6  LIG X 999      45.263 131.067  15.154  1.00  0.00    -0.026 A 
HETATM   11  C7  LIG X 999      45.609 130.978  13.797  1.00  0.00     0.012 A 
HETATM   12  C11 LIG X 999      46.130 130.529  16.135  1.00  0.00    -0.025 A 
HETATM   13  C8  LIG X 999      46.804 130.362  13.416  1.00  0.00     0.001 A 
HETATM   14  C9  LIG X 999      47.662 129.833  14.383  1.00  0.00     0.001 A 
HETATM   15  C10 LIG X 999      47.330 129.916  15.739  1.00  0.00     0.012 A 
HETATM   16  C12 LIG X 999      45.786 130.617  17.493  1.00  0.00     0.026 A 
ENDBRANCH   5   7
ENDBRANCH   1   4
TORSDOF 2
ENDMDL
MODEL 7
REMARK VINA RESULT:      -6.1      1.706      2.329
REMARK  2 active torsions:
REMARK  status: ('A' for Active; 'I' for Inactive)
REMARK    1  A    between atoms: C1_1  and  N1_2 
REMARK    2  A    between atoms: C2_5  and  C3_7 
ROOT
HETATM    1  N1  LIG X 999      46.563 130.132  15.989  1.00  0.00    -0.082 NA
HETATM    2  N2  LIG X 999      45.937 130.311  14.943  1.00  0.00    -0.163 NA
HETATM    3  N3  LIG X 999      45.312 130.488  13.899  1.00  0.00     0.068 N 
ENDROOT
BRANCH   1   4
HETATM    4  C1  LIG X 999      45.893 130.154  17.248  1.00  0.00     0.196 C 
HETATM    5  C2  LIG X 999      45.329 131.285  17.692  1.00  0.00     0.137 C 
HETATM    6  O1  LIG X 999      45.432 132.437  16.919  1.00  0.00    -0.190 OA
BRANCH   5   7
HETATM    7  C3  LIG X 999      44.616 131.357  18.995  1.00  0.00     0.003 A 
HETATM    8  C4  LIG X 999      43.464 132.155  19.103  1.00  0.00     0.015 A 
HETATM    9  C5  LIG X 999      42.764 132.241  20.308  1.00  0.00     0.013 A 
HETATM   10  C6  LIG X 999      43.196 131.521  21.428  1.00  0.00    -0.026 A 
HETATM   11  C7  LIG X 999      42.498 131.599  22.644  1.00  0.00     0.012 A 
HETATM   12  C11 LIG X 999      44.346 130.701  21.332  1.00  0.00    -0.025 A 
HETATM   13  C8  LIG X 999      42.937 130.870  23.753  1.00  0.00     0.001 A 
HETATM   14  C9  LIG X 999      44.070 130.059  23.658  1.00  0.00     0.001 A 
HETATM   15  C10 LIG X 999      44.773 129.971  22.454  1.00  0.00     0.012 A 
HETATM   16  C12 LIG X 999      45.045 130.621  20.118  1.00  0.00     0.026 A 
ENDBRANCH   5   7
ENDBRANCH   1   4
TORSDOF 2
ENDMDL
