REMARK VINA RESULT:      -7.5      2.454      5.557
REMARK  1 active torsions:
REMARK  status: ('A' for Active; 'I' for Inactive)
REMARK    1  A    between atoms: C2_5  and  C3_6 
ROOT
HETATM    1  C3  LIG X 999      44.914 131.094  16.863  1.00  0.00     0.028 A 
HETATM    2  C4  LIG X 999      43.659 131.656  16.583  1.00  0.00     0.017 A 
HETATM    3  C5  LIG X 999      43.271 131.923  15.270  1.00  0.00     0.002 A 
HETATM    4  C6  LIG X 999      44.127 131.625  14.211  1.00  0.00     0.012 A 
HETATM    5  C7  LIG X 999      45.373 131.030  14.456  1.00  0.00    -0.025 A 
HETATM    6  C8  LIG X 999      46.215 130.704  13.380  1.00  0.00     0.012 A 
HETATM    7  C9  LIG X 999      47.437 130.072  13.610  1.00  0.00     0.001 A 
HETATM    8  C10 LIG X 999      47.823 129.749  14.910  1.00  0.00     0.001 A 
HETATM    9  C11 LIG X 999      47.001 130.070  15.992  1.00  0.00     0.013 A 
HETATM   10  C12 LIG X 999      45.774 130.741  15.789  1.00  0.00    -0.011 A 
ENDROOT
BRANCH   1  11
HETATM   11  C2  LIG X 999      45.281 130.920  18.284  1.00  0.00     0.177 A 
HETATM   12  O1  LIG X 999      44.987 131.783  19.235  1.00  0.00    -0.258 OA
HETATM   13  C1  LIG X 999      45.527 131.279  20.322  1.00  0.00     0.260 A 
HETATM   14  N1  LIG X 999      45.462 131.829  21.490  1.00  0.00    -0.261 NA
HETATM   15  N3  LIG X 999      46.160 130.123  20.071  1.00  0.00    -0.262 N 
HETATM   16  H1  LIG X 999      44.957 132.733  21.629  1.00  0.00     0.190 HD
HETATM   17  N2  LIG X 999      46.010 129.896  18.779  1.00  0.00    -0.276 N 
HETATM   18  H10 LIG X 999      46.687 129.516  20.739  1.00  0.00     0.190 HD
HETATM   19  H9  LIG X 999      46.424 129.091  18.259  1.00  0.00     0.189 HD
ENDBRANCH   1  11
TORSDOF 1
