REMARK VINA RESULT:      -4.8      9.224      9.952
REMARK  3 active torsions:
REMARK  status: ('A' for Active; 'I' for Inactive)
REMARK    1  A    between atoms: C2_2  and  N1_3 
REMARK    2  A    between atoms: C3_6  and  O1_7 
REMARK    3  A    between atoms: O1_7  and  C4_8 
REMARK       I    between atoms: C4_8  and  N4_10 
ROOT
HETATM    1  N1  LIG X 999      49.524 122.422  20.734  1.00  0.00    -0.070 NA
HETATM    2  N2  LIG X 999      49.932 123.072  19.770  1.00  0.00    -0.162 NA
HETATM    3  N3  LIG X 999      50.347 123.716  18.808  1.00  0.00     0.068 N 
ENDROOT
BRANCH   1   4
HETATM    4  C2  LIG X 999      48.483 122.874  21.614  1.00  0.00     0.128 A 
HETATM    5  C1  LIG X 999      47.159 122.617  21.231  1.00  0.00     0.049 A 
HETATM    6  C13 LIG X 999      46.086 123.012  22.038  1.00  0.00    -0.023 A 
HETATM    7  C8  LIG X 999      46.339 123.694  23.258  1.00  0.00    -0.022 A 
HETATM    8  C12 LIG X 999      44.759 122.747  21.646  1.00  0.00     0.021 A 
HETATM    9  C7  LIG X 999      47.660 123.960  23.639  1.00  0.00     0.052 A 
HETATM   10  C9  LIG X 999      45.263 124.106  24.068  1.00  0.00     0.021 A 
HETATM   11  C3  LIG X 999      48.740 123.548  22.834  1.00  0.00     0.113 A 
HETATM   12  C10 LIG X 999      43.963 123.818  23.648  1.00  0.00    -0.024 A 
HETATM   13  C11 LIG X 999      43.720 123.162  22.480  1.00  0.00    -0.024 A 
HETATM   14  C17 LIG X 999      42.694 124.169  24.321  1.00  0.00     0.276 C 
HETATM   15  C14 LIG X 999      42.266 123.014  22.261  1.00  0.00     0.276 C 
HETATM   16  N5  LIG X 999      41.616 123.512  23.515  1.00  0.00    -0.067 N 
HETATM   17  C15 LIG X 999      40.539 124.477  23.198  1.00  0.00     0.272 C 
HETATM   18  C16 LIG X 999      41.037 122.377  24.273  1.00  0.00     0.272 C 
BRANCH  11  19
HETATM   19  O1  LIG X 999      50.060 123.849  23.205  1.00  0.00    -0.259 OA
BRANCH  19  20
HETATM   20  C4  LIG X 999      50.769 124.987  22.793  1.00  0.00     0.367 C 
HETATM   21  O2  LIG X 999      50.219 126.123  22.821  1.00  0.00    -0.238 OA
HETATM   22  N4  LIG X 999      52.142 124.864  22.382  1.00  0.00    -0.336 N 
HETATM   23  C5  LIG X 999      52.902 126.062  22.013  1.00  0.00     0.154 C 
HETATM   24  C6  LIG X 999      52.754 123.536  22.311  1.00  0.00     0.154 C 
ENDBRANCH  19  20
ENDBRANCH  11  19
ENDBRANCH   1   4
TORSDOF 3
