MODEL 1
REMARK VINA RESULT:      -8.0      0.000      0.000
REMARK  1 active torsions:
REMARK  status: ('A' for Active; 'I' for Inactive)
REMARK    1  A    between atoms: C11_13  and  N2_14 
ROOT
HETATM    1  N2  LIG X 999      47.540 129.512  14.369  1.00  0.00    -0.053 NA
HETATM    2  N3  LIG X 999      47.775 130.223  13.392  1.00  0.00    -0.160 NA
HETATM    3  N4  LIG X 999      48.010 130.932  12.415  1.00  0.00     0.068 N 
ENDROOT
BRANCH   1   4
HETATM    4  C11 LIG X 999      46.710 129.973  15.436  1.00  0.00     0.175 A 
HETATM    5  C10 LIG X 999      45.497 130.628  15.278  1.00  0.00     0.026 A 
HETATM    6  C5  LIG X 999      45.066 130.877  16.537  1.00  0.00     0.017 A 
HETATM    7  C9  LIG X 999      44.736 131.025  14.178  1.00  0.00     0.016 A 
HETATM    8  C4  LIG X 999      45.970 130.400  17.424  1.00  0.00     0.046 A 
HETATM    9  C6  LIG X 999      43.891 131.518  16.850  1.00  0.00     0.005 A 
HETATM   10  C3  LIG X 999      45.745 130.540  18.873  1.00  0.00     0.033 A 
HETATM   11  N5  LIG X 999      47.004 129.831  16.762  1.00  0.00    -0.337 N 
HETATM   12  C2  LIG X 999      44.614 131.157  19.290  1.00  0.00     0.034 A 
HETATM   13  C1  LIG X 999      43.610 131.688  18.301  1.00  0.00     0.059 A 
HETATM   14  N1  LIG X 999      42.529 132.278  18.699  1.00  0.00    -0.300 NA
HETATM   15  H1  LIG X 999      42.314 132.407  19.713  1.00  0.00     0.187 HD
HETATM   16  H7  LIG X 999      47.847 129.381  17.184  1.00  0.00     0.167 HD
HETATM   17  C7  LIG X 999      43.085 131.940  15.772  1.00  0.00     0.015 A 
HETATM   18  C8  LIG X 999      43.512 131.691  14.437  1.00  0.00     0.002 A 
ENDBRANCH   1   4
TORSDOF 1
ENDMDL
MODEL 2
REMARK VINA RESULT:      -7.4      1.900      3.770
REMARK  1 active torsions:
REMARK  status: ('A' for Active; 'I' for Inactive)
REMARK    1  A    between atoms: C11_13  and  N2_14 
ROOT
HETATM    1  N2  LIG X 999      46.331 130.428  16.315  1.00  0.00    -0.053 NA
HETATM    2  N3  LIG X 999      46.502 130.905  15.193  1.00  0.00    -0.160 NA
HETATM    3  N4  LIG X 999      46.673 131.381  14.072  1.00  0.00     0.068 N 
ENDROOT
BRANCH   1   4
HETATM    4  C11 LIG X 999      45.292 130.905  17.171  1.00  0.00     0.175 A 
HETATM    5  C10 LIG X 999      45.345 130.916  18.558  1.00  0.00     0.026 A 
HETATM    6  C5  LIG X 999      44.161 131.445  18.949  1.00  0.00     0.017 A 
HETATM    7  C9  LIG X 999      46.291 130.523  19.505  1.00  0.00     0.016 A 
HETATM    8  C4  LIG X 999      43.419 131.744  17.857  1.00  0.00     0.046 A 
HETATM    9  C6  LIG X 999      43.785 131.641  20.258  1.00  0.00     0.005 A 
HETATM   10  C3  LIG X 999      42.078 132.337  18.001  1.00  0.00     0.033 A 
HETATM   11  N5  LIG X 999      44.103 131.417  16.737  1.00  0.00    -0.337 N 
HETATM   12  C2  LIG X 999      41.611 132.573  19.250  1.00  0.00     0.034 A 
HETATM   13  C1  LIG X 999      42.439 132.238  20.463  1.00  0.00     0.059 A 
HETATM   14  N1  LIG X 999      41.992 132.463  21.657  1.00  0.00    -0.300 NA
HETATM   15  H1  LIG X 999      41.049 132.882  21.823  1.00  0.00     0.187 HD
HETATM   16  H7  LIG X 999      43.783 131.534  15.750  1.00  0.00     0.167 HD
HETATM   17  C7  LIG X 999      44.709 131.260  21.253  1.00  0.00     0.015 A 
HETATM   18  C8  LIG X 999      45.961 130.701  20.872  1.00  0.00     0.002 A 
ENDBRANCH   1   4
TORSDOF 1
ENDMDL
MODEL 3
REMARK VINA RESULT:      -7.2      2.517      3.438
REMARK  1 active torsions:
REMARK  status: ('A' for Active; 'I' for Inactive)
REMARK    1  A    between atoms: C11_13  and  N2_14 
ROOT
HETATM    1  N2  LIG X 999      46.110 130.670  16.776  1.00  0.00    -0.053 NA
HETATM    2  N3  LIG X 999      45.694 129.805  16.005  1.00  0.00    -0.160 NA
HETATM    3  N4  LIG X 999      45.279 128.940  15.236  1.00  0.00     0.068 N 
ENDROOT
BRANCH   1   4
HETATM    4  C11 LIG X 999      45.512 130.869  18.058  1.00  0.00     0.175 A 
HETATM    5  C10 LIG X 999      44.247 131.398  18.273  1.00  0.00     0.026 A 
HETATM    6  C5  LIG X 999      44.095 131.405  19.619  1.00  0.00     0.017 A 
HETATM    7  C9  LIG X 999      43.228 131.867  17.443  1.00  0.00     0.016 A 
HETATM    8  C4  LIG X 999      45.210 130.906  20.200  1.00  0.00     0.046 A 
HETATM    9  C6  LIG X 999      42.974 131.854  20.278  1.00  0.00     0.005 A 
HETATM   10  C3  LIG X 999      45.309 130.801  21.666  1.00  0.00     0.033 A 
HETATM   11  N5  LIG X 999      46.108 130.565  19.247  1.00  0.00    -0.337 N 
HETATM   12  C2  LIG X 999      44.258 131.216  22.411  1.00  0.00     0.034 A 
HETATM   13  C1  LIG X 999      43.018 131.772  21.762  1.00  0.00     0.059 A 
HETATM   14  N1  LIG X 999      42.013 132.169  22.475  1.00  0.00    -0.300 NA
HETATM   15  H1  LIG X 999      42.024 132.119  23.518  1.00  0.00     0.187 HD
HETATM   16  H7  LIG X 999      47.057 130.155  19.398  1.00  0.00     0.167 HD
HETATM   17  C7  LIG X 999      41.915 132.339  19.482  1.00  0.00     0.015 A 
HETATM   18  C8  LIG X 999      42.046 132.343  18.065  1.00  0.00     0.002 A 
ENDBRANCH   1   4
TORSDOF 1
ENDMDL
MODEL 4
REMARK VINA RESULT:      -6.6      3.097      6.270
REMARK  1 active torsions:
REMARK  status: ('A' for Active; 'I' for Inactive)
REMARK    1  A    between atoms: C11_13  and  N2_14 
ROOT
HETATM    1  N2  LIG X 999      44.438 130.776  23.241  1.00  0.00    -0.053 NA
HETATM    2  N3  LIG X 999      44.145 131.751  23.933  1.00  0.00    -0.160 NA
HETATM    3  N4  LIG X 999      43.855 132.725  24.625  1.00  0.00     0.068 N 
ENDROOT
BRANCH   1   4
HETATM    4  C11 LIG X 999      44.518 130.876  21.818  1.00  0.00     0.175 A 
HETATM    5  C10 LIG X 999      43.586 131.513  21.010  1.00  0.00     0.026 A 
HETATM    6  C5  LIG X 999      44.055 131.364  19.749  1.00  0.00     0.017 A 
HETATM    7  C9  LIG X 999      42.393 132.198  21.245  1.00  0.00     0.016 A 
HETATM    8  C4  LIG X 999      45.217 130.670  19.781  1.00  0.00     0.046 A 
HETATM    9  C6  LIG X 999      43.436 131.848  18.621  1.00  0.00     0.005 A 
HETATM   10  C3  LIG X 999      45.943 130.366  18.535  1.00  0.00     0.033 A 
HETATM   11  N5  LIG X 999      45.526 130.355  21.060  1.00  0.00    -0.337 N 
HETATM   12  C2  LIG X 999      45.418 130.799  17.365  1.00  0.00     0.034 A 
HETATM   13  C1  LIG X 999      44.125 131.571  17.332  1.00  0.00     0.059 A 
HETATM   14  N1  LIG X 999      43.623 131.985  16.213  1.00  0.00    -0.300 NA
HETATM   15  H1  LIG X 999      44.093 131.801  15.298  1.00  0.00     0.187 HD
HETATM   16  H7  LIG X 999      46.362 129.823  21.389  1.00  0.00     0.167 HD
HETATM   17  C7  LIG X 999      42.226 132.549  18.806  1.00  0.00     0.015 A 
HETATM   18  C8  LIG X 999      41.708 132.722  20.120  1.00  0.00     0.002 A 
ENDBRANCH   1   4
TORSDOF 1
ENDMDL
MODEL 5
REMARK VINA RESULT:      -5.5      8.582     10.129
REMARK  1 active torsions:
REMARK  status: ('A' for Active; 'I' for Inactive)
REMARK    1  A    between atoms: C11_13  and  N2_14 
ROOT
HETATM    1  N2  LIG X 999      49.453 139.008  19.960  1.00  0.00    -0.053 NA
HETATM    2  N3  LIG X 999      48.602 139.142  19.081  1.00  0.00    -0.160 NA
HETATM    3  N4  LIG X 999      47.753 139.277  18.202  1.00  0.00     0.068 N 
ENDROOT
BRANCH   1   4
HETATM    4  C11 LIG X 999      49.510 137.826  20.760  1.00  0.00     0.175 A 
HETATM    5  C10 LIG X 999      50.516 137.526  21.669  1.00  0.00     0.026 A 
HETATM    6  C5  LIG X 999      50.168 136.326  22.191  1.00  0.00     0.017 A 
HETATM    7  C9  LIG X 999      51.681 138.169  22.086  1.00  0.00     0.016 A 
HETATM    8  C4  LIG X 999      49.009 135.910  21.631  1.00  0.00     0.046 A 
HETATM    9  C6  LIG X 999      50.893 135.646  23.143  1.00  0.00     0.005 A 
HETATM   10  C3  LIG X 999      48.404 134.625  22.025  1.00  0.00     0.033 A 
HETATM   11  N5  LIG X 999      48.578 136.828  20.736  1.00  0.00    -0.337 N 
HETATM   12  C2  LIG X 999      49.039 133.876  22.958  1.00  0.00     0.034 A 
HETATM   13  C1  LIG X 999      50.330 134.341  23.579  1.00  0.00     0.059 A 
HETATM   14  N1  LIG X 999      50.937 133.625  24.470  1.00  0.00    -0.300 NA
HETATM   15  H1  LIG X 999      50.557 132.706  24.790  1.00  0.00     0.187 HD
HETATM   16  H7  LIG X 999      47.714 136.778  20.152  1.00  0.00     0.167 HD
HETATM   17  C7  LIG X 999      52.081 136.256  23.598  1.00  0.00     0.015 A 
HETATM   18  C8  LIG X 999      52.471 137.518  23.067  1.00  0.00     0.002 A 
ENDBRANCH   1   4
TORSDOF 1
ENDMDL
