REMARK VINA RESULT:      -5.4      7.414      8.605
REMARK  3 active torsions:
REMARK  status: ('A' for Active; 'I' for Inactive)
REMARK    1  A    between atoms: C7_9  and  C8_10 
REMARK    2  A    between atoms: C9_13  and  N4_14 
REMARK    3  A    between atoms: N7_23  and  C14_24 
ROOT
HETATM    1  N4  LIG X 999      49.954 123.349  19.143  1.00  0.00    -0.023 NA
HETATM    2  N5  LIG X 999      51.063 123.865  19.278  1.00  0.00    -0.158 NA
HETATM    3  N6  LIG X 999      52.172 124.381  19.413  1.00  0.00     0.068 N 
ENDROOT
BRANCH   1   4
HETATM    4  C9  LIG X 999      49.067 123.226  20.254  1.00  0.00     0.326 A 
HETATM    5  N3  LIG X 999      49.452 122.798  21.468  1.00  0.00    -0.099 NA
HETATM    6  N2  LIG X 999      48.361 122.821  22.220  1.00  0.00    -0.119 NA
HETATM    7  C8  LIG X 999      47.357 123.255  21.429  1.00  0.00     0.205 A 
HETATM    8  O1  LIG X 999      47.789 123.514  20.219  1.00  0.00    -0.252 OA
BRANCH   7   9
HETATM    9  C7  LIG X 999      45.971 123.462  21.894  1.00  0.00     0.032 A 
HETATM   10  C6  LIG X 999      45.530 124.672  22.513  1.00  0.00     0.020 A 
HETATM   11  C1  LIG X 999      46.249 125.983  22.635  1.00  0.00     0.060 A 
HETATM   12  C5  LIG X 999      44.239 124.672  23.011  1.00  0.00     0.019 A 
HETATM   13  N1  LIG X 999      47.391 126.182  22.060  1.00  0.00    -0.299 NA
HETATM   14  C2  LIG X 999      45.569 127.118  23.353  1.00  0.00     0.034 A 
HETATM   15  H1  LIG X 999      47.884 127.102  22.109  1.00  0.00     0.187 HD
HETATM   16  C3  LIG X 999      44.310 126.994  23.822  1.00  0.00     0.033 A 
HETATM   17  C4  LIG X 999      43.615 125.711  23.628  1.00  0.00     0.048 A 
HETATM   18  N7  LIG X 999      42.344 125.359  23.939  1.00  0.00    -0.324 N 
HETATM   19  C13 LIG X 999      42.189 124.085  23.481  1.00  0.00     0.193 A 
HETATM   20  C12 LIG X 999      43.367 123.639  22.905  1.00  0.00     0.032 A 
HETATM   21  O2  LIG X 999      41.007 123.358  23.568  1.00  0.00    -0.171 OA
HETATM   22  C11 LIG X 999      43.736 122.460  22.270  1.00  0.00     0.018 A 
HETATM   23  C10 LIG X 999      45.052 122.375  21.766  1.00  0.00     0.018 A 
BRANCH  18  24
HETATM   24  C14 LIG X 999      41.311 126.204  24.536  1.00  0.00     0.127 C 
HETATM   25  C15 LIG X 999      40.566 126.974  23.451  1.00  0.00     0.027 C 
ENDBRANCH  18  24
ENDBRANCH   7   9
ENDBRANCH   1   4
TORSDOF 3
