REMARK VINA RESULT:      -5.5      0.000      0.000
REMARK  4 active torsions:
REMARK  status: ('A' for Active; 'I' for Inactive)
REMARK    1  A    between atoms: C5_5  and  C6_6 
REMARK    2  A    between atoms: C7_7  and  C8_8 
REMARK    3  A    between atoms: C11_13  and  C12_14 
REMARK    4  A    between atoms: C13_17  and  N3_18 
ROOT
HETATM    1  N3  LIG X 999      39.857 123.941  22.563  1.00  0.00    -0.023 NA
HETATM    2  N4  LIG X 999      39.361 123.162  23.378  1.00  0.00    -0.158 NA
HETATM    3  N5  LIG X 999      38.866 122.384  24.191  1.00  0.00     0.068 N 
ENDROOT
BRANCH   1   4
HETATM    4  C13 LIG X 999      41.271 124.004  22.383  1.00  0.00     0.326 A 
HETATM    5  N2  LIG X 999      41.883 123.743  21.215  1.00  0.00    -0.099 NA
HETATM    6  N1  LIG X 999      43.177 123.904  21.443  1.00  0.00    -0.124 NA
HETATM    7  C12 LIG X 999      43.301 124.250  22.743  1.00  0.00     0.184 A 
HETATM    8  O3  LIG X 999      42.125 124.320  23.324  1.00  0.00    -0.255 OA
BRANCH   7   9
HETATM    9  C11 LIG X 999      44.620 124.565  23.422  1.00  0.00     0.054 C 
HETATM   10  C3  LIG X 999      45.631 125.198  22.401  1.00  0.00     0.030 C 
HETATM   11  C2  LIG X 999      47.049 125.156  22.933  1.00  0.00    -0.021 C 
HETATM   12  C4  LIG X 999      45.226 126.631  21.992  1.00  0.00     0.027 C 
HETATM   13  C1  LIG X 999      47.458 124.129  23.683  1.00  0.00    -0.004 C 
HETATM   14  C15 LIG X 999      46.505 123.092  24.118  1.00  0.00    -0.003 C 
HETATM   15  C14 LIG X 999      45.188 123.262  23.959  1.00  0.00    -0.008 C 
HETATM   16  C5  LIG X 999      45.014 127.540  23.216  1.00  0.00     0.066 C 
HETATM   17  C9  LIG X 999      43.972 126.933  24.167  1.00  0.00     0.019 C 
HETATM   18  C10 LIG X 999      44.398 125.531  24.620  1.00  0.00     0.024 C 
BRANCH  16  19
HETATM   19  C6  LIG X 999      44.576 128.874  22.778  1.00  0.00    -0.090 C 
HETATM   20  C7  LIG X 999      44.218 129.968  22.421  1.00  0.00     0.005 C 
BRANCH  20  21
HETATM   21  C8  LIG X 999      43.792 131.271  21.995  1.00  0.00     0.258 C 
HETATM   22  O1  LIG X 999      42.918 131.892  22.652  1.00  0.00    -0.637 OA
HETATM   23  O2  LIG X 999      44.345 131.844  20.859  1.00  0.00    -0.637 OA
ENDBRANCH  20  21
ENDBRANCH  16  19
ENDBRANCH   7   9
ENDBRANCH   1   4
TORSDOF 4
