REMARK VINA RESULT:      -3.7      1.404      1.591
REMARK  2 active torsions:
REMARK  status: ('A' for Active; 'I' for Inactive)
REMARK    1  A    between atoms: C4_4  and  O1_5 
REMARK    2  A    between atoms: C10_11  and  N1_12 
ROOT
HETATM    1  N1  LIG X 999      43.179 123.006  21.512  1.00  0.00    -0.072 NA
HETATM    2  N2  LIG X 999      42.226 122.691  22.227  1.00  0.00    -0.162 NA
HETATM    3  N3  LIG X 999      41.273 122.376  22.938  1.00  0.00     0.068 N 
ENDROOT
BRANCH   1   4
HETATM    4  C10 LIG X 999      44.472 123.328  22.050  1.00  0.00     0.101 C 
HETATM    5  C9  LIG X 999      44.558 124.452  22.903  1.00  0.00     0.007 C 
HETATM    6  C8  LIG X 999      45.543 124.719  23.833  1.00  0.00    -0.022 C 
HETATM    7  C12 LIG X 999      43.660 125.633  22.805  1.00  0.00     0.278 C 
HETATM    8  C7  LIG X 999      46.338 123.759  24.470  1.00  0.00     0.012 C 
HETATM    9  C15 LIG X 999      45.482 126.144  24.249  1.00  0.00     0.276 C 
HETATM   10  C6  LIG X 999      47.728 123.870  24.615  1.00  0.00     0.037 C 
HETATM   11  C4  LIG X 999      48.593 124.574  23.751  1.00  0.00     0.068 C 
HETATM   12  C3  LIG X 999      48.268 124.916  22.412  1.00  0.00     0.037 C 
HETATM   13  C2  LIG X 999      47.301 124.276  21.625  1.00  0.00     0.003 C 
HETATM   14  C1  LIG X 999      46.924 122.939  21.804  1.00  0.00     0.002 C 
HETATM   15  C11 LIG X 999      45.590 122.516  21.732  1.00  0.00     0.035 C 
HETATM   16  N4  LIG X 999      44.403 126.766  23.427  1.00  0.00    -0.067 N 
HETATM   17  C13 LIG X 999      43.502 127.588  24.266  1.00  0.00     0.272 C 
HETATM   18  C14 LIG X 999      45.000 127.623  22.373  1.00  0.00     0.272 C 
BRANCH  11  19
HETATM   19  O1  LIG X 999      49.839 124.934  24.291  1.00  0.00    -0.356 OA
HETATM   20  C5  LIG X 999      50.363 126.258  24.312  1.00  0.00     0.210 C 
ENDBRANCH  11  19
ENDBRANCH   1   4
TORSDOF 2
