REMARK VINA RESULT:      -8.3      1.755      2.969
REMARK  4 active torsions:
REMARK  status: ('A' for Active; 'I' for Inactive)
REMARK    1  A    between atoms: C3_3  and  O1_4 
REMARK    2  A    between atoms: O1_4  and  C4_5 
REMARK    3  A    between atoms: C4_5  and  O2_6 
REMARK    4  A    between atoms: C5_8  and  C6_9 
ROOT
HETATM    1  C1  LIG X 999      44.933 127.488  22.822  1.00  0.00     0.014 C 
HETATM    2  C2  LIG X 999      44.588 128.643  22.864  1.00  0.00    -0.091 C 
HETATM    3  C3  LIG X 999      44.168 130.043  22.912  1.00  0.00     0.270 C 
ENDROOT
BRANCH   3   4
HETATM    4  O1  LIG X 999      43.927 130.502  21.589  1.00  0.00    -0.319 OA
BRANCH   4   5
HETATM    5  C4  LIG X 999      43.077 131.572  21.277  1.00  0.00     0.179 C 
HETATM    6  C5  LIG X 999      43.083 132.105  20.049  1.00  0.00     0.075 C 
BRANCH   5   7
HETATM    7  O2  LIG X 999      42.229 132.125  22.237  1.00  0.00    -0.341 OA
HETATM    8  H4  LIG X 999      42.002 131.650  23.100  1.00  0.00     0.220 HD
ENDBRANCH   5   7
BRANCH   6   9
HETATM    9  C6  LIG X 999      43.926 131.618  18.934  1.00  0.00    -0.031 A 
HETATM   10  C7  LIG X 999      45.151 131.003  19.231  1.00  0.00     0.012 A 
HETATM   11  C8  LIG X 999      45.985 130.544  18.208  1.00  0.00     0.013 A 
HETATM   12  C9  LIG X 999      45.613 130.710  16.866  1.00  0.00    -0.026 A 
HETATM   13  C10 LIG X 999      46.442 130.252  15.831  1.00  0.00     0.012 A 
HETATM   14  C14 LIG X 999      44.392 131.353  16.553  1.00  0.00    -0.025 A 
HETATM   15  C11 LIG X 999      46.064 130.432  14.497  1.00  0.00     0.001 A 
HETATM   16  C12 LIG X 999      44.861 131.070  14.187  1.00  0.00     0.001 A 
HETATM   17  C13 LIG X 999      44.026 131.531  15.210  1.00  0.00     0.012 A 
HETATM   18  C15 LIG X 999      43.562 131.812  17.587  1.00  0.00     0.024 A 
ENDBRANCH   6   9
ENDBRANCH   4   5
ENDBRANCH   3   4
TORSDOF 4
