REMARK VINA RESULT:      -5.0      4.305      6.404
REMARK  1 active torsions:
REMARK  status: ('A' for Active; 'I' for Inactive)
REMARK    1  A    between atoms: C3_3  and  N1_4 
ROOT
HETATM    1  N1  LIG X 999      45.405 130.839  19.817  1.00  0.00    -0.072 NA
HETATM    2  N2  LIG X 999      44.949 131.164  18.720  1.00  0.00    -0.162 NA
HETATM    3  N3  LIG X 999      44.495 131.484  17.622  1.00  0.00     0.068 N 
ENDROOT
BRANCH   1   4
HETATM    4  C3  LIG X 999      44.584 130.752  20.990  1.00  0.00     0.104 A 
HETATM    5  C2  LIG X 999      43.699 131.810  21.238  1.00  0.00     0.035 A 
HETATM    6  C1  LIG X 999      42.920 131.838  22.395  1.00  0.00     0.003 A 
HETATM    7  C10 LIG X 999      43.000 130.801  23.322  1.00  0.00     0.012 A 
HETATM    8  C9  LIG X 999      43.841 129.705  23.087  1.00  0.00    -0.023 A 
HETATM    9  C4  LIG X 999      44.634 129.657  21.897  1.00  0.00     0.006 A 
HETATM   10  C8  LIG X 999      43.882 128.643  24.010  1.00  0.00     0.021 A 
HETATM   11  C5  LIG X 999      45.404 128.497  21.641  1.00  0.00     0.024 A 
HETATM   12  C6  LIG X 999      45.420 127.471  22.586  1.00  0.00    -0.023 A 
HETATM   13  C7  LIG X 999      44.693 127.546  23.733  1.00  0.00    -0.024 A 
HETATM   14  C14 LIG X 999      46.130 126.176  22.506  1.00  0.00     0.276 C 
HETATM   15  C11 LIG X 999      44.852 126.310  24.530  1.00  0.00     0.276 C 
HETATM   16  N4  LIG X 999      45.905 125.510  23.828  1.00  0.00    -0.067 N 
HETATM   17  C12 LIG X 999      45.462 124.111  23.641  1.00  0.00     0.272 C 
HETATM   18  C13 LIG X 999      47.158 125.518  24.620  1.00  0.00     0.272 C 
ENDBRANCH   1   4
TORSDOF 1
