REMARK VINA RESULT:      -7.4      0.000      0.000
REMARK  1 active torsions:
REMARK  status: ('A' for Active; 'I' for Inactive)
REMARK    1  A    between atoms: C10_11  and  N2_12 
ROOT
HETATM    1  N2  LIG X 999      44.994 131.446  14.618  1.00  0.00    -0.214 NA
HETATM    2  C11 LIG X 999      46.101 131.158  14.060  1.00  0.00     0.165 C 
HETATM    3  S1  LIG X 999      47.502 130.793  13.353  1.00  0.00    -0.055 SA
ENDROOT
BRANCH   1   4
HETATM    4  C10 LIG X 999      44.768 131.382  16.034  1.00  0.00     0.152 C 
HETATM    5  N1  LIG X 999      43.594 131.846  16.524  1.00  0.00    -0.229 NA
HETATM    6  C9  LIG X 999      43.304 131.851  17.851  1.00  0.00     0.070 C 
HETATM    7  C8  LIG X 999      42.041 132.289  18.250  1.00  0.00     0.033 C 
HETATM    8  C15 LIG X 999      44.257 131.399  18.806  1.00  0.00     0.010 C 
HETATM    9  C7  LIG X 999      41.692 132.308  19.593  1.00  0.00     0.014 C 
HETATM   10  C5  LIG X 999      42.640 131.993  20.572  1.00  0.00    -0.025 C 
HETATM   11  C4  LIG X 999      43.958 131.599  20.196  1.00  0.00    -0.013 C 
HETATM   12  C6  LIG X 999      42.295 132.123  21.926  1.00  0.00     0.012 C 
HETATM   13  C3  LIG X 999      44.931 131.530  21.222  1.00  0.00     0.013 C 
HETATM   14  C2  LIG X 999      44.575 131.677  22.564  1.00  0.00     0.001 C 
HETATM   15  C1  LIG X 999      43.256 131.945  22.918  1.00  0.00     0.001 C 
HETATM   16  C13 LIG X 999      45.422 130.745  18.291  1.00  0.00    -0.045 C 
HETATM   17  C12 LIG X 999      45.694 130.807  16.915  1.00  0.00     0.060 C 
HETATM   18  C14 LIG X 999      46.322 129.848  19.104  1.00  0.00     0.049 C 
ENDBRANCH   1   4
TORSDOF 1
