REMARK VINA RESULT:      -7.5      2.931      6.865
REMARK  5 active torsions:
REMARK  status: ('A' for Active; 'I' for Inactive)
REMARK    1  A    between atoms: C6_6  and  C7_7 
REMARK    2  A    between atoms: C7_7  and  N3_15 
REMARK    3  A    between atoms: N1_8  and  C8_9 
REMARK    4  A    between atoms: C8_9  and  C9_10 
REMARK    5  A    between atoms: C9_10  and  N2_11 
ROOT
HETATM    1  N3  LIG X 999      45.451 130.732  19.641  1.00  0.00    -0.052 NA
HETATM    2  N4  LIG X 999      46.019 131.479  20.438  1.00  0.00    -0.160 NA
HETATM    3  N5  LIG X 999      46.588 132.224  21.235  1.00  0.00     0.068 N 
ENDROOT
BRANCH   1   4
HETATM    4  C7  LIG X 999      44.784 131.225  18.467  1.00  0.00     0.191 C 
HETATM    5  N1  LIG X 999      43.553 131.642  18.547  1.00  0.00    -0.267 NA
BRANCH   4   6
HETATM    6  C6  LIG X 999      45.462 131.270  17.150  1.00  0.00     0.015 A 
HETATM    7  C5  LIG X 999      46.161 130.144  16.680  1.00  0.00     0.027 A 
HETATM    8  C4  LIG X 999      46.796 130.171  15.430  1.00  0.00    -0.025 A 
HETATM    9  C3  LIG X 999      47.505 129.052  14.963  1.00  0.00     0.012 A 
HETATM   10  C12 LIG X 999      46.723 131.337  14.630  1.00  0.00    -0.026 A 
HETATM   11  C2  LIG X 999      48.134 129.090  13.715  1.00  0.00     0.001 A 
HETATM   12  C1  LIG X 999      48.061 130.241  12.926  1.00  0.00     0.001 A 
HETATM   13  C13 LIG X 999      47.358 131.361  13.378  1.00  0.00     0.012 A 
HETATM   14  C11 LIG X 999      46.012 132.451  15.094  1.00  0.00     0.013 A 
HETATM   15  C10 LIG X 999      45.383 132.417  16.340  1.00  0.00     0.016 A 
ENDBRANCH   4   6
BRANCH   5  16
HETATM   16  C8  LIG X 999      42.742 131.636  19.763  1.00  0.00     0.178 C 
BRANCH  16  17
HETATM   17  C9  LIG X 999      41.788 132.838  19.803  1.00  0.00     0.251 C 
BRANCH  17  18
HETATM   18  N2  LIG X 999      41.305 133.097  21.160  1.00  0.00    -0.078 N 
HETATM   19  H9  LIG X 999      41.695 132.373  21.804  1.00  0.00     0.274 HD
HETATM   20  H10 LIG X 999      40.261 133.042  21.189  1.00  0.00     0.274 HD
HETATM   21  H11 LIG X 999      41.619 134.040  21.482  1.00  0.00     0.274 HD
ENDBRANCH  17  18
ENDBRANCH  16  17
ENDBRANCH   5  16
ENDBRANCH   1   4
TORSDOF 5
