REMARK VINA RESULT:      -6.4      2.463      4.800
REMARK  1 active torsions:
REMARK  status: ('A' for Active; 'I' for Inactive)
REMARK    1  A    between atoms: C14_14  and  N1_15 
ROOT
HETATM    1  N1  LIG X 999      42.456 132.139  18.799  1.00  0.00    -0.216 NA
HETATM    2  C15 LIG X 999      42.699 131.889  20.024  1.00  0.00     0.165 C 
HETATM    3  S1  LIG X 999      43.006 131.574  21.574  1.00  0.00    -0.055 SA
ENDROOT
BRANCH   1   4
HETATM    4  C14 LIG X 999      43.305 131.737  17.712  1.00  0.00     0.130 C 
HETATM    5  C13 LIG X 999      42.987 132.026  16.378  1.00  0.00     0.058 C 
HETATM    6  C11 LIG X 999      43.828 131.603  15.338  1.00  0.00    -0.045 C 
HETATM    7  C10 LIG X 999      45.085 131.001  15.656  1.00  0.00     0.008 C 
HETATM    8  C12 LIG X 999      43.252 131.686  13.945  1.00  0.00     0.049 C 
HETATM    9  C4  LIG X 999      46.131 130.723  14.712  1.00  0.00    -0.013 C 
HETATM   10  C9  LIG X 999      45.289 130.616  17.013  1.00  0.00     0.045 C 
HETATM   11  C3  LIG X 999      46.229 131.352  13.449  1.00  0.00     0.013 C 
HETATM   12  C5  LIG X 999      47.193 129.853  15.092  1.00  0.00    -0.025 C 
HETATM   13  C2  LIG X 999      47.234 131.004  12.544  1.00  0.00     0.001 C 
HETATM   14  C1  LIG X 999      48.196 130.059  12.891  1.00  0.00     0.001 C 
HETATM   15  C6  LIG X 999      48.191 129.501  14.167  1.00  0.00     0.012 C 
HETATM   16  C7  LIG X 999      47.286 129.386  16.404  1.00  0.00     0.014 C 
HETATM   17  C8  LIG X 999      46.377 129.809  17.363  1.00  0.00     0.031 C 
HETATM   18  N2  LIG X 999      44.417 131.009  17.985  1.00  0.00    -0.340 N 
HETATM   19  H11 LIG X 999      44.602 130.750  18.983  1.00  0.00     0.167 HD
ENDBRANCH   1   4
TORSDOF 1
