REMARK VINA RESULT:      -7.0      0.969      2.763
REMARK  1 active torsions:
REMARK  status: ('A' for Active; 'I' for Inactive)
REMARK    1  A    between atoms: N1_2  and  C1_3 
ROOT
HETATM    1  C1  LIG X 999      43.266 131.274  23.209  1.00  0.00     0.120 C 
HETATM    2  C2  LIG X 999      42.357 132.004  22.450  1.00  0.00     0.057 C 
HETATM    3  C3  LIG X 999      42.584 132.220  21.083  1.00  0.00    -0.045 C 
HETATM    4  C4  LIG X 999      41.721 133.269  20.426  1.00  0.00     0.049 C 
HETATM    5  C5  LIG X 999      43.684 131.563  20.444  1.00  0.00     0.008 C 
HETATM    6  C6  LIG X 999      43.911 131.517  19.028  1.00  0.00    -0.013 C 
HETATM    7  C7  LIG X 999      42.899 131.760  18.068  1.00  0.00     0.013 C 
HETATM    8  C8  LIG X 999      43.186 131.760  16.701  1.00  0.00     0.001 C 
HETATM    9  C9  LIG X 999      44.471 131.469  16.252  1.00  0.00     0.001 C 
HETATM   10  C10 LIG X 999      45.463 131.122  17.165  1.00  0.00     0.012 C 
HETATM   11  C11 LIG X 999      45.185 131.104  18.542  1.00  0.00    -0.025 C 
HETATM   12  C12 LIG X 999      46.152 130.622  19.426  1.00  0.00     0.014 C 
HETATM   13  C13 LIG X 999      45.863 130.489  20.777  1.00  0.00     0.031 C 
HETATM   14  C14 LIG X 999      44.644 130.940  21.296  1.00  0.00     0.045 C 
HETATM   15  N2  LIG X 999      44.399 130.795  22.631  1.00  0.00    -0.341 N 
HETATM   16  H12 LIG X 999      45.100 130.300  23.230  1.00  0.00     0.167 HD
ENDROOT
BRANCH   1  17
HETATM   17  N1  LIG X 999      43.042 131.095  24.473  1.00  0.00    -0.284 NA
HETATM   18  H1  LIG X 999      43.796 131.187  25.190  1.00  0.00     0.188 HD
ENDBRANCH   1  17
TORSDOF 1
