REMARK VINA RESULT:      -8.6      0.000      0.000
REMARK  1 active torsions:
REMARK  status: ('A' for Active; 'I' for Inactive)
REMARK    1  A    between atoms: C2_5  and  C3_6 
ROOT
HETATM    1  C3  LIG X 999      44.394 131.372  17.535  1.00  0.00     0.030 A 
HETATM    2  C4  LIG X 999      43.169 131.802  16.985  1.00  0.00     0.017 A 
HETATM    3  C5  LIG X 999      42.099 132.175  17.791  1.00  0.00     0.002 A 
HETATM    4  C6  LIG X 999      42.217 132.134  19.173  1.00  0.00     0.012 A 
HETATM    5  C7  LIG X 999      43.411 131.714  19.769  1.00  0.00    -0.025 A 
HETATM    6  C8  LIG X 999      43.498 131.684  21.170  1.00  0.00     0.012 A 
HETATM    7  C9  LIG X 999      44.671 131.273  21.795  1.00  0.00     0.001 A 
HETATM    8  C10 LIG X 999      45.767 130.889  21.031  1.00  0.00     0.001 A 
HETATM    9  C11 LIG X 999      45.702 130.913  19.635  1.00  0.00     0.013 A 
HETATM   10  C12 LIG X 999      44.525 131.325  18.964  1.00  0.00    -0.011 A 
ENDROOT
BRANCH   1  11
HETATM   11  C2  LIG X 999      45.456 131.002  16.547  1.00  0.00     0.203 A 
HETATM   12  O1  LIG X 999      45.753 131.744  15.496  1.00  0.00    -0.255 OA
HETATM   13  C1  LIG X 999      46.714 131.099  14.885  1.00  0.00     0.262 A 
HETATM   14  N1  LIG X 999      47.290 131.500  13.799  1.00  0.00    -0.260 NA
HETATM   15  N3  LIG X 999      47.028 129.968  15.527  1.00  0.00    -0.238 N 
HETATM   16  H1  LIG X 999      47.002 132.393  13.341  1.00  0.00     0.190 HD
HETATM   17  N2  LIG X 999      46.235 129.898  16.582  1.00  0.00    -0.145 NA
HETATM   18  H9  LIG X 999      47.752 129.261  15.268  1.00  0.00     0.193 HD
ENDBRANCH   1  11
TORSDOF 1
