REMARK VINA RESULT:      -8.0      0.000      0.000
REMARK  2 active torsions:
REMARK  status: ('A' for Active; 'I' for Inactive)
REMARK    1  A    between atoms: N1_1  and  C1_2 
REMARK    2  A    between atoms: C2_5  and  C3_6 
ROOT
HETATM    1  C3  LIG X 999      44.360 131.495  17.406  1.00  0.00     0.030 A 
HETATM    2  C4  LIG X 999      43.089 131.894  16.956  1.00  0.00     0.017 A 
HETATM    3  C5  LIG X 999      42.054 132.141  17.857  1.00  0.00     0.002 A 
HETATM    4  C6  LIG X 999      42.263 131.996  19.225  1.00  0.00     0.012 A 
HETATM    5  C7  LIG X 999      43.525 131.626  19.711  1.00  0.00    -0.025 A 
HETATM    6  C8  LIG X 999      43.730 131.509  21.095  1.00  0.00     0.012 A 
HETATM    7  C9  LIG X 999      44.989 131.179  21.595  1.00  0.00     0.001 A 
HETATM    8  C10 LIG X 999      46.055 130.976  20.721  1.00  0.00     0.001 A 
HETATM    9  C11 LIG X 999      45.870 131.084  19.341  1.00  0.00     0.013 A 
HETATM   10  C12 LIG X 999      44.597 131.386  18.806  1.00  0.00    -0.011 A 
ENDROOT
BRANCH   1  11
HETATM   11  C2  LIG X 999      45.380 131.170  16.379  1.00  0.00     0.205 A 
HETATM   12  N3  LIG X 999      45.958 132.088  15.576  1.00  0.00    -0.119 NA
HETATM   13  N2  LIG X 999      46.780 131.427  14.775  1.00  0.00    -0.103 NA
HETATM   14  C1  LIG X 999      46.663 130.133  15.121  1.00  0.00     0.265 A 
HETATM   15  O1  LIG X 999      45.807 129.962  16.096  1.00  0.00    -0.255 OA
BRANCH  14  16
HETATM   16  N1  LIG X 999      47.384 129.075  14.496  1.00  0.00    -0.362 N 
HETATM   17  H1  LIG X 999      46.907 128.176  14.264  1.00  0.00     0.159 HD
HETATM   18  H2  LIG X 999      48.396 129.194  14.267  1.00  0.00     0.159 HD
ENDBRANCH  14  16
ENDBRANCH   1  11
TORSDOF 2
