REMARK VINA RESULT:      -7.7      1.257      1.940
REMARK  1 active torsions:
REMARK  status: ('A' for Active; 'I' for Inactive)
REMARK    1  A    between atoms: C2_2  and  N1_3 
ROOT
HETATM    1  N1  LIG X 999      46.766 130.220  15.722  1.00  0.00    -0.073 NA
HETATM    2  N2  LIG X 999      46.651 130.628  14.565  1.00  0.00    -0.162 NA
HETATM    3  N3  LIG X 999      46.537 131.034  13.409  1.00  0.00     0.068 N 
ENDROOT
BRANCH   1   4
HETATM    4  C2  LIG X 999      45.882 130.634  16.773  1.00  0.00     0.094 A 
HETATM    5  C1  LIG X 999      44.767 131.414  16.445  1.00  0.00     0.035 A 
HETATM    6  C10 LIG X 999      43.877 131.840  17.436  1.00  0.00     0.014 A 
HETATM    7  C9  LIG X 999      44.094 131.490  18.775  1.00  0.00    -0.025 A 
HETATM    8  C4  LIG X 999      45.225 130.697  19.120  1.00  0.00    -0.023 A 
HETATM    9  C8  LIG X 999      43.202 131.913  19.779  1.00  0.00     0.021 A 
HETATM   10  C3  LIG X 999      46.109 130.275  18.116  1.00  0.00     0.046 A 
HETATM   11  C5  LIG X 999      45.445 130.340  20.465  1.00  0.00     0.021 A 
HETATM   12  C6  LIG X 999      44.542 130.785  21.431  1.00  0.00    -0.024 A 
HETATM   13  C7  LIG X 999      43.459 131.544  21.101  1.00  0.00    -0.024 A 
HETATM   14  C14 LIG X 999      44.561 130.516  22.885  1.00  0.00     0.276 C 
HETATM   15  C11 LIG X 999      42.655 131.853  22.303  1.00  0.00     0.276 C 
HETATM   16  N4  LIG X 999      43.447 131.333  23.463  1.00  0.00    -0.067 N 
HETATM   17  C12 LIG X 999      44.002 132.463  24.245  1.00  0.00     0.272 C 
HETATM   18  C13 LIG X 999      42.597 130.506  24.348  1.00  0.00     0.272 C 
ENDBRANCH   1   4
TORSDOF 1
