REMARK VINA RESULT:      -4.5      0.000      0.000
REMARK  3 active torsions:
REMARK  status: ('A' for Active; 'I' for Inactive)
REMARK    1  A    between atoms: C5_5  and  N1_6 
REMARK    2  A    between atoms: C6_9  and  N4_10 
REMARK    3  A    between atoms: C8_15  and  N7_16 
ROOT
HETATM    1  N1  LIG X 999      42.254 123.316  23.259  1.00  0.00    -0.069 NA
HETATM    2  N2  LIG X 999      42.581 122.923  22.138  1.00  0.00    -0.162 NA
HETATM    3  N3  LIG X 999      42.904 122.528  21.018  1.00  0.00     0.068 N 
ENDROOT
BRANCH   1   4
HETATM    4  C5  LIG X 999      42.382 124.693  23.652  1.00  0.00     0.137 C 
HETATM    5  C4  LIG X 999      41.219 125.491  23.738  1.00  0.00     0.011 A 
HETATM    6  C3  LIG X 999      39.940 124.916  23.580  1.00  0.00     0.015 A 
HETATM    7  C9  LIG X 999      41.329 126.887  23.981  1.00  0.00     0.010 A 
HETATM    8  C2  LIG X 999      38.791 125.695  23.700  1.00  0.00     0.001 A 
HETATM    9  C1  LIG X 999      38.893 127.053  23.990  1.00  0.00     0.001 A 
HETATM   10  C10 LIG X 999      40.147 127.646  24.137  1.00  0.00     0.015 A 
HETATM   11  C8  LIG X 999      42.613 127.478  24.090  1.00  0.00     0.128 C 
HETATM   12  C7  LIG X 999      43.753 126.660  24.099  1.00  0.00     0.100 C 
HETATM   13  C6  LIG X 999      43.647 125.273  23.920  1.00  0.00     0.149 C 
HETATM   14 CL1  LIG X 999      45.343 127.386  24.345  1.00  0.00    -0.079 Cl
BRANCH  11  15
HETATM   15  N7  LIG X 999      42.800 128.897  24.209  1.00  0.00    -0.070 NA
HETATM   16  N8  LIG X 999      42.930 129.624  23.222  1.00  0.00    -0.162 NA
HETATM   17  N9  LIG X 999      43.062 130.350  22.239  1.00  0.00     0.068 N 
ENDBRANCH  11  15
BRANCH  13  18
HETATM   18  N4  LIG X 999      44.837 124.481  24.058  1.00  0.00    -0.068 NA
HETATM   19  N5  LIG X 999      45.569 124.225  23.101  1.00  0.00    -0.162 NA
HETATM   20  N6  LIG X 999      46.299 123.965  22.145  1.00  0.00     0.068 N 
ENDBRANCH  13  18
ENDBRANCH   1   4
TORSDOF 3
