REMARK VINA RESULT:      -5.1      5.869      8.335
REMARK  3 active torsions:
REMARK  status: ('A' for Active; 'I' for Inactive)
REMARK    1  A    between atoms: C2_2  and  O1_3 
REMARK    2  A    between atoms: O1_3  and  C3_4 
REMARK       I    between atoms: C3_4  and  N1_6 
REMARK    3  A    between atoms: N1_6  and  C4_7 
ROOT
HETATM    1  C4  LIG X 999      43.378 128.190  23.665  1.00  0.00     0.063 A 
HETATM    2  C5  LIG X 999      42.502 127.097  23.644  1.00  0.00     0.032 A 
HETATM    3  C6  LIG X 999      42.958 125.823  23.297  1.00  0.00     0.014 A 
HETATM    4  C7  LIG X 999      44.307 125.619  22.979  1.00  0.00    -0.025 A 
HETATM    5  C8  LIG X 999      44.777 124.339  22.630  1.00  0.00     0.021 A 
HETATM    6  C9  LIG X 999      46.132 124.183  22.327  1.00  0.00    -0.024 A 
HETATM    7  C10 LIG X 999      46.997 125.233  22.372  1.00  0.00    -0.024 A 
HETATM    8  C11 LIG X 999      46.573 126.516  22.721  1.00  0.00     0.021 A 
HETATM    9  C12 LIG X 999      45.212 126.719  23.023  1.00  0.00    -0.023 A 
HETATM   10  C13 LIG X 999      44.741 127.992  23.375  1.00  0.00     0.044 A 
HETATM   11  C14 LIG X 999      48.368 124.790  22.040  1.00  0.00     0.276 C 
HETATM   12  N2  LIG X 999      48.239 123.359  21.619  1.00  0.00    -0.067 N 
HETATM   13  C15 LIG X 999      48.460 123.238  20.157  1.00  0.00     0.272 C 
HETATM   14  C16 LIG X 999      49.227 122.514  22.326  1.00  0.00     0.272 C 
HETATM   15  C17 LIG X 999      46.842 122.939  21.962  1.00  0.00     0.276 C 
ENDROOT
BRANCH   1  16
HETATM   16  N1  LIG X 999      42.863 129.475  24.042  1.00  0.00    -0.188 NA
HETATM   17  C3  LIG X 999      42.882 130.656  23.233  1.00  0.00     0.387 C 
HETATM   18  O2  LIG X 999      42.619 131.767  23.766  1.00  0.00    -0.236 OA
BRANCH  17  19
HETATM   19  O1  LIG X 999      43.136 130.573  21.862  1.00  0.00    -0.303 OA
BRANCH  19  20
HETATM   20  C2  LIG X 999      44.039 131.445  21.190  1.00  0.00     0.176 C 
HETATM   21  C1  LIG X 999      45.322 130.696  20.868  1.00  0.00     0.034 C 
ENDBRANCH  19  20
ENDBRANCH  17  19
ENDBRANCH   1  16
TORSDOF 3
