REMARK VINA RESULT:      -3.1      8.627     10.621
REMARK  2 active torsions:
REMARK  status: ('A' for Active; 'I' for Inactive)
REMARK    1  A    between atoms: C9_10  and  N2_11 
REMARK       I    between atoms: N2_11  and  C10_12 
REMARK    2  A    between atoms: C10_12  and  C11_14 
ROOT
HETATM    1  C11 LIG X 999      50.000 123.156  22.006  1.00  0.00     0.282 C 
HETATM    2 CL1  LIG X 999      50.121 123.738  20.327  1.00  0.00    -0.099 Cl
HETATM    3  C12 LIG X 999      51.300 123.300  22.668  1.00  0.00     0.089 C 
HETATM    4  N3  LIG X 999      52.326 123.414  23.191  1.00  0.00    -0.195 NA
ENDROOT
BRANCH   1   5
HETATM    5  C10 LIG X 999      48.958 123.934  22.748  1.00  0.00     0.276 C 
HETATM    6  N2  LIG X 999      47.787 124.393  22.058  1.00  0.00    -0.212 NA
HETATM    7  O1  LIG X 999      49.152 124.234  23.956  1.00  0.00    -0.268 OA
BRANCH   6   8
HETATM    8  C9  LIG X 999      46.596 124.922  22.657  1.00  0.00     0.061 A 
HETATM    9  C8  LIG X 999      46.719 125.968  23.578  1.00  0.00     0.032 A 
HETATM   10  C7  LIG X 999      45.589 126.531  24.176  1.00  0.00     0.014 A 
HETATM   11  C6  LIG X 999      44.311 126.064  23.846  1.00  0.00    -0.025 A 
HETATM   12  C5  LIG X 999      43.164 126.623  24.444  1.00  0.00     0.021 A 
HETATM   13  C14 LIG X 999      44.171 125.016  22.892  1.00  0.00    -0.023 A 
HETATM   14  C4  LIG X 999      41.911 126.136  24.073  1.00  0.00    -0.024 A 
HETATM   15  C3  LIG X 999      40.587 126.554  24.582  1.00  0.00     0.276 C 
HETATM   16  C16 LIG X 999      41.777 125.136  23.157  1.00  0.00    -0.024 A 
HETATM   17  N1  LIG X 999      39.584 125.809  23.756  1.00  0.00    -0.067 N 
HETATM   18  C1  LIG X 999      38.581 125.150  24.622  1.00  0.00     0.272 C 
HETATM   19  C2  LIG X 999      38.888 126.743  22.838  1.00  0.00     0.272 C 
HETATM   20  C17 LIG X 999      40.351 124.793  22.968  1.00  0.00     0.276 C 
HETATM   21  C15 LIG X 999      42.887 124.550  22.547  1.00  0.00     0.021 A 
HETATM   22  C13 LIG X 999      45.316 124.460  22.300  1.00  0.00     0.044 A 
ENDBRANCH   6   8
ENDBRANCH   1   5
TORSDOF 2
