REMARK VINA RESULT:      -3.4      1.701      2.408
REMARK  3 active torsions:
REMARK  status: ('A' for Active; 'I' for Inactive)
REMARK    1  A    between atoms: C2_2  and  N1_3 
REMARK       I    between atoms: N2_8  and  C7_9 
REMARK    2  A    between atoms: C7_9  and  C8_11 
REMARK    3  A    between atoms: C9_12  and  C10_13 
ROOT
HETATM    1  C8  LIG X 999      45.422 131.609  20.011  1.00  0.00     0.001 C 
HETATM    2  C9  LIG X 999      45.521 131.500  18.815  1.00  0.00    -0.057 C 
ENDROOT
BRANCH   1   3
HETATM    3  C7  LIG X 999      45.299 131.725  21.440  1.00  0.00     0.313 C 
HETATM    4  N2  LIG X 999      44.089 131.336  22.108  1.00  0.00    -0.269 N 
HETATM    5  N1  LIG X 999      42.925 130.988  21.393  1.00  0.00    -0.226 NA
HETATM    6  C6  LIG X 999      44.112 130.891  23.490  1.00  0.00     0.153 C 
HETATM    7  C3  LIG X 999      42.282 129.954  22.224  1.00  0.00     0.119 C 
HETATM    8  C4  LIG X 999      42.849 130.056  23.649  1.00  0.00     0.016 C 
HETATM    9  C5  LIG X 999      41.851 130.693  24.624  1.00  0.00     0.013 C 
HETATM   10  O1  LIG X 999      46.283 132.148  22.105  1.00  0.00    -0.257 OA
BRANCH   5  11
HETATM   11  C2  LIG X 999      42.057 132.181  21.279  1.00  0.00     0.109 C 
HETATM   12  C1  LIG X 999      41.950 132.658  19.833  1.00  0.00     0.023 C 
ENDBRANCH   5  11
ENDBRANCH   1   3
BRANCH   2  13
HETATM   13  C10 LIG X 999      45.638 131.360  17.389  1.00  0.00     0.019 A 
HETATM   14  C11 LIG X 999      44.682 131.940  16.546  1.00  0.00     0.021 A 
HETATM   15  C12 LIG X 999      44.789 131.804  15.159  1.00  0.00     0.013 A 
HETATM   16  C13 LIG X 999      45.857 131.084  14.602  1.00  0.00    -0.026 A 
HETATM   17  C14 LIG X 999      45.975 130.941  13.211  1.00  0.00     0.012 A 
HETATM   18  C18 LIG X 999      46.825 130.497  15.452  1.00  0.00    -0.025 A 
HETATM   19  C15 LIG X 999      47.043 130.222  12.668  1.00  0.00     0.001 A 
HETATM   20  C16 LIG X 999      47.999 129.642  13.506  1.00  0.00     0.001 A 
HETATM   21  C17 LIG X 999      47.893 129.777  14.894  1.00  0.00     0.012 A 
HETATM   22  C19 LIG X 999      46.709 130.639  16.843  1.00  0.00     0.032 A 
ENDBRANCH   2  13
TORSDOF 3
