MODEL 1
REMARK VINA RESULT:      -8.1      0.000      0.000
REMARK  6 active torsions:
REMARK  status: ('A' for Active; 'I' for Inactive)
REMARK    1  A    between atoms: O1_2  and  C2_3 
REMARK    2  A    between atoms: C2_3  and  C3_5 
REMARK    3  A    between atoms: C6_9  and  N1_10 
REMARK    4  A    between atoms: N1_10  and  C7_11 
REMARK    5  A    between atoms: C7_11  and  N2_13 
REMARK    6  A    between atoms: N2_13  and  C8_14 
ROOT
HETATM    1  C7  LIG X 999      44.301 131.522  19.622  1.00  0.00     0.278 C 
HETATM    2  S2  LIG X 999      42.769 132.061  19.369  1.00  0.00    -0.033 SA
ENDROOT
BRANCH   1   3
HETATM    3  N1  LIG X 999      44.925 131.770  20.896  1.00  0.00     0.012 N 
HETATM    4  H6  LIG X 999      45.051 132.803  21.002  1.00  0.00     0.293 HD
HETATM    5  H7  LIG X 999      45.870 131.327  20.942  1.00  0.00     0.293 HD
BRANCH   3   6
HETATM    6  C6  LIG X 999      44.110 131.253  21.967  1.00  0.00     0.164 A 
HETATM    7  C3  LIG X 999      44.179 129.942  22.465  1.00  0.00     0.114 A 
HETATM    8  S1  LIG X 999      43.002 129.784  23.659  1.00  0.00    -0.094 SA
HETATM    9  C4  LIG X 999      42.401 131.348  23.566  1.00  0.00     0.053 A 
HETATM   10  C5  LIG X 999      43.112 132.028  22.587  1.00  0.00     0.046 A 
BRANCH   7  11
HETATM   11  C2  LIG X 999      45.073 128.847  22.046  1.00  0.00     0.302 C 
HETATM   12  O2  LIG X 999      45.834 129.016  21.054  1.00  0.00    -0.259 OA
BRANCH  11  13
HETATM   13  O1  LIG X 999      45.083 127.632  22.733  1.00  0.00    -0.322 OA
HETATM   14  C1  LIG X 999      45.782 126.487  22.263  1.00  0.00     0.213 C 
ENDBRANCH  11  13
ENDBRANCH   7  11
ENDBRANCH   3   6
ENDBRANCH   1   3
BRANCH   1  15
HETATM   15  N2  LIG X 999      44.843 130.519  18.746  1.00  0.00    -0.327 N 
HETATM   16  H8  LIG X 999      44.872 129.534  19.092  1.00  0.00     0.168 HD
BRANCH  15  17
HETATM   17  C8  LIG X 999      45.394 130.806  17.449  1.00  0.00     0.035 A 
HETATM   18  C9  LIG X 999      45.233 132.068  16.850  1.00  0.00     0.030 A 
HETATM   19  C10 LIG X 999      45.799 132.339  15.601  1.00  0.00     0.014 A 
HETATM   20  C11 LIG X 999      46.545 131.355  14.937  1.00  0.00    -0.026 A 
HETATM   21  C12 LIG X 999      47.119 131.617  13.683  1.00  0.00     0.012 A 
HETATM   22  C16 LIG X 999      46.729 130.088  15.541  1.00  0.00    -0.024 A 
HETATM   23  C13 LIG X 999      47.866 130.630  13.034  1.00  0.00     0.001 A 
HETATM   24  C14 LIG X 999      48.047 129.380  13.630  1.00  0.00     0.001 A 
HETATM   25  C15 LIG X 999      47.483 129.107  14.879  1.00  0.00     0.012 A 
HETATM   26  C17 LIG X 999      46.158 129.828  16.795  1.00  0.00     0.041 A 
ENDBRANCH  15  17
ENDBRANCH   1  15
TORSDOF 6
ENDMDL
MODEL 2
REMARK VINA RESULT:      -7.4      1.574      2.589
REMARK  6 active torsions:
REMARK  status: ('A' for Active; 'I' for Inactive)
REMARK    1  A    between atoms: O1_2  and  C2_3 
REMARK    2  A    between atoms: C2_3  and  C3_5 
REMARK    3  A    between atoms: C6_9  and  N1_10 
REMARK    4  A    between atoms: N1_10  and  C7_11 
REMARK    5  A    between atoms: C7_11  and  N2_13 
REMARK    6  A    between atoms: N2_13  and  C8_14 
ROOT
HETATM    1  C7  LIG X 999      44.318 131.458  19.563  1.00  0.00     0.278 C 
HETATM    2  S2  LIG X 999      42.850 132.006  19.067  1.00  0.00    -0.033 SA
ENDROOT
BRANCH   1   3
HETATM    3  N1  LIG X 999      44.693 131.625  20.942  1.00  0.00     0.012 N 
HETATM    4  H6  LIG X 999      44.020 132.292  21.387  1.00  0.00     0.293 HD
HETATM    5  H7  LIG X 999      45.650 132.038  21.023  1.00  0.00     0.293 HD
BRANCH   3   6
HETATM    6  C6  LIG X 999      44.668 130.358  21.630  1.00  0.00     0.164 A 
HETATM    7  C3  LIG X 999      43.917 130.090  22.786  1.00  0.00     0.114 A 
HETATM    8  S1  LIG X 999      44.254 128.509  23.260  1.00  0.00    -0.094 SA
HETATM    9  C4  LIG X 999      45.335 128.149  22.028  1.00  0.00     0.053 A 
HETATM   10  C5  LIG X 999      45.458 129.269  21.218  1.00  0.00     0.046 A 
BRANCH   7  11
HETATM   11  C2  LIG X 999      43.004 130.987  23.517  1.00  0.00     0.302 C 
HETATM   12  O2  LIG X 999      41.966 130.511  24.051  1.00  0.00    -0.259 OA
BRANCH  11  13
HETATM   13  O1  LIG X 999      43.279 132.353  23.621  1.00  0.00    -0.322 OA
HETATM   14  C1  LIG X 999      44.142 132.891  24.614  1.00  0.00     0.213 C 
ENDBRANCH  11  13
ENDBRANCH   7  11
ENDBRANCH   3   6
ENDBRANCH   1   3
BRANCH   1  15
HETATM   15  N2  LIG X 999      45.027 130.518  18.739  1.00  0.00    -0.327 N 
HETATM   16  H8  LIG X 999      45.225 129.573  19.138  1.00  0.00     0.168 HD
BRANCH  15  17
HETATM   17  C8  LIG X 999      45.523 130.824  17.425  1.00  0.00     0.035 A 
HETATM   18  C9  LIG X 999      45.326 132.090  16.846  1.00  0.00     0.030 A 
HETATM   19  C10 LIG X 999      45.839 132.380  15.579  1.00  0.00     0.014 A 
HETATM   20  C11 LIG X 999      46.569 131.412  14.875  1.00  0.00    -0.026 A 
HETATM   21  C12 LIG X 999      47.090 131.693  13.602  1.00  0.00     0.012 A 
HETATM   22  C16 LIG X 999      46.790 130.141  15.458  1.00  0.00    -0.024 A 
HETATM   23  C13 LIG X 999      47.821 130.720  12.914  1.00  0.00     0.001 A 
HETATM   24  C14 LIG X 999      48.038 129.466  13.489  1.00  0.00     0.001 A 
HETATM   25  C15 LIG X 999      47.527 129.174  14.756  1.00  0.00     0.012 A 
HETATM   26  C17 LIG X 999      46.271 129.861  16.731  1.00  0.00     0.041 A 
ENDBRANCH  15  17
ENDBRANCH   1  15
TORSDOF 6
ENDMDL
MODEL 3
REMARK VINA RESULT:      -6.1      2.331      7.065
REMARK  6 active torsions:
REMARK  status: ('A' for Active; 'I' for Inactive)
REMARK    1  A    between atoms: O1_2  and  C2_3 
REMARK    2  A    between atoms: C2_3  and  C3_5 
REMARK    3  A    between atoms: C6_9  and  N1_10 
REMARK    4  A    between atoms: N1_10  and  C7_11 
REMARK    5  A    between atoms: C7_11  and  N2_13 
REMARK    6  A    between atoms: N2_13  and  C8_14 
ROOT
HETATM    1  C7  LIG X 999      43.675 131.337  23.088  1.00  0.00     0.278 C 
HETATM    2  S2  LIG X 999      44.058 131.997  24.543  1.00  0.00    -0.033 SA
ENDROOT
BRANCH   1   3
HETATM    3  N1  LIG X 999      44.528 131.599  21.958  1.00  0.00     0.012 N 
HETATM    4  H6  LIG X 999      45.173 130.783  21.839  1.00  0.00     0.293 HD
HETATM    5  H7  LIG X 999      45.116 132.447  22.122  1.00  0.00     0.293 HD
BRANCH   3   6
HETATM    6  C6  LIG X 999      43.742 131.793  20.765  1.00  0.00     0.164 A 
HETATM    7  C3  LIG X 999      44.153 131.438  19.470  1.00  0.00     0.114 A 
HETATM    8  S1  LIG X 999      42.942 131.911  18.400  1.00  0.00    -0.094 SA
HETATM    9  C4  LIG X 999      41.897 132.558  19.544  1.00  0.00     0.053 A 
HETATM   10  C5  LIG X 999      42.483 132.420  20.793  1.00  0.00     0.046 A 
BRANCH   7  11
HETATM   11  C2  LIG X 999      45.411 130.794  19.050  1.00  0.00     0.302 C 
HETATM   12  O2  LIG X 999      46.067 130.115  19.886  1.00  0.00    -0.259 OA
BRANCH  11  13
HETATM   13  O1  LIG X 999      45.879 130.930  17.741  1.00  0.00    -0.322 OA
HETATM   14  C1  LIG X 999      45.888 129.854  16.811  1.00  0.00     0.213 C 
ENDBRANCH  11  13
ENDBRANCH   7  11
ENDBRANCH   3   6
ENDBRANCH   1   3
BRANCH   1  15
HETATM   15  N2  LIG X 999      42.745 130.242  23.041  1.00  0.00    -0.327 N 
HETATM   16  H8  LIG X 999      41.738 130.464  22.879  1.00  0.00     0.168 HD
BRANCH  15  17
HETATM   17  C8  LIG X 999      43.117 128.870  23.258  1.00  0.00     0.035 A 
HETATM   18  C9  LIG X 999      42.259 127.977  23.925  1.00  0.00     0.030 A 
HETATM   19  C10 LIG X 999      42.624 126.640  24.104  1.00  0.00     0.014 A 
HETATM   20  C11 LIG X 999      43.848 126.171  23.607  1.00  0.00    -0.026 A 
HETATM   21  C12 LIG X 999      44.224 124.830  23.779  1.00  0.00     0.012 A 
HETATM   22  C16 LIG X 999      44.710 127.057  22.916  1.00  0.00    -0.024 A 
HETATM   23  C13 LIG X 999      45.445 124.373  23.273  1.00  0.00     0.001 A 
HETATM   24  C14 LIG X 999      46.294 125.248  22.592  1.00  0.00     0.001 A 
HETATM   25  C15 LIG X 999      45.931 126.585  22.412  1.00  0.00     0.012 A 
HETATM   26  C17 LIG X 999      44.333 128.397  22.742  1.00  0.00     0.041 A 
ENDBRANCH  15  17
ENDBRANCH   1  15
TORSDOF 6
ENDMDL
MODEL 4
REMARK VINA RESULT:      -6.1      4.234      8.269
REMARK  6 active torsions:
REMARK  status: ('A' for Active; 'I' for Inactive)
REMARK    1  A    between atoms: O1_2  and  C2_3 
REMARK    2  A    between atoms: C2_3  and  C3_5 
REMARK    3  A    between atoms: C6_9  and  N1_10 
REMARK    4  A    between atoms: N1_10  and  C7_11 
REMARK    5  A    between atoms: C7_11  and  N2_13 
REMARK    6  A    between atoms: N2_13  and  C8_14 
ROOT
HETATM    1  C7  LIG X 999      42.743 130.621  23.789  1.00  0.00     0.278 C 
HETATM    2  S2  LIG X 999      43.328 132.050  24.351  1.00  0.00    -0.033 SA
ENDROOT
BRANCH   1   3
HETATM    3  N1  LIG X 999      42.388 130.513  22.398  1.00  0.00     0.012 N 
HETATM    4  H6  LIG X 999      41.558 131.126  22.223  1.00  0.00     0.293 HD
HETATM    5  H7  LIG X 999      42.117 129.533  22.156  1.00  0.00     0.293 HD
BRANCH   3   6
HETATM    6  C6  LIG X 999      43.491 130.917  21.561  1.00  0.00     0.164 A 
HETATM    7  C3  LIG X 999      43.395 131.824  20.494  1.00  0.00     0.114 A 
HETATM    8  S1  LIG X 999      44.915 131.934  19.777  1.00  0.00    -0.094 SA
HETATM    9  C4  LIG X 999      45.702 130.854  20.794  1.00  0.00     0.053 A 
HETATM   10  C5  LIG X 999      44.782 130.380  21.717  1.00  0.00     0.046 A 
BRANCH   7  11
HETATM   11  C2  LIG X 999      42.210 132.558  20.016  1.00  0.00     0.302 C 
HETATM   12  O2  LIG X 999      41.517 133.216  20.840  1.00  0.00    -0.259 OA
BRANCH  11  13
HETATM   13  O1  LIG X 999      41.849 132.531  18.667  1.00  0.00    -0.322 OA
HETATM   14  C1  LIG X 999      42.599 131.828  17.684  1.00  0.00     0.213 C 
ENDBRANCH  11  13
ENDBRANCH   7  11
ENDBRANCH   3   6
ENDBRANCH   1   3
BRANCH   1  15
HETATM   15  N2  LIG X 999      42.940 129.430  24.569  1.00  0.00    -0.327 N 
HETATM   16  H8  LIG X 999      43.326 129.537  25.534  1.00  0.00     0.168 HD
BRANCH  15  17
HETATM   17  C8  LIG X 999      42.688 128.103  24.076  1.00  0.00     0.035 A 
HETATM   18  C9  LIG X 999      43.727 127.302  23.568  1.00  0.00     0.030 A 
HETATM   19  C10 LIG X 999      43.469 126.005  23.119  1.00  0.00     0.014 A 
HETATM   20  C11 LIG X 999      42.170 125.482  23.182  1.00  0.00    -0.026 A 
HETATM   21  C12 LIG X 999      41.900 124.179  22.734  1.00  0.00     0.012 A 
HETATM   22  C16 LIG X 999      41.121 126.272  23.710  1.00  0.00    -0.024 A 
HETATM   23  C13 LIG X 999      40.601 123.667  22.808  1.00  0.00     0.001 A 
HETATM   24  C14 LIG X 999      39.567 124.448  23.330  1.00  0.00     0.001 A 
HETATM   25  C15 LIG X 999      39.823 125.745  23.780  1.00  0.00     0.012 A 
HETATM   26  C17 LIG X 999      41.391 127.574  24.159  1.00  0.00     0.041 A 
ENDBRANCH  15  17
ENDBRANCH   1  15
TORSDOF 6
ENDMDL
MODEL 5
REMARK VINA RESULT:      -6.0      3.049      7.853
REMARK  6 active torsions:
REMARK  status: ('A' for Active; 'I' for Inactive)
REMARK    1  A    between atoms: O1_2  and  C2_3 
REMARK    2  A    between atoms: C2_3  and  C3_5 
REMARK    3  A    between atoms: C6_9  and  N1_10 
REMARK    4  A    between atoms: N1_10  and  C7_11 
REMARK    5  A    between atoms: C7_11  and  N2_13 
REMARK    6  A    between atoms: N2_13  and  C8_14 
ROOT
HETATM    1  C7  LIG X 999      43.550 131.395  23.285  1.00  0.00     0.278 C 
HETATM    2  S2  LIG X 999      44.087 132.180  24.625  1.00  0.00    -0.033 SA
ENDROOT
BRANCH   1   3
HETATM    3  N1  LIG X 999      44.409 131.319  22.132  1.00  0.00     0.012 N 
HETATM    4  H6  LIG X 999      44.783 130.344  22.066  1.00  0.00     0.293 HD
HETATM    5  H7  LIG X 999      45.223 131.967  22.228  1.00  0.00     0.293 HD
BRANCH   3   6
HETATM    6  C6  LIG X 999      43.679 131.656  20.934  1.00  0.00     0.164 A 
HETATM    7  C3  LIG X 999      44.136 131.423  19.627  1.00  0.00     0.114 A 
HETATM    8  S1  LIG X 999      42.982 132.036  18.565  1.00  0.00    -0.094 SA
HETATM    9  C4  LIG X 999      41.905 132.592  19.726  1.00  0.00     0.053 A 
HETATM   10  C5  LIG X 999      42.434 132.310  20.977  1.00  0.00     0.046 A 
BRANCH   7  11
HETATM   11  C2  LIG X 999      45.395 130.791  19.193  1.00  0.00     0.302 C 
HETATM   12  O2  LIG X 999      46.060 130.108  20.019  1.00  0.00    -0.259 OA
BRANCH  11  13
HETATM   13  O1  LIG X 999      45.854 130.942  17.883  1.00  0.00    -0.322 OA
HETATM   14  C1  LIG X 999      45.850 129.880  16.938  1.00  0.00     0.213 C 
ENDBRANCH  11  13
ENDBRANCH   7  11
ENDBRANCH   3   6
ENDBRANCH   1   3
BRANCH   1  15
HETATM   15  N2  LIG X 999      42.430 130.501  23.400  1.00  0.00    -0.327 N 
HETATM   16  H8  LIG X 999      41.475 130.921  23.458  1.00  0.00     0.168 HD
BRANCH  15  17
HETATM   17  C8  LIG X 999      42.556 129.072  23.495  1.00  0.00     0.035 A 
HETATM   18  C9  LIG X 999      43.817 128.449  23.507  1.00  0.00     0.030 A 
HETATM   19  C10 LIG X 999      43.923 127.061  23.628  1.00  0.00     0.014 A 
HETATM   20  C11 LIG X 999      42.769 126.274  23.750  1.00  0.00    -0.026 A 
HETATM   21  C12 LIG X 999      42.864 124.879  23.873  1.00  0.00     0.012 A 
HETATM   22  C16 LIG X 999      41.496 126.893  23.759  1.00  0.00    -0.024 A 
HETATM   23  C13 LIG X 999      41.706 124.106  24.001  1.00  0.00     0.001 A 
HETATM   24  C14 LIG X 999      40.450 124.718  24.010  1.00  0.00     0.001 A 
HETATM   25  C15 LIG X 999      40.343 126.106  23.890  1.00  0.00     0.012 A 
HETATM   26  C17 LIG X 999      41.402 128.288  23.638  1.00  0.00     0.041 A 
ENDBRANCH  15  17
ENDBRANCH   1  15
TORSDOF 6
ENDMDL
MODEL 6
REMARK VINA RESULT:      -5.9      2.384      3.077
REMARK  6 active torsions:
REMARK  status: ('A' for Active; 'I' for Inactive)
REMARK    1  A    between atoms: O1_2  and  C2_3 
REMARK    2  A    between atoms: C2_3  and  C3_5 
REMARK    3  A    between atoms: C6_9  and  N1_10 
REMARK    4  A    between atoms: N1_10  and  C7_11 
REMARK    5  A    between atoms: C7_11  and  N2_13 
REMARK    6  A    between atoms: N2_13  and  C8_14 
ROOT
HETATM    1  C7  LIG X 999      45.196 130.874  19.776  1.00  0.00     0.278 C 
HETATM    2  S2  LIG X 999      46.353 129.751  20.092  1.00  0.00    -0.033 SA
ENDROOT
BRANCH   1   3
HETATM    3  N1  LIG X 999      45.119 132.047  20.608  1.00  0.00     0.012 N 
HETATM    4  H6  LIG X 999      44.791 132.846  20.017  1.00  0.00     0.293 HD
HETATM    5  H7  LIG X 999      46.059 132.298  20.989  1.00  0.00     0.293 HD
BRANCH   3   6
HETATM    6  C6  LIG X 999      44.208 131.830  21.705  1.00  0.00     0.164 A 
HETATM    7  C3  LIG X 999      42.843 132.159  21.688  1.00  0.00     0.114 A 
HETATM    8  S1  LIG X 999      42.208 131.785  23.202  1.00  0.00    -0.094 SA
HETATM    9  C4  LIG X 999      43.628 131.209  23.886  1.00  0.00     0.053 A 
HETATM   10  C5  LIG X 999      44.635 131.304  22.937  1.00  0.00     0.046 A 
BRANCH   7  11
HETATM   11  C2  LIG X 999      42.054 132.750  20.592  1.00  0.00     0.302 C 
HETATM   12  O2  LIG X 999      40.995 133.380  20.863  1.00  0.00    -0.259 OA
BRANCH  11  13
HETATM   13  O1  LIG X 999      42.467 132.619  19.264  1.00  0.00    -0.322 OA
HETATM   14  C1  LIG X 999      41.586 132.228  18.219  1.00  0.00     0.213 C 
ENDBRANCH  11  13
ENDBRANCH   7  11
ENDBRANCH   3   6
ENDBRANCH   1   3
BRANCH   1  15
HETATM   15  N2  LIG X 999      44.543 130.864  18.496  1.00  0.00    -0.327 N 
HETATM   16  H8  LIG X 999      43.516 130.675  18.473  1.00  0.00     0.168 HD
BRANCH  15  17
HETATM   17  C8  LIG X 999      45.233 131.043  17.247  1.00  0.00     0.035 A 
HETATM   18  C9  LIG X 999      45.274 132.295  16.607  1.00  0.00     0.030 A 
HETATM   19  C10 LIG X 999      45.972 132.458  15.408  1.00  0.00     0.014 A 
HETATM   20  C11 LIG X 999      46.652 131.374  14.835  1.00  0.00    -0.026 A 
HETATM   21  C12 LIG X 999      47.357 131.527  13.631  1.00  0.00     0.012 A 
HETATM   22  C16 LIG X 999      46.634 130.115  15.481  1.00  0.00    -0.024 A 
HETATM   23  C13 LIG X 999      48.036 130.440  13.073  1.00  0.00     0.001 A 
HETATM   24  C14 LIG X 999      48.018 129.198  13.712  1.00  0.00     0.001 A 
HETATM   25  C15 LIG X 999      47.321 129.033  14.911  1.00  0.00     0.012 A 
HETATM   26  C17 LIG X 999      45.930 129.963  16.685  1.00  0.00     0.041 A 
ENDBRANCH  15  17
ENDBRANCH   1  15
TORSDOF 6
ENDMDL
MODEL 7
REMARK VINA RESULT:      -5.8      2.256      3.268
REMARK  6 active torsions:
REMARK  status: ('A' for Active; 'I' for Inactive)
REMARK    1  A    between atoms: O1_2  and  C2_3 
REMARK    2  A    between atoms: C2_3  and  C3_5 
REMARK    3  A    between atoms: C6_9  and  N1_10 
REMARK    4  A    between atoms: N1_10  and  C7_11 
REMARK    5  A    between atoms: C7_11  and  N2_13 
REMARK    6  A    between atoms: N2_13  and  C8_14 
ROOT
HETATM    1  C7  LIG X 999      44.709 129.906  22.140  1.00  0.00     0.278 C 
HETATM    2  S2  LIG X 999      45.413 128.647  21.353  1.00  0.00    -0.033 SA
ENDROOT
BRANCH   1   3
HETATM    3  N1  LIG X 999      44.591 129.853  23.574  1.00  0.00     0.012 N 
HETATM    4  H6  LIG X 999      44.514 130.834  23.932  1.00  0.00     0.293 HD
HETATM    5  H7  LIG X 999      45.442 129.423  24.003  1.00  0.00     0.293 HD
BRANCH   3   6
HETATM    6  C6  LIG X 999      43.432 129.088  23.959  1.00  0.00     0.164 A 
HETATM    7  C3  LIG X 999      43.453 127.731  24.321  1.00  0.00     0.114 A 
HETATM    8  S1  LIG X 999      41.866 127.257  24.625  1.00  0.00    -0.094 SA
HETATM    9  C4  LIG X 999      41.143 128.739  24.310  1.00  0.00     0.053 A 
HETATM   10  C5  LIG X 999      42.137 129.638  23.954  1.00  0.00     0.046 A 
BRANCH   7  11
HETATM   11  C2  LIG X 999      44.611 126.823  24.411  1.00  0.00     0.302 C 
HETATM   12  O2  LIG X 999      45.757 127.303  24.625  1.00  0.00    -0.259 OA
BRANCH  11  13
HETATM   13  O1  LIG X 999      44.449 125.443  24.261  1.00  0.00    -0.322 OA
HETATM   14  C1  LIG X 999      44.783 124.755  23.064  1.00  0.00     0.213 C 
ENDBRANCH  11  13
ENDBRANCH   7  11
ENDBRANCH   3   6
ENDBRANCH   1   3
BRANCH   1  15
HETATM   15  N2  LIG X 999      44.565 131.163  21.458  1.00  0.00    -0.327 N 
HETATM   16  H8  LIG X 999      44.604 132.036  22.031  1.00  0.00     0.168 HD
BRANCH  15  17
HETATM   17  C8  LIG X 999      44.318 131.282  20.047  1.00  0.00     0.035 A 
HETATM   18  C9  LIG X 999      43.099 131.786  19.558  1.00  0.00     0.030 A 
HETATM   19  C10 LIG X 999      42.885 131.920  18.184  1.00  0.00     0.014 A 
HETATM   20  C11 LIG X 999      43.892 131.564  17.276  1.00  0.00    -0.026 A 
HETATM   21  C12 LIG X 999      43.688 131.696  15.893  1.00  0.00     0.012 A 
HETATM   22  C16 LIG X 999      45.130 131.075  17.758  1.00  0.00    -0.024 A 
HETATM   23  C13 LIG X 999      44.703 131.343  14.998  1.00  0.00     0.001 A 
HETATM   24  C14 LIG X 999      45.924 130.861  15.475  1.00  0.00     0.001 A 
HETATM   25  C15 LIG X 999      46.140 130.726  16.848  1.00  0.00     0.012 A 
HETATM   26  C17 LIG X 999      45.334 130.945  19.140  1.00  0.00     0.041 A 
ENDBRANCH  15  17
ENDBRANCH   1  15
TORSDOF 6
ENDMDL
MODEL 8
REMARK VINA RESULT:      -5.8      2.985      4.545
REMARK  6 active torsions:
REMARK  status: ('A' for Active; 'I' for Inactive)
REMARK    1  A    between atoms: O1_2  and  C2_3 
REMARK    2  A    between atoms: C2_3  and  C3_5 
REMARK    3  A    between atoms: C6_9  and  N1_10 
REMARK    4  A    between atoms: N1_10  and  C7_11 
REMARK    5  A    between atoms: C7_11  and  N2_13 
REMARK    6  A    between atoms: N2_13  and  C8_14 
ROOT
HETATM    1  C7  LIG X 999      44.753 128.416  23.033  1.00  0.00     0.278 C 
HETATM    2  S2  LIG X 999      45.649 127.288  22.242  1.00  0.00    -0.033 SA
ENDROOT
BRANCH   1   3
HETATM    3  N1  LIG X 999      44.109 128.053  24.268  1.00  0.00     0.012 N 
HETATM    4  H6  LIG X 999      44.051 128.907  24.871  1.00  0.00     0.293 HD
HETATM    5  H7  LIG X 999      44.668 127.336  24.785  1.00  0.00     0.293 HD
BRANCH   3   6
HETATM    6  C6  LIG X 999      42.790 127.529  24.016  1.00  0.00     0.164 A 
HETATM    7  C3  LIG X 999      42.482 126.165  23.889  1.00  0.00     0.114 A 
HETATM    8  S1  LIG X 999      40.839 126.041  23.538  1.00  0.00    -0.094 SA
HETATM    9  C4  LIG X 999      40.501 127.685  23.547  1.00  0.00     0.053 A 
HETATM   10  C5  LIG X 999      41.677 128.367  23.821  1.00  0.00     0.046 A 
BRANCH   7  11
HETATM   11  C2  LIG X 999      43.385 125.005  24.000  1.00  0.00     0.302 C 
HETATM   12  O2  LIG X 999      44.474 125.128  24.625  1.00  0.00    -0.259 OA
BRANCH  11  13
HETATM   13  O1  LIG X 999      43.047 123.779  23.421  1.00  0.00    -0.322 OA
HETATM   14  C1  LIG X 999      43.649 123.301  22.225  1.00  0.00     0.213 C 
ENDBRANCH  11  13
ENDBRANCH   7  11
ENDBRANCH   3   6
ENDBRANCH   1   3
BRANCH   1  15
HETATM   15  N2  LIG X 999      44.924 129.804  22.699  1.00  0.00    -0.327 N 
HETATM   16  H8  LIG X 999      45.251 130.450  23.451  1.00  0.00     0.168 HD
BRANCH  15  17
HETATM   17  C8  LIG X 999      44.617 130.357  21.407  1.00  0.00     0.035 A 
HETATM   18  C9  LIG X 999      43.505 131.198  21.218  1.00  0.00     0.030 A 
HETATM   19  C10 LIG X 999      43.237 131.749  19.962  1.00  0.00     0.014 A 
HETATM   20  C11 LIG X 999      44.083 131.478  18.878  1.00  0.00    -0.026 A 
HETATM   21  C12 LIG X 999      43.824 132.028  17.612  1.00  0.00     0.012 A 
HETATM   22  C16 LIG X 999      45.216 130.649  19.063  1.00  0.00    -0.024 A 
HETATM   23  C13 LIG X 999      44.680 131.755  16.541  1.00  0.00     0.001 A 
HETATM   24  C14 LIG X 999      45.797 130.937  16.724  1.00  0.00     0.001 A 
HETATM   25  C15 LIG X 999      46.067 130.385  17.979  1.00  0.00     0.012 A 
HETATM   26  C17 LIG X 999      45.476 130.102  20.328  1.00  0.00     0.041 A 
ENDBRANCH  15  17
ENDBRANCH   1  15
TORSDOF 6
ENDMDL
MODEL 9
REMARK VINA RESULT:      -5.8      4.714      6.764
REMARK  6 active torsions:
REMARK  status: ('A' for Active; 'I' for Inactive)
REMARK    1  A    between atoms: O1_2  and  C2_3 
REMARK    2  A    between atoms: C2_3  and  C3_5 
REMARK    3  A    between atoms: C6_9  and  N1_10 
REMARK    4  A    between atoms: N1_10  and  C7_11 
REMARK    5  A    between atoms: C7_11  and  N2_13 
REMARK    6  A    between atoms: N2_13  and  C8_14 
ROOT
HETATM    1  C7  LIG X 999      45.134 126.315  23.513  1.00  0.00     0.278 C 
HETATM    2  S2  LIG X 999      46.387 126.054  22.483  1.00  0.00    -0.033 SA
ENDROOT
BRANCH   1   3
HETATM    3  N1  LIG X 999      44.503 125.185  24.143  1.00  0.00     0.012 N 
HETATM    4  H6  LIG X 999      44.388 125.399  25.161  1.00  0.00     0.293 HD
HETATM    5  H7  LIG X 999      45.099 124.330  24.062  1.00  0.00     0.293 HD
BRANCH   3   6
HETATM    6  C6  LIG X 999      43.219 124.921  23.541  1.00  0.00     0.164 A 
HETATM    7  C3  LIG X 999      42.970 123.911  22.598  1.00  0.00     0.114 A 
HETATM    8  S1  LIG X 999      41.355 124.027  22.138  1.00  0.00    -0.094 SA
HETATM    9  C4  LIG X 999      40.955 125.334  23.112  1.00  0.00     0.053 A 
HETATM   10  C5  LIG X 999      42.088 125.710  23.818  1.00  0.00     0.046 A 
BRANCH   7  11
HETATM   11  C2  LIG X 999      43.909 122.917  22.047  1.00  0.00     0.302 C 
HETATM   12  O2  LIG X 999      43.654 122.375  20.937  1.00  0.00    -0.259 OA
BRANCH  11  13
HETATM   13  O1  LIG X 999      45.071 122.573  22.741  1.00  0.00    -0.322 OA
HETATM   14  C1  LIG X 999      46.323 122.376  22.096  1.00  0.00     0.213 C 
ENDBRANCH  11  13
ENDBRANCH   7  11
ENDBRANCH   3   6
ENDBRANCH   1   3
BRANCH   1  15
HETATM   15  N2  LIG X 999      44.933 127.634  24.049  1.00  0.00    -0.327 N 
HETATM   16  H8  LIG X 999      45.177 127.795  25.051  1.00  0.00     0.168 HD
BRANCH  15  17
HETATM   17  C8  LIG X 999      44.367 128.722  23.298  1.00  0.00     0.035 A 
HETATM   18  C9  LIG X 999      43.152 129.319  23.680  1.00  0.00     0.030 A 
HETATM   19  C10 LIG X 999      42.629 130.393  22.956  1.00  0.00     0.014 A 
HETATM   20  C11 LIG X 999      43.319 130.896  21.844  1.00  0.00    -0.026 A 
HETATM   21  C12 LIG X 999      42.804 131.976  21.110  1.00  0.00     0.012 A 
HETATM   22  C16 LIG X 999      44.553 130.315  21.463  1.00  0.00    -0.024 A 
HETATM   23  C13 LIG X 999      43.505 132.472  20.007  1.00  0.00     0.001 A 
HETATM   24  C14 LIG X 999      44.722 131.898  19.632  1.00  0.00     0.001 A 
HETATM   25  C15 LIG X 999      45.247 130.824  20.355  1.00  0.00     0.012 A 
HETATM   26  C17 LIG X 999      45.069 129.237  22.198  1.00  0.00     0.041 A 
ENDBRANCH  15  17
ENDBRANCH   1  15
TORSDOF 6
ENDMDL
