REMARK VINA RESULT:      -5.9      1.024      2.177
REMARK  5 active torsions:
REMARK  status: ('A' for Active; 'I' for Inactive)
REMARK    1  A    between atoms: C3_3  and  O1_4 
REMARK    2  A    between atoms: O1_4  and  C4_5 
REMARK    3  A    between atoms: C4_5  and  O2_6 
REMARK    4  A    between atoms: C5_8  and  C6_9 
REMARK    5  A    between atoms: C11_14  and  O3_15 
ROOT
HETATM    1  C1  LIG X 999      44.302 132.152  24.420  1.00  0.00     0.014 C 
HETATM    2  C2  LIG X 999      44.202 131.320  23.554  1.00  0.00    -0.091 C 
HETATM    3  C3  LIG X 999      44.080 130.312  22.500  1.00  0.00     0.270 C 
ENDROOT
BRANCH   3   4
HETATM    4  O1  LIG X 999      43.764 130.958  21.273  1.00  0.00    -0.319 OA
BRANCH   4   5
HETATM    5  C4  LIG X 999      42.702 131.858  21.117  1.00  0.00     0.179 C 
HETATM    6  C5  LIG X 999      42.393 132.337  19.907  1.00  0.00     0.075 C 
BRANCH   5   7
HETATM    7  O2  LIG X 999      41.962 132.300  22.216  1.00  0.00    -0.341 OA
HETATM    8  H4  LIG X 999      41.459 133.178  22.215  1.00  0.00     0.220 HD
ENDBRANCH   5   7
BRANCH   6   9
HETATM    9  C6  LIG X 999      43.088 131.953  18.658  1.00  0.00    -0.031 A 
HETATM   10  C7  LIG X 999      42.446 132.178  17.430  1.00  0.00     0.012 A 
HETATM   11  C8  LIG X 999      43.059 131.816  16.229  1.00  0.00     0.013 A 
HETATM   12  C9  LIG X 999      44.321 131.205  16.236  1.00  0.00    -0.023 A 
HETATM   13  C10 LIG X 999      44.945 130.839  15.033  1.00  0.00     0.049 A 
HETATM   14  C15 LIG X 999      44.966 130.949  17.467  1.00  0.00    -0.025 A 
HETATM   15  C11 LIG X 999      46.201 130.221  15.042  1.00  0.00     0.069 A 
HETATM   16  C13 LIG X 999      46.837 129.966  16.272  1.00  0.00     0.037 A 
HETATM   17  C14 LIG X 999      46.222 130.326  17.473  1.00  0.00     0.015 A 
HETATM   18  C16 LIG X 999      44.343 131.314  18.670  1.00  0.00     0.024 A 
BRANCH  15  19
HETATM   19  O3  LIG X 999      46.780 129.877  13.811  1.00  0.00    -0.356 OA
HETATM   20  C12 LIG X 999      48.138 129.480  13.643  1.00  0.00     0.210 C 
ENDBRANCH  15  19
ENDBRANCH   6   9
ENDBRANCH   4   5
ENDBRANCH   3   4
TORSDOF 5
