REMARK VINA RESULT:      -8.0      1.135      2.897
REMARK  2 active torsions:
REMARK  status: ('A' for Active; 'I' for Inactive)
REMARK    1  A    between atoms: N1_1  and  C1_2 
REMARK    2  A    between atoms: C2_5  and  C3_6 
ROOT
HETATM    1  C3  LIG X 999      45.289 130.874  18.380  1.00  0.00     0.030 A 
HETATM    2  C4  LIG X 999      46.209 130.492  19.372  1.00  0.00     0.017 A 
HETATM    3  C5  LIG X 999      45.954 130.736  20.720  1.00  0.00     0.002 A 
HETATM    4  C6  LIG X 999      44.775 131.365  21.109  1.00  0.00     0.012 A 
HETATM    5  C7  LIG X 999      43.822 131.735  20.150  1.00  0.00    -0.025 A 
HETATM    6  C8  LIG X 999      42.626 132.345  20.558  1.00  0.00     0.012 A 
HETATM    7  C9  LIG X 999      41.652 132.685  19.620  1.00  0.00     0.001 A 
HETATM    8  C10 LIG X 999      41.858 132.407  18.270  1.00  0.00     0.001 A 
HETATM    9  C11 LIG X 999      43.044 131.804  17.844  1.00  0.00     0.013 A 
HETATM   10  C12 LIG X 999      44.060 131.479  18.771  1.00  0.00    -0.011 A 
ENDROOT
BRANCH   1  11
HETATM   11  C2  LIG X 999      45.675 130.655  16.965  1.00  0.00     0.205 A 
HETATM   12  N3  LIG X 999      45.620 129.457  16.346  1.00  0.00    -0.119 NA
HETATM   13  N2  LIG X 999      46.072 129.644  15.115  1.00  0.00    -0.103 NA
HETATM   14  C1  LIG X 999      46.389 130.949  15.038  1.00  0.00     0.265 A 
HETATM   15  O1  LIG X 999      46.156 131.577  16.163  1.00  0.00    -0.255 OA
BRANCH  14  16
HETATM   16  N1  LIG X 999      46.918 131.570  13.871  1.00  0.00    -0.362 N 
HETATM   17  H1  LIG X 999      47.851 132.036  13.898  1.00  0.00     0.159 HD
HETATM   18  H2  LIG X 999      46.372 131.563  12.980  1.00  0.00     0.159 HD
ENDBRANCH  14  16
ENDBRANCH   1  11
TORSDOF 2
