REMARK VINA RESULT:      -7.7      0.000      0.000
REMARK  1 active torsions:
REMARK  status: ('A' for Active; 'I' for Inactive)
REMARK    1  A    between atoms: C14_14  and  N1_15 
ROOT
HETATM    1  N1  LIG X 999      42.671 131.204  23.485  1.00  0.00    -0.216 NA
HETATM    2  C15 LIG X 999      42.192 130.137  23.988  1.00  0.00     0.165 C 
HETATM    3  S1  LIG X 999      41.586 128.787  24.625  1.00  0.00    -0.055 SA
ENDROOT
BRANCH   1   4
HETATM    4  C14 LIG X 999      43.225 131.293  22.161  1.00  0.00     0.130 C 
HETATM    5  C13 LIG X 999      44.597 131.138  21.921  1.00  0.00     0.058 C 
HETATM    6  C11 LIG X 999      45.108 131.248  20.620  1.00  0.00    -0.045 C 
HETATM    7  C10 LIG X 999      44.203 131.377  19.520  1.00  0.00     0.008 C 
HETATM    8  C12 LIG X 999      46.608 131.375  20.506  1.00  0.00     0.049 C 
HETATM    9  C4  LIG X 999      44.565 131.280  18.135  1.00  0.00    -0.013 C 
HETATM   10  C9  LIG X 999      42.843 131.661  19.838  1.00  0.00     0.045 C 
HETATM   11  C3  LIG X 999      45.754 130.662  17.681  1.00  0.00     0.013 C 
HETATM   12  C5  LIG X 999      43.643 131.727  17.144  1.00  0.00    -0.025 C 
HETATM   13  C2  LIG X 999      46.087 130.644  16.325  1.00  0.00     0.001 C 
HETATM   14  C1  LIG X 999      45.225 131.197  15.382  1.00  0.00     0.001 C 
HETATM   15  C6  LIG X 999      43.998 131.717  15.785  1.00  0.00     0.012 C 
HETATM   16  C7  LIG X 999      42.357 132.127  17.510  1.00  0.00     0.014 C 
HETATM   17  C8  LIG X 999      41.946 132.041  18.832  1.00  0.00     0.031 C 
HETATM   18  N2  LIG X 999      42.400 131.590  21.126  1.00  0.00    -0.340 N 
HETATM   19  H11 LIG X 999      41.390 131.765  21.337  1.00  0.00     0.167 HD
ENDBRANCH   1   4
TORSDOF 1
