REMARK VINA RESULT:      -7.0      1.549      2.462
REMARK  7 active torsions:
REMARK  status: ('A' for Active; 'I' for Inactive)
REMARK    1  A    between atoms: C2_2  and  C4_4 
REMARK    2  A    between atoms: C4_4  and  C5_5 
REMARK       I    between atoms: C5_5  and  N1_7 
REMARK    3  A    between atoms: N1_7  and  C6_8 
REMARK    4  A    between atoms: C6_8  and  C7_9 
REMARK    5  A    between atoms: C7_9  and  C8_10 
REMARK    6  A    between atoms: C8_10  and  O2_11 
REMARK    7  A    between atoms: O2_11  and  C9_12 
ROOT
HETATM    1  O2  LIG X 999      43.716 131.766  20.210  1.00  0.00    -0.351 OA
ENDROOT
BRANCH   1   2
HETATM    2  C8  LIG X 999      44.213 131.517  21.526  1.00  0.00     0.177 C 
BRANCH   2   3
HETATM    3  C7  LIG X 999      43.094 131.527  22.580  1.00  0.00     0.048 C 
BRANCH   3   4
HETATM    4  C6  LIG X 999      42.591 130.121  22.938  1.00  0.00     0.154 C 
BRANCH   4   5
HETATM    5  N1  LIG X 999      43.696 129.172  23.043  1.00  0.00    -0.256 NA
HETATM    6  C5  LIG X 999      43.564 127.856  23.590  1.00  0.00     0.238 C 
HETATM    7  O1  LIG X 999      42.433 127.418  23.935  1.00  0.00    -0.272 OA
BRANCH   6   8
HETATM    8  C4  LIG X 999      44.776 126.988  23.742  1.00  0.00     0.108 C 
BRANCH   8   9
HETATM    9  C2  LIG X 999      45.075 126.185  22.461  1.00  0.00    -0.014 C 
HETATM   10  C1  LIG X 999      46.583 125.961  22.275  1.00  0.00     0.010 C 
HETATM   11  C3  LIG X 999      44.345 124.837  22.502  1.00  0.00     0.010 C 
ENDBRANCH   8   9
ENDBRANCH   6   8
ENDBRANCH   4   5
ENDBRANCH   3   4
ENDBRANCH   2   3
ENDBRANCH   1   2
BRANCH   1  12
HETATM   12  C9  LIG X 999      44.333 131.378  19.009  1.00  0.00     0.069 A 
HETATM   13  C10 LIG X 999      45.532 130.661  19.091  1.00  0.00     0.037 A 
HETATM   14  C11 LIG X 999      46.219 130.282  17.936  1.00  0.00     0.015 A 
HETATM   15  C12 LIG X 999      45.708 130.609  16.674  1.00  0.00    -0.026 A 
HETATM   16  C13 LIG X 999      46.397 130.245  15.506  1.00  0.00     0.012 A 
HETATM   17  C17 LIG X 999      44.485 131.315  16.576  1.00  0.00    -0.023 A 
HETATM   18  C14 LIG X 999      45.874 130.575  14.252  1.00  0.00     0.001 A 
HETATM   19  C15 LIG X 999      44.665 131.269  14.155  1.00  0.00     0.001 A 
HETATM   20  C16 LIG X 999      43.971 131.638  15.310  1.00  0.00     0.012 A 
HETATM   21  C18 LIG X 999      43.799 131.687  17.743  1.00  0.00     0.049 A 
ENDBRANCH   1  12
TORSDOF 7
