REMARK VINA RESULT:      -7.1      4.519      6.647
REMARK  3 active torsions:
REMARK  status: ('A' for Active; 'I' for Inactive)
REMARK    1  A    between atoms: C6_6  and  C7_7 
REMARK    2  A    between atoms: C7_7  and  N1_8 
REMARK    3  A    between atoms: C8_12  and  N4_13 
ROOT
HETATM    1  N1  LIG X 999      45.722 130.274  20.917  1.00  0.00    -0.065 NA
HETATM    2  N2  LIG X 999      45.537 129.129  21.329  1.00  0.00    -0.164 NA
HETATM    3  N3  LIG X 999      45.352 127.984  21.740  1.00  0.00     0.068 N 
ENDROOT
BRANCH   1   4
HETATM    4  C7  LIG X 999      44.660 130.996  20.232  1.00  0.00     0.267 A 
HETATM    5  O1  LIG X 999      44.450 132.262  20.816  1.00  0.00    -0.314 OA
HETATM    6  C8  LIG X 999      43.422 131.310  20.985  1.00  0.00     0.349 A 
BRANCH   4   7
HETATM    7  C6  LIG X 999      44.683 131.060  18.732  1.00  0.00     0.007 A 
HETATM    8  C5  LIG X 999      45.761 130.510  18.026  1.00  0.00     0.024 A 
HETATM    9  C4  LIG X 999      45.805 130.589  16.625  1.00  0.00    -0.025 A 
HETATM   10  C3  LIG X 999      46.877 130.036  15.910  1.00  0.00     0.012 A 
HETATM   11  C11 LIG X 999      44.757 131.238  15.927  1.00  0.00    -0.026 A 
HETATM   12  C2  LIG X 999      46.909 130.122  14.514  1.00  0.00     0.001 A 
HETATM   13  C1  LIG X 999      45.874 130.761  13.826  1.00  0.00     0.001 A 
HETATM   14  C12 LIG X 999      44.800 131.318  14.526  1.00  0.00     0.012 A 
HETATM   15  C10 LIG X 999      43.687 131.796  16.642  1.00  0.00     0.013 A 
HETATM   16  C9  LIG X 999      43.654 131.711  18.036  1.00  0.00     0.013 A 
ENDBRANCH   4   7
BRANCH   6  17
HETATM   17  N4  LIG X 999      43.386 130.826  22.357  1.00  0.00    -0.077 NA
HETATM   18  N5  LIG X 999      43.421 131.617  23.299  1.00  0.00    -0.165 NA
HETATM   19  N6  LIG X 999      43.456 132.407  24.241  1.00  0.00     0.068 N 
ENDBRANCH   6  17
ENDBRANCH   1   4
TORSDOF 3
