REMARK VINA RESULT:      -6.1      1.313      1.869
REMARK  3 active torsions:
REMARK  status: ('A' for Active; 'I' for Inactive)
REMARK    1  A    between atoms: C3_3  and  S1_4 
REMARK    2  A    between atoms: S1_4  and  C4_7 
REMARK    3  A    between atoms: C17_20  and  N1_21 
ROOT
HETATM    1  C1  LIG X 999      45.587 133.377  24.554  1.00  0.00     0.013 C 
HETATM    2  C2  LIG X 999      44.501 132.857  24.588  1.00  0.00    -0.102 C 
HETATM    3  C3  LIG X 999      43.180 132.225  24.625  1.00  0.00     0.238 C 
ENDROOT
BRANCH   3   4
HETATM    4  S1  LIG X 999      43.093 130.923  23.405  1.00  0.00     0.186 S 
HETATM    5  O1  LIG X 999      44.342 130.094  23.521  1.00  0.00    -0.222 OA
HETATM    6  O2  LIG X 999      41.915 130.032  23.681  1.00  0.00    -0.222 OA
BRANCH   4   7
HETATM    7  C4  LIG X 999      42.967 131.611  21.770  1.00  0.00     0.071 C 
HETATM    8  C5  LIG X 999      41.954 132.550  21.535  1.00  0.00     0.024 C 
HETATM    9  C6  LIG X 999      41.816 133.148  20.291  1.00  0.00     0.002 C 
HETATM   10  C7  LIG X 999      42.636 132.768  19.233  1.00  0.00     0.013 C 
HETATM   11  C8  LIG X 999      43.592 131.741  19.383  1.00  0.00    -0.011 C 
HETATM   12  C9  LIG X 999      43.832 131.240  20.701  1.00  0.00    -0.003 C 
HETATM   13  C13 LIG X 999      44.396 131.274  18.288  1.00  0.00     0.008 C 
HETATM   14  C10 LIG X 999      44.957 130.429  20.923  1.00  0.00     0.016 C 
HETATM   15  C11 LIG X 999      45.849 130.150  19.898  1.00  0.00     0.031 C 
HETATM   16  C12 LIG X 999      45.590 130.564  18.590  1.00  0.00     0.045 C 
HETATM   17  N4  LIG X 999      46.486 130.256  17.606  1.00  0.00    -0.338 N 
HETATM   18  C17 LIG X 999      46.255 130.570  16.302  1.00  0.00     0.165 C 
HETATM   19  H13 LIG X 999      47.373 129.767  17.862  1.00  0.00     0.167 HD
HETATM   20  C16 LIG X 999      45.041 131.139  15.935  1.00  0.00     0.061 C 
HETATM   21  C14 LIG X 999      44.071 131.433  16.904  1.00  0.00    -0.045 C 
HETATM   22  C15 LIG X 999      42.688 131.746  16.385  1.00  0.00     0.049 C 
BRANCH  18  23
HETATM   23  N1  LIG X 999      47.214 130.266  15.280  1.00  0.00    -0.054 NA
HETATM   24  N2  LIG X 999      47.079 130.649  14.118  1.00  0.00    -0.160 NA
HETATM   25  N3  LIG X 999      46.945 131.030  12.956  1.00  0.00     0.068 N 
ENDBRANCH  18  23
ENDBRANCH   4   7
ENDBRANCH   3   4
TORSDOF 3
