MODEL 1
REMARK VINA RESULT:      -8.5      0.000      0.000
REMARK  1 active torsions:
REMARK  status: ('A' for Active; 'I' for Inactive)
REMARK    1  A    between atoms: C2_2  and  N1_3 
ROOT
HETATM    1  N1  LIG X 999      46.461 130.806  13.711  1.00  0.00    -0.073 NA
HETATM    2  N2  LIG X 999      47.398 130.007  13.743  1.00  0.00    -0.162 NA
HETATM    3  N3  LIG X 999      48.335 129.210  13.772  1.00  0.00     0.068 N 
ENDROOT
BRANCH   1   4
HETATM    4  C2  LIG X 999      45.624 131.052  14.850  1.00  0.00     0.094 A 
HETATM    5  C1  LIG X 999      44.308 131.533  14.711  1.00  0.00     0.035 A 
HETATM    6  C10 LIG X 999      43.514 131.765  15.838  1.00  0.00     0.014 A 
HETATM    7  C9  LIG X 999      44.022 131.520  17.120  1.00  0.00    -0.025 A 
HETATM    8  C4  LIG X 999      45.353 131.033  17.269  1.00  0.00    -0.023 A 
HETATM    9  C8  LIG X 999      43.230 131.752  18.262  1.00  0.00     0.021 A 
HETATM   10  C3  LIG X 999      46.138 130.806  16.129  1.00  0.00     0.046 A 
HETATM   11  C5  LIG X 999      45.869 130.788  18.556  1.00  0.00     0.021 A 
HETATM   12  C6  LIG X 999      45.050 131.025  19.661  1.00  0.00    -0.024 A 
HETATM   13  C7  LIG X 999      43.777 131.490  19.519  1.00  0.00    -0.024 A 
HETATM   14  C14 LIG X 999      45.386 130.861  21.091  1.00  0.00     0.276 C 
HETATM   15  C11 LIG X 999      43.144 131.680  20.841  1.00  0.00     0.276 C 
HETATM   16  N4  LIG X 999      44.114 131.124  21.837  1.00  0.00    -0.067 N 
HETATM   17  C12 LIG X 999      43.589 129.859  22.406  1.00  0.00     0.272 C 
HETATM   18  C13 LIG X 999      44.344 132.088  22.938  1.00  0.00     0.272 C 
ENDBRANCH   1   4
TORSDOF 1
ENDMDL
MODEL 2
REMARK VINA RESULT:      -8.4      0.894      1.059
REMARK  1 active torsions:
REMARK  status: ('A' for Active; 'I' for Inactive)
REMARK    1  A    between atoms: C2_2  and  N1_3 
ROOT
HETATM    1  N1  LIG X 999      46.901 129.928  14.792  1.00  0.00    -0.073 NA
HETATM    2  N2  LIG X 999      47.300 130.625  13.858  1.00  0.00    -0.162 NA
HETATM    3  N3  LIG X 999      47.701 131.318  12.924  1.00  0.00     0.068 N 
ENDROOT
BRANCH   1   4
HETATM    4  C2  LIG X 999      45.987 130.423  15.781  1.00  0.00     0.094 A 
HETATM    5  C1  LIG X 999      44.839 131.156  15.426  1.00  0.00     0.035 A 
HETATM    6  C10 LIG X 999      43.965 131.627  16.411  1.00  0.00     0.014 A 
HETATM    7  C9  LIG X 999      44.224 131.372  17.764  1.00  0.00    -0.025 A 
HETATM    8  C4  LIG X 999      45.384 130.630  18.130  1.00  0.00    -0.023 A 
HETATM    9  C8  LIG X 999      43.350 131.843  18.763  1.00  0.00     0.021 A 
HETATM   10  C3  LIG X 999      46.252 130.165  17.131  1.00  0.00     0.046 A 
HETATM   11  C5  LIG X 999      45.650 130.373  19.489  1.00  0.00     0.021 A 
HETATM   12  C6  LIG X 999      44.756 130.852  20.447  1.00  0.00    -0.024 A 
HETATM   13  C7  LIG X 999      43.647 131.561  20.097  1.00  0.00    -0.024 A 
HETATM   14  C14 LIG X 999      44.846 130.722  21.918  1.00  0.00     0.276 C 
HETATM   15  C11 LIG X 999      42.892 131.972  21.300  1.00  0.00     0.276 C 
HETATM   16  N4  LIG X 999      43.570 131.296  22.452  1.00  0.00    -0.067 N 
HETATM   17  C12 LIG X 999      42.710 130.212  22.983  1.00  0.00     0.272 C 
HETATM   18  C13 LIG X 999      43.847 132.266  23.537  1.00  0.00     0.272 C 
ENDBRANCH   1   4
TORSDOF 1
ENDMDL
MODEL 3
REMARK VINA RESULT:      -7.5      1.375      2.849
REMARK  1 active torsions:
REMARK  status: ('A' for Active; 'I' for Inactive)
REMARK    1  A    between atoms: C2_2  and  N1_3 
ROOT
HETATM    1  N1  LIG X 999      44.607 131.685  15.271  1.00  0.00    -0.073 NA
HETATM    2  N2  LIG X 999      45.372 131.340  14.369  1.00  0.00    -0.162 NA
HETATM    3  N3  LIG X 999      46.134 130.996  13.467  1.00  0.00     0.068 N 
ENDROOT
BRANCH   1   4
HETATM    4  C2  LIG X 999      44.832 131.336  16.643  1.00  0.00     0.094 A 
HETATM    5  C1  LIG X 999      45.948 130.574  17.040  1.00  0.00     0.035 A 
HETATM    6  C10 LIG X 999      46.144 130.247  18.385  1.00  0.00     0.014 A 
HETATM    7  C9  LIG X 999      45.228 130.677  19.354  1.00  0.00    -0.025 A 
HETATM    8  C4  LIG X 999      44.098 131.449  18.962  1.00  0.00    -0.023 A 
HETATM    9  C8  LIG X 999      45.416 130.352  20.713  1.00  0.00     0.021 A 
HETATM   10  C3  LIG X 999      43.914 131.768  17.608  1.00  0.00     0.046 A 
HETATM   11  C5  LIG X 999      43.174 131.881  19.932  1.00  0.00     0.021 A 
HETATM   12  C6  LIG X 999      43.400 131.543  21.267  1.00  0.00    -0.024 A 
HETATM   13  C7  LIG X 999      44.481 130.805  21.643  1.00  0.00    -0.024 A 
HETATM   14  C14 LIG X 999      42.558 131.867  22.440  1.00  0.00     0.276 C 
HETATM   15  C11 LIG X 999      44.464 130.566  23.103  1.00  0.00     0.276 C 
HETATM   16  N4  LIG X 999      43.325 131.382  23.632  1.00  0.00    -0.067 N 
HETATM   17  C12 LIG X 999      43.843 132.536  24.405  1.00  0.00     0.272 C 
HETATM   18  C13 LIG X 999      42.460 130.562  24.512  1.00  0.00     0.272 C 
ENDBRANCH   1   4
TORSDOF 1
ENDMDL
