REMARK VINA RESULT:      -4.8      7.910      9.088
REMARK  2 active torsions:
REMARK  status: ('A' for Active; 'I' for Inactive)
REMARK    1  A    between atoms: C9_10  and  N2_11 
REMARK       I    between atoms: N2_11  and  C10_12 
REMARK    2  A    between atoms: C10_12  and  C11_14 
ROOT
HETATM    1  C11 LIG X 999      52.281 123.495  19.525  1.00  0.00     0.282 C 
HETATM    2 CL1  LIG X 999      52.349 124.010  17.822  1.00  0.00    -0.099 Cl
HETATM    3  C12 LIG X 999      53.005 124.461  20.358  1.00  0.00     0.089 C 
HETATM    4  N3  LIG X 999      53.575 125.224  21.015  1.00  0.00    -0.195 NA
ENDROOT
BRANCH   1   5
HETATM    5  C10 LIG X 999      50.856 123.395  19.971  1.00  0.00     0.276 C 
HETATM    6  N2  LIG X 999      50.478 123.890  21.264  1.00  0.00    -0.212 NA
HETATM    7  O1  LIG X 999      49.990 122.930  19.182  1.00  0.00    -0.268 OA
BRANCH   6   8
HETATM    8  C9  LIG X 999      49.235 123.653  21.940  1.00  0.00     0.061 A 
HETATM    9  C8  LIG X 999      49.063 122.570  22.823  1.00  0.00     0.032 A 
HETATM   10  C7  LIG X 999      47.846 122.378  23.483  1.00  0.00     0.014 A 
HETATM   11  C6  LIG X 999      46.786 123.272  23.283  1.00  0.00    -0.025 A 
HETATM   12  C5  LIG X 999      45.557 123.088  23.946  1.00  0.00     0.021 A 
HETATM   13  C14 LIG X 999      46.961 124.383  22.410  1.00  0.00    -0.023 A 
HETATM   14  C4  LIG X 999      44.531 124.007  23.717  1.00  0.00    -0.024 A 
HETATM   15  C3  LIG X 999      43.179 124.023  24.316  1.00  0.00     0.276 C 
HETATM   16  C16 LIG X 999      44.697 125.069  22.882  1.00  0.00    -0.024 A 
HETATM   17  N1  LIG X 999      42.449 125.139  23.632  1.00  0.00    -0.067 N 
HETATM   18  C1  LIG X 999      41.795 126.021  24.625  1.00  0.00     0.272 C 
HETATM   19  C2  LIG X 999      41.417 124.586  22.724  1.00  0.00     0.272 C 
HETATM   20  C17 LIG X 999      43.473 125.896  22.844  1.00  0.00     0.276 C 
HETATM   21  C15 LIG X 999      45.903 125.291  22.213  1.00  0.00     0.021 A 
HETATM   22  C13 LIG X 999      48.187 124.563  21.755  1.00  0.00     0.044 A 
ENDBRANCH   6   8
ENDBRANCH   1   5
TORSDOF 2
