REMARK VINA RESULT:      -6.6      2.229      3.220
REMARK  7 active torsions:
REMARK  status: ('A' for Active; 'I' for Inactive)
REMARK    1  A    between atoms: O1_2  and  C1_3 
REMARK    2  A    between atoms: C1_3  and  C2_4 
REMARK    3  A    between atoms: C1_3  and  C3_8 
REMARK    4  A    between atoms: C2_4  and  N1_5 
REMARK    5  A    between atoms: C3_8  and  O2_9 
REMARK    6  A    between atoms: O2_9  and  C4_10 
REMARK    7  A    between atoms: C9_15  and  N4_16 
ROOT
HETATM    1  N1  LIG X 999      42.104 128.867  23.569  1.00  0.00    -0.113 NA
HETATM    2  N2  LIG X 999      41.301 127.961  23.792  1.00  0.00    -0.168 NA
HETATM    3  N3  LIG X 999      40.499 127.055  24.014  1.00  0.00     0.068 N 
ENDROOT
BRANCH   1   4
HETATM    4  C2  LIG X 999      42.361 129.893  24.570  1.00  0.00     0.223 C 
BRANCH   4   5
HETATM    5  C1  LIG X 999      43.843 130.309  24.570  1.00  0.00     0.165 C 
BRANCH   5   6
HETATM    6  O1  LIG X 999      44.643 129.301  24.002  1.00  0.00    -0.392 OA
HETATM    7  H1  LIG X 999      44.892 128.667  24.724  1.00  0.00     0.210 HD
ENDBRANCH   5   6
BRANCH   5   8
HETATM    8  C3  LIG X 999      44.082 131.657  23.871  1.00  0.00     0.209 C 
BRANCH   8   9
HETATM    9  O2  LIG X 999      43.057 131.895  22.909  1.00  0.00    -0.349 OA
BRANCH   9  10
HETATM   10  C4  LIG X 999      43.239 131.835  21.520  1.00  0.00     0.069 A 
HETATM   11  C5  LIG X 999      42.230 132.349  20.697  1.00  0.00     0.037 A 
HETATM   12  C6  LIG X 999      42.357 132.315  19.307  1.00  0.00     0.015 A 
HETATM   13  C7  LIG X 999      43.502 131.762  18.716  1.00  0.00    -0.024 A 
HETATM   14  C8  LIG X 999      43.638 131.723  17.319  1.00  0.00     0.046 A 
HETATM   15  C12 LIG X 999      44.528 131.239  19.537  1.00  0.00    -0.023 A 
HETATM   16  C9  LIG X 999      44.791 131.166  16.733  1.00  0.00     0.094 A 
HETATM   17  C10 LIG X 999      45.801 130.652  17.555  1.00  0.00     0.035 A 
HETATM   18  C11 LIG X 999      45.674 130.686  18.946  1.00  0.00     0.014 A 
HETATM   19  C13 LIG X 999      44.392 131.278  20.933  1.00  0.00     0.049 A 
BRANCH  16  20
HETATM   20  N4  LIG X 999      44.963 131.110  15.310  1.00  0.00    -0.073 NA
HETATM   21  N5  LIG X 999      44.049 131.367  14.525  1.00  0.00    -0.162 NA
HETATM   22  N6  LIG X 999      43.138 131.625  13.740  1.00  0.00     0.068 N 
ENDBRANCH  16  20
ENDBRANCH   9  10
ENDBRANCH   8   9
ENDBRANCH   5   8
ENDBRANCH   4   5
ENDBRANCH   1   4
TORSDOF 7
