REMARK VINA RESULT:      -5.5      1.739      2.652
REMARK  3 active torsions:
REMARK  status: ('A' for Active; 'I' for Inactive)
REMARK    1  A    between atoms: C3_3  and  S1_4 
REMARK    2  A    between atoms: S1_4  and  C4_7 
REMARK    3  A    between atoms: C13_16  and  N1_17 
ROOT
HETATM    1  C1  LIG X 999      46.735 130.037  14.386  1.00  0.00     0.013 C 
HETATM    2  C2  LIG X 999      46.434 130.065  15.553  1.00  0.00    -0.102 C 
HETATM    3  C3  LIG X 999      46.067 130.103  16.970  1.00  0.00     0.238 C 
ENDROOT
BRANCH   3   4
HETATM    4  S1  LIG X 999      44.921 131.434  17.272  1.00  0.00     0.185 S 
HETATM    5  O1  LIG X 999      43.766 131.321  16.318  1.00  0.00    -0.222 OA
HETATM    6  O2  LIG X 999      45.605 132.753  17.042  1.00  0.00    -0.222 OA
BRANCH   4   7
HETATM    7  C4  LIG X 999      44.329 131.347  18.929  1.00  0.00     0.060 A 
HETATM    8  C5  LIG X 999      43.274 132.167  19.340  1.00  0.00     0.024 A 
HETATM    9  C6  LIG X 999      42.783 132.080  20.643  1.00  0.00     0.011 A 
HETATM   10  C7  LIG X 999      43.335 131.168  21.557  1.00  0.00    -0.022 A 
HETATM   11  C8  LIG X 999      44.406 130.338  21.146  1.00  0.00    -0.048 A 
HETATM   12  C13 LIG X 999      42.814 131.152  22.985  1.00  0.00     0.217 C 
HETATM   13  C9  LIG X 999      44.883 130.427  19.828  1.00  0.00     0.031 A 
HETATM   14  C10 LIG X 999      44.969 129.261  22.043  1.00  0.00     0.039 C 
HETATM   15  C11 LIG X 999      44.670 129.504  23.524  1.00  0.00     0.007 C 
HETATM   16  C12 LIG X 999      43.195 129.854  23.726  1.00  0.00     0.038 C 
BRANCH  12  17
HETATM   17  N1  LIG X 999      43.291 132.338  23.712  1.00  0.00    -0.071 N 
HETATM   18  H14 LIG X 999      44.014 132.064  24.416  1.00  0.00     0.275 HD
HETATM   19  H15 LIG X 999      42.496 132.781  24.227  1.00  0.00     0.275 HD
HETATM   20  H16 LIG X 999      43.697 133.043  23.055  1.00  0.00     0.275 HD
ENDBRANCH  12  17
ENDBRANCH   4   7
ENDBRANCH   3   4
TORSDOF 3
