MODEL 1
REMARK VINA RESULT:      -8.5      0.000      0.000
REMARK  4 active torsions:
REMARK  status: ('A' for Active; 'I' for Inactive)
REMARK    1  A    between atoms: C3_3  and  O1_4 
REMARK    2  A    between atoms: O1_4  and  C4_5 
REMARK    3  A    between atoms: C13_14  and  C14_15 
REMARK    4  A    between atoms: C14_15  and  O2_16 
ROOT
HETATM    1  C1  LIG X 999      48.375 129.555  13.375  1.00  0.00     0.014 C 
HETATM    2  C2  LIG X 999      47.517 129.490  14.219  1.00  0.00    -0.091 C 
HETATM    3  C3  LIG X 999      46.477 129.412  15.245  1.00  0.00     0.268 C 
ENDROOT
BRANCH   3   4
HETATM    4  O1  LIG X 999      46.451 130.633  15.978  1.00  0.00    -0.339 OA
BRANCH   4   5
HETATM    5  C4  LIG X 999      45.516 130.946  16.979  1.00  0.00     0.079 A 
HETATM    6  C5  LIG X 999      45.825 130.822  18.347  1.00  0.00     0.049 A 
HETATM    7  C6  LIG X 999      44.878 131.156  19.326  1.00  0.00    -0.023 A 
HETATM    8  C7  LIG X 999      45.185 131.033  20.691  1.00  0.00     0.012 A 
HETATM    9  C11 LIG X 999      43.604 131.627  18.936  1.00  0.00    -0.025 A 
HETATM   10  C8  LIG X 999      44.236 131.375  21.657  1.00  0.00     0.001 A 
HETATM   11  C9  LIG X 999      42.976 131.841  21.272  1.00  0.00     0.001 A 
HETATM   12  C10 LIG X 999      42.658 131.968  19.917  1.00  0.00     0.012 A 
HETATM   13  C12 LIG X 999      43.295 131.750  17.575  1.00  0.00     0.024 A 
HETATM   14  C13 LIG X 999      44.237 131.400  16.594  1.00  0.00    -0.001 A 
BRANCH  14  15
HETATM   15  C14 LIG X 999      43.893 131.567  15.139  1.00  0.00     0.205 C 
BRANCH  15  16
HETATM   16  O2  LIG X 999      44.911 132.285  14.500  1.00  0.00    -0.396 OA
HETATM   17  H12 LIG X 999      45.632 132.399  15.174  1.00  0.00     0.209 HD
ENDBRANCH  15  16
ENDBRANCH  14  15
ENDBRANCH   4   5
ENDBRANCH   3   4
TORSDOF 4
ENDMDL
MODEL 2
REMARK VINA RESULT:      -8.1      2.035      5.543
REMARK  4 active torsions:
REMARK  status: ('A' for Active; 'I' for Inactive)
REMARK    1  A    between atoms: C3_3  and  O1_4 
REMARK    2  A    between atoms: O1_4  and  C4_5 
REMARK    3  A    between atoms: C13_14  and  C14_15 
REMARK    4  A    between atoms: C14_15  and  O2_16 
ROOT
HETATM    1  C1  LIG X 999      44.005 129.620  23.174  1.00  0.00     0.014 C 
HETATM    2  C2  LIG X 999      44.650 129.920  22.201  1.00  0.00    -0.091 C 
HETATM    3  C3  LIG X 999      45.432 130.284  21.020  1.00  0.00     0.268 C 
ENDROOT
BRANCH   3   4
HETATM    4  O1  LIG X 999      44.674 131.183  20.217  1.00  0.00    -0.339 OA
BRANCH   4   5
HETATM    5  C4  LIG X 999      44.679 131.200  18.812  1.00  0.00     0.079 A 
HETATM    6  C5  LIG X 999      45.767 130.700  18.068  1.00  0.00     0.049 A 
HETATM    7  C6  LIG X 999      45.740 130.715  16.667  1.00  0.00    -0.023 A 
HETATM    8  C7  LIG X 999      46.823 130.217  15.924  1.00  0.00     0.012 A 
HETATM    9  C11 LIG X 999      44.609 131.231  15.993  1.00  0.00    -0.025 A 
HETATM   10  C8  LIG X 999      46.782 130.231  14.528  1.00  0.00     0.001 A 
HETATM   11  C9  LIG X 999      45.665 130.741  13.862  1.00  0.00     0.001 A 
HETATM   12  C10 LIG X 999      44.580 131.239  14.589  1.00  0.00     0.012 A 
HETATM   13  C12 LIG X 999      43.528 131.729  16.731  1.00  0.00     0.024 A 
HETATM   14  C13 LIG X 999      43.561 131.730  18.135  1.00  0.00    -0.001 A 
BRANCH  14  15
HETATM   15  C14 LIG X 999      42.376 132.244  18.907  1.00  0.00     0.205 C 
BRANCH  15  16
HETATM   16  O2  LIG X 999      41.523 132.938  18.041  1.00  0.00    -0.396 OA
HETATM   17  H12 LIG X 999      41.179 133.713  18.556  1.00  0.00     0.209 HD
ENDBRANCH  15  16
ENDBRANCH  14  15
ENDBRANCH   4   5
ENDBRANCH   3   4
TORSDOF 4
ENDMDL
MODEL 3
REMARK VINA RESULT:      -8.0      1.984      6.154
REMARK  4 active torsions:
REMARK  status: ('A' for Active; 'I' for Inactive)
REMARK    1  A    between atoms: C3_3  and  O1_4 
REMARK    2  A    between atoms: O1_4  and  C4_5 
REMARK    3  A    between atoms: C13_14  and  C14_15 
REMARK    4  A    between atoms: C14_15  and  O2_16 
ROOT
HETATM    1  C1  LIG X 999      42.791 131.741  22.635  1.00  0.00     0.014 C 
HETATM    2  C2  LIG X 999      42.740 131.819  21.433  1.00  0.00    -0.091 C 
HETATM    3  C3  LIG X 999      42.679 131.914  19.975  1.00  0.00     0.268 C 
ENDROOT
BRANCH   3   4
HETATM    4  O1  LIG X 999      43.952 132.317  19.479  1.00  0.00    -0.339 OA
BRANCH   4   5
HETATM    5  C4  LIG X 999      44.661 131.655  18.462  1.00  0.00     0.079 A 
HETATM    6  C5  LIG X 999      44.469 131.967  17.102  1.00  0.00     0.049 A 
HETATM    7  C6  LIG X 999      45.200 131.302  16.108  1.00  0.00    -0.023 A 
HETATM    8  C7  LIG X 999      45.011 131.613  14.751  1.00  0.00     0.012 A 
HETATM    9  C11 LIG X 999      46.142 130.314  16.473  1.00  0.00    -0.025 A 
HETATM   10  C8  LIG X 999      45.749 130.949  13.769  1.00  0.00     0.001 A 
HETATM   11  C9  LIG X 999      46.680 129.972  14.130  1.00  0.00     0.001 A 
HETATM   12  C10 LIG X 999      46.879 129.653  15.476  1.00  0.00     0.012 A 
HETATM   13  C12 LIG X 999      46.332 130.002  17.825  1.00  0.00     0.024 A 
HETATM   14  C13 LIG X 999      45.589 130.656  18.821  1.00  0.00    -0.001 A 
BRANCH  14  15
HETATM   15  C14 LIG X 999      45.831 130.324  20.269  1.00  0.00     0.205 C 
BRANCH  15  16
HETATM   16  O2  LIG X 999      46.187 131.489  20.958  1.00  0.00    -0.396 OA
HETATM   17  H12 LIG X 999      45.680 132.228  20.531  1.00  0.00     0.209 HD
ENDBRANCH  15  16
ENDBRANCH  14  15
ENDBRANCH   4   5
ENDBRANCH   3   4
TORSDOF 4
ENDMDL
MODEL 4
REMARK VINA RESULT:      -7.2      2.031      5.287
REMARK  4 active torsions:
REMARK  status: ('A' for Active; 'I' for Inactive)
REMARK    1  A    between atoms: C3_3  and  O1_4 
REMARK    2  A    between atoms: O1_4  and  C4_5 
REMARK    3  A    between atoms: C13_14  and  C14_15 
REMARK    4  A    between atoms: C14_15  and  O2_16 
ROOT
HETATM    1  C1  LIG X 999      46.783 133.146  21.453  1.00  0.00     0.014 C 
HETATM    2  C2  LIG X 999      46.277 132.083  21.193  1.00  0.00    -0.091 C 
HETATM    3  C3  LIG X 999      45.662 130.794  20.878  1.00  0.00     0.268 C 
ENDROOT
BRANCH   3   4
HETATM    4  O1  LIG X 999      44.544 131.006  20.022  1.00  0.00    -0.339 OA
BRANCH   4   5
HETATM    5  C4  LIG X 999      44.613 131.080  18.620  1.00  0.00     0.079 A 
HETATM    6  C5  LIG X 999      45.734 130.611  17.907  1.00  0.00     0.049 A 
HETATM    7  C6  LIG X 999      45.770 130.682  16.508  1.00  0.00    -0.023 A 
HETATM    8  C7  LIG X 999      46.886 130.215  15.795  1.00  0.00     0.012 A 
HETATM    9  C11 LIG X 999      44.669 131.224  15.805  1.00  0.00    -0.025 A 
HETATM   10  C8  LIG X 999      46.909 130.285  14.401  1.00  0.00     0.001 A 
HETATM   11  C9  LIG X 999      45.822 130.820  13.706  1.00  0.00     0.001 A 
HETATM   12  C10 LIG X 999      44.704 131.288  14.402  1.00  0.00     0.012 A 
HETATM   13  C12 LIG X 999      43.555 131.691  16.513  1.00  0.00     0.024 A 
HETATM   14  C13 LIG X 999      43.525 131.635  17.916  1.00  0.00    -0.001 A 
BRANCH  14  15
HETATM   15  C14 LIG X 999      42.305 132.117  18.653  1.00  0.00     0.205 C 
BRANCH  15  16
HETATM   16  O2  LIG X 999      41.543 132.933  17.808  1.00  0.00    -0.396 OA
HETATM   17  H12 LIG X 999      41.027 133.539  18.401  1.00  0.00     0.209 HD
ENDBRANCH  15  16
ENDBRANCH  14  15
ENDBRANCH   4   5
ENDBRANCH   3   4
TORSDOF 4
ENDMDL
MODEL 5
REMARK VINA RESULT:      -7.1      1.694      5.790
REMARK  4 active torsions:
REMARK  status: ('A' for Active; 'I' for Inactive)
REMARK    1  A    between atoms: C3_3  and  O1_4 
REMARK    2  A    between atoms: O1_4  and  C4_5 
REMARK    3  A    between atoms: C13_14  and  C14_15 
REMARK    4  A    between atoms: C14_15  and  O2_16 
ROOT
HETATM    1  C1  LIG X 999      44.484 131.337  21.765  1.00  0.00     0.014 C 
HETATM    2  C2  LIG X 999      45.175 130.893  20.883  1.00  0.00    -0.091 C 
HETATM    3  C3  LIG X 999      46.013 130.353  19.812  1.00  0.00     0.268 C 
ENDROOT
BRANCH   3   4
HETATM    4  O1  LIG X 999      45.191 130.028  18.695  1.00  0.00    -0.339 OA
BRANCH   4   5
HETATM    5  C4  LIG X 999      45.497 130.338  17.359  1.00  0.00     0.079 A 
HETATM    6  C5  LIG X 999      46.634 129.810  16.717  1.00  0.00     0.049 A 
HETATM    7  C6  LIG X 999      46.908 130.123  15.378  1.00  0.00    -0.023 A 
HETATM    8  C7  LIG X 999      48.040 129.597  14.737  1.00  0.00     0.012 A 
HETATM    9  C11 LIG X 999      46.031 130.972  14.664  1.00  0.00    -0.025 A 
HETATM   10  C8  LIG X 999      48.300 129.911  13.401  1.00  0.00     0.001 A 
HETATM   11  C9  LIG X 999      47.434 130.750  12.694  1.00  0.00     0.001 A 
HETATM   12  C10 LIG X 999      46.303 131.280  13.321  1.00  0.00     0.012 A 
HETATM   13  C12 LIG X 999      44.902 131.499  15.302  1.00  0.00     0.024 A 
HETATM   14  C13 LIG X 999      44.636 131.199  16.648  1.00  0.00    -0.001 A 
BRANCH  14  15
HETATM   15  C14 LIG X 999      43.400 131.754  17.304  1.00  0.00     0.205 C 
BRANCH  15  16
HETATM   16  O2  LIG X 999      43.763 132.449  18.464  1.00  0.00    -0.396 OA
HETATM   17  H12 LIG X 999      43.319 131.979  19.217  1.00  0.00     0.209 HD
ENDBRANCH  15  16
ENDBRANCH  14  15
ENDBRANCH   4   5
ENDBRANCH   3   4
TORSDOF 4
ENDMDL
MODEL 6
REMARK VINA RESULT:      -6.5      1.811      2.788
REMARK  4 active torsions:
REMARK  status: ('A' for Active; 'I' for Inactive)
REMARK    1  A    between atoms: C3_3  and  O1_4 
REMARK    2  A    between atoms: O1_4  and  C4_5 
REMARK    3  A    between atoms: C13_14  and  C14_15 
REMARK    4  A    between atoms: C14_15  and  O2_16 
ROOT
HETATM    1  C1  LIG X 999      46.504 130.906  14.927  1.00  0.00     0.014 C 
HETATM    2  C2  LIG X 999      46.171 130.626  16.051  1.00  0.00    -0.091 C 
HETATM    3  C3  LIG X 999      45.766 130.286  17.415  1.00  0.00     0.268 C 
ENDROOT
BRANCH   3   4
HETATM    4  O1  LIG X 999      45.472 131.483  18.127  1.00  0.00    -0.339 OA
BRANCH   4   5
HETATM    5  C4  LIG X 999      44.665 131.554  19.275  1.00  0.00     0.079 A 
HETATM    6  C5  LIG X 999      45.202 131.407  20.569  1.00  0.00     0.049 A 
HETATM    7  C6  LIG X 999      44.378 131.497  21.699  1.00  0.00    -0.023 A 
HETATM    8  C7  LIG X 999      44.912 131.352  22.989  1.00  0.00     0.012 A 
HETATM    9  C11 LIG X 999      42.994 131.743  21.539  1.00  0.00    -0.025 A 
HETATM   10  C8  LIG X 999      44.082 131.449  24.108  1.00  0.00     0.001 A 
HETATM   11  C9  LIG X 999      42.715 131.693  23.951  1.00  0.00     0.001 A 
HETATM   12  C10 LIG X 999      42.170 131.840  22.672  1.00  0.00     0.012 A 
HETATM   13  C12 LIG X 999      42.459 131.887  20.254  1.00  0.00     0.024 A 
HETATM   14  C13 LIG X 999      43.281 131.781  19.120  1.00  0.00    -0.001 A 
BRANCH  14  15
HETATM   15  C14 LIG X 999      42.688 131.968  17.750  1.00  0.00     0.205 C 
BRANCH  15  16
HETATM   16  O2  LIG X 999      41.603 132.849  17.830  1.00  0.00    -0.396 OA
HETATM   17  H12 LIG X 999      41.641 133.409  17.012  1.00  0.00     0.209 HD
ENDBRANCH  15  16
ENDBRANCH  14  15
ENDBRANCH   4   5
ENDBRANCH   3   4
TORSDOF 4
ENDMDL
MODEL 7
REMARK VINA RESULT:      -6.5      1.236      2.515
REMARK  4 active torsions:
REMARK  status: ('A' for Active; 'I' for Inactive)
REMARK    1  A    between atoms: C3_3  and  O1_4 
REMARK    2  A    between atoms: O1_4  and  C4_5 
REMARK    3  A    between atoms: C13_14  and  C14_15 
REMARK    4  A    between atoms: C14_15  and  O2_16 
ROOT
HETATM    1  C1  LIG X 999      46.477 131.004  13.381  1.00  0.00     0.014 C 
HETATM    2  C2  LIG X 999      45.477 130.910  14.048  1.00  0.00    -0.091 C 
HETATM    3  C3  LIG X 999      44.264 130.796  14.858  1.00  0.00     0.268 C 
ENDROOT
BRANCH   3   4
HETATM    4  O1  LIG X 999      44.264 131.823  15.845  1.00  0.00    -0.339 OA
BRANCH   4   5
HETATM    5  C4  LIG X 999      44.357 131.601  17.230  1.00  0.00     0.079 A 
HETATM    6  C5  LIG X 999      43.370 132.063  18.123  1.00  0.00     0.049 A 
HETATM    7  C6  LIG X 999      43.479 131.816  19.498  1.00  0.00    -0.023 A 
HETATM    8  C7  LIG X 999      42.495 132.275  20.389  1.00  0.00     0.012 A 
HETATM    9  C11 LIG X 999      44.587 131.091  19.994  1.00  0.00    -0.025 A 
HETATM   10  C8  LIG X 999      42.611 132.017  21.757  1.00  0.00     0.001 A 
HETATM   11  C9  LIG X 999      43.706 131.301  22.247  1.00  0.00     0.001 A 
HETATM   12  C10 LIG X 999      44.692 130.838  21.371  1.00  0.00     0.012 A 
HETATM   13  C12 LIG X 999      45.570 130.633  19.108  1.00  0.00     0.024 A 
HETATM   14  C13 LIG X 999      45.470 130.894  17.732  1.00  0.00    -0.001 A 
BRANCH  14  15
HETATM   15  C14 LIG X 999      46.523 130.367  16.795  1.00  0.00     0.205 C 
BRANCH  15  16
HETATM   16  O2  LIG X 999      46.370 128.982  16.656  1.00  0.00    -0.396 OA
HETATM   17  H12 LIG X 999      46.870 128.573  17.409  1.00  0.00     0.209 HD
ENDBRANCH  15  16
ENDBRANCH  14  15
ENDBRANCH   4   5
ENDBRANCH   3   4
TORSDOF 4
ENDMDL
MODEL 8
REMARK VINA RESULT:      -5.7      3.675      6.341
REMARK  4 active torsions:
REMARK  status: ('A' for Active; 'I' for Inactive)
REMARK    1  A    between atoms: C3_3  and  O1_4 
REMARK    2  A    between atoms: O1_4  and  C4_5 
REMARK    3  A    between atoms: C13_14  and  C14_15 
REMARK    4  A    between atoms: C14_15  and  O2_16 
ROOT
HETATM    1  C1  LIG X 999      44.781 127.632  22.836  1.00  0.00     0.014 C 
HETATM    2  C2  LIG X 999      44.596 128.593  23.540  1.00  0.00    -0.091 C 
HETATM    3  C3  LIG X 999      44.374 129.760  24.393  1.00  0.00     0.268 C 
ENDROOT
BRANCH   3   4
HETATM    4  O1  LIG X 999      44.695 130.940  23.664  1.00  0.00    -0.339 OA
BRANCH   4   5
HETATM    5  C4  LIG X 999      44.315 131.187  22.334  1.00  0.00     0.079 A 
HETATM    6  C5  LIG X 999      45.163 130.880  21.252  1.00  0.00     0.049 A 
HETATM    7  C6  LIG X 999      44.754 131.122  19.933  1.00  0.00    -0.023 A 
HETATM    8  C7  LIG X 999      45.598 130.816  18.854  1.00  0.00     0.012 A 
HETATM    9  C11 LIG X 999      43.476 131.675  19.686  1.00  0.00    -0.025 A 
HETATM   10  C8  LIG X 999      45.178 131.056  17.544  1.00  0.00     0.001 A 
HETATM   11  C9  LIG X 999      43.915 131.602  17.299  1.00  0.00     0.001 A 
HETATM   12  C10 LIG X 999      43.065 131.911  18.365  1.00  0.00     0.012 A 
HETATM   13  C12 LIG X 999      42.633 131.982  20.761  1.00  0.00     0.024 A 
HETATM   14  C13 LIG X 999      43.049 131.755  22.083  1.00  0.00    -0.001 A 
BRANCH  14  15
HETATM   15  C14 LIG X 999      42.114 132.066  23.221  1.00  0.00     0.205 C 
BRANCH  15  16
HETATM   16  O2  LIG X 999      41.645 130.870  23.777  1.00  0.00    -0.396 OA
HETATM   17  H12 LIG X 999      41.733 130.183  23.067  1.00  0.00     0.209 HD
ENDBRANCH  15  16
ENDBRANCH  14  15
ENDBRANCH   4   5
ENDBRANCH   3   4
TORSDOF 4
ENDMDL
