REMARK VINA RESULT:      -5.1      1.934      2.252
REMARK  4 active torsions:
REMARK  status: ('A' for Active; 'I' for Inactive)
REMARK    1  A    between atoms: O1_2  and  C1_3 
REMARK    2  A    between atoms: C1_3  and  O2_4 
REMARK    3  A    between atoms: O2_4  and  C2_5 
REMARK    4  A    between atoms: C5_8  and  N1_9 
ROOT
HETATM    1  N1  LIG X 999      45.712 132.050  21.617  1.00  0.00    -0.205 NA
HETATM    2  C6  LIG X 999      46.593 132.916  21.925  1.00  0.00     0.337 C 
HETATM    3  O3  LIG X 999      47.451 133.757  22.224  1.00  0.00    -0.260 OA
ENDROOT
BRANCH   1   4
HETATM    4  C5  LIG X 999      45.434 131.617  20.272  1.00  0.00     0.072 A 
HETATM    5  C4  LIG X 999      46.402 130.932  19.514  1.00  0.00     0.035 A 
HETATM    6  C3  LIG X 999      46.126 130.516  18.214  1.00  0.00     0.040 A 
HETATM    7  C2  LIG X 999      44.872 130.758  17.634  1.00  0.00     0.091 A 
HETATM    8  C12 LIG X 999      43.895 131.461  18.368  1.00  0.00     0.010 A 
HETATM    9  C7  LIG X 999      44.173 131.888  19.695  1.00  0.00     0.006 A 
HETATM   10  C11 LIG X 999      42.636 131.739  17.801  1.00  0.00     0.015 A 
HETATM   11  C8  LIG X 999      43.178 132.583  20.414  1.00  0.00     0.014 A 
HETATM   12  C9  LIG X 999      41.938 132.848  19.833  1.00  0.00     0.001 A 
HETATM   13  C10 LIG X 999      41.668 132.428  18.531  1.00  0.00     0.001 A 
BRANCH   7  14
HETATM   14  O2  LIG X 999      44.595 130.354  16.318  1.00  0.00    -0.273 OA
BRANCH  14  15
HETATM   15  C1  LIG X 999      45.497 129.687  15.472  1.00  0.00     0.265 C 
HETATM   16  N2  LIG X 999      46.349 130.375  14.757  1.00  0.00    -0.350 N 
HETATM   17  C13 LIG X 999      46.380 131.840  14.860  1.00  0.00     0.153 C 
HETATM   18  C14 LIG X 999      47.280 129.683  13.855  1.00  0.00     0.153 C 
BRANCH  15  19
HETATM   19  O1  LIG X 999      45.453 128.295  15.358  1.00  0.00    -0.327 OA
HETATM   20  H1  LIG X 999      46.277 127.721  15.495  1.00  0.00     0.221 HD
ENDBRANCH  15  19
ENDBRANCH  14  15
ENDBRANCH   7  14
ENDBRANCH   1   4
TORSDOF 4
