REMARK VINA RESULT:      -7.5      1.554      2.989
REMARK  4 active torsions:
REMARK  status: ('A' for Active; 'I' for Inactive)
REMARK    1  A    between atoms: C3_3  and  O1_4 
REMARK    2  A    between atoms: O1_4  and  C4_5 
REMARK    3  A    between atoms: C4_5  and  O2_6 
REMARK    4  A    between atoms: C5_8  and  C6_9 
ROOT
HETATM    1  C1  LIG X 999      42.377 131.736  24.060  1.00  0.00     0.014 C 
HETATM    2  C2  LIG X 999      42.522 131.880  22.873  1.00  0.00    -0.091 C 
HETATM    3  C3  LIG X 999      42.699 132.055  21.431  1.00  0.00     0.270 C 
ENDROOT
BRANCH   3   4
HETATM    4  O1  LIG X 999      43.354 130.911  20.899  1.00  0.00    -0.319 OA
BRANCH   4   5
HETATM    5  C4  LIG X 999      44.675 130.585  21.222  1.00  0.00     0.179 C 
HETATM    6  C5  LIG X 999      45.622 130.560  20.275  1.00  0.00     0.075 C 
BRANCH   5   7
HETATM    7  O2  LIG X 999      45.010 130.313  22.550  1.00  0.00    -0.341 OA
HETATM    8  H4  LIG X 999      44.366 130.486  23.315  1.00  0.00     0.220 HD
ENDBRANCH   5   7
BRANCH   6   9
HETATM    9  C6  LIG X 999      45.370 130.827  18.840  1.00  0.00    -0.031 A 
HETATM   10  C7  LIG X 999      44.257 131.572  18.407  1.00  0.00     0.012 A 
HETATM   11  C8  LIG X 999      44.033 131.787  17.045  1.00  0.00     0.013 A 
HETATM   12  C9  LIG X 999      44.907 131.248  16.092  1.00  0.00    -0.026 A 
HETATM   13  C10 LIG X 999      44.690 131.459  14.721  1.00  0.00     0.012 A 
HETATM   14  C14 LIG X 999      46.014 130.475  16.516  1.00  0.00    -0.025 A 
HETATM   15  C11 LIG X 999      45.565 130.909  13.780  1.00  0.00     0.001 A 
HETATM   16  C12 LIG X 999      46.658 130.145  14.198  1.00  0.00     0.001 A 
HETATM   17  C13 LIG X 999      46.884 129.926  15.559  1.00  0.00     0.012 A 
HETATM   18  C15 LIG X 999      46.231 130.263  17.886  1.00  0.00     0.024 A 
ENDBRANCH   6   9
ENDBRANCH   4   5
ENDBRANCH   3   4
TORSDOF 4
