REMARK VINA RESULT:      -7.2      1.090      2.138
REMARK  5 active torsions:
REMARK  status: ('A' for Active; 'I' for Inactive)
REMARK    1  A    between atoms: O1_2  and  C1_3 
REMARK    2  A    between atoms: C1_3  and  C5_11 
REMARK       I    between atoms: N1_4  and  C2_5 
REMARK    3  A    between atoms: C2_5  and  O3_7 
REMARK    4  A    between atoms: O3_7  and  C3_8 
REMARK    5  A    between atoms: C6_12  and  O4_13 
ROOT
HETATM    1  C5  LIG X 999      44.684 131.427  18.765  1.00  0.00     0.051 A 
HETATM    2  C6  LIG X 999      45.530 130.716  19.644  1.00  0.00     0.081 A 
HETATM    3  C7  LIG X 999      45.206 130.617  21.005  1.00  0.00     0.049 A 
HETATM    4  C8  LIG X 999      44.047 131.222  21.507  1.00  0.00    -0.023 A 
HETATM    5  C9  LIG X 999      43.721 131.125  22.869  1.00  0.00     0.012 A 
HETATM    6  C10 LIG X 999      42.561 131.731  23.359  1.00  0.00     0.001 A 
HETATM    7  C11 LIG X 999      41.719 132.436  22.495  1.00  0.00     0.001 A 
HETATM    8  C12 LIG X 999      42.033 132.540  21.136  1.00  0.00     0.012 A 
HETATM    9  C13 LIG X 999      43.197 131.936  20.632  1.00  0.00    -0.025 A 
HETATM   10  C14 LIG X 999      43.520 132.033  19.271  1.00  0.00     0.031 A 
ENDROOT
BRANCH   1  11
HETATM   11  C1  LIG X 999      44.993 131.536  17.318  1.00  0.00     0.181 C 
HETATM   12  N1  LIG X 999      44.021 131.530  16.454  1.00  0.00    -0.162 NA
HETATM   13  C2  LIG X 999      44.158 131.628  15.030  1.00  0.00     0.390 C 
HETATM   14  O2  LIG X 999      43.119 131.614  14.318  1.00  0.00    -0.236 OA
BRANCH  11  15
HETATM   15  O1  LIG X 999      46.319 131.651  16.891  1.00  0.00    -0.344 OA
HETATM   16  H1  LIG X 999      46.731 131.001  16.234  1.00  0.00     0.219 HD
ENDBRANCH  11  15
BRANCH  13  17
HETATM   17  O3  LIG X 999      45.422 131.726  14.433  1.00  0.00    -0.282 OA
BRANCH  17  18
HETATM   18  C3  LIG X 999      46.038 130.662  13.710  1.00  0.00     0.225 C 
HETATM   19 CL1  LIG X 999      46.184 129.251  14.787  1.00  0.00    -0.095 Cl
HETATM   20  C4  LIG X 999      47.425 131.078  13.228  1.00  0.00     0.057 C 
ENDBRANCH  17  18
ENDBRANCH  13  17
ENDBRANCH   1  11
BRANCH   2  21
HETATM   21  O4  LIG X 999      46.701 130.123  19.172  1.00  0.00    -0.360 OA
HETATM   22  H6  LIG X 999      47.586 130.615  19.174  1.00  0.00     0.217 HD
ENDBRANCH   2  21
TORSDOF 5
