REMARK VINA RESULT:      -7.3      2.498      3.906
REMARK  1 active torsions:
REMARK  status: ('A' for Active; 'I' for Inactive)
REMARK    1  A    between atoms: C2_2  and  N1_3 
ROOT
HETATM    1  N1  LIG X 999      44.115 131.383  23.418  1.00  0.00    -0.073 NA
HETATM    2  N2  LIG X 999      44.287 130.298  23.975  1.00  0.00    -0.162 NA
HETATM    3  N3  LIG X 999      44.459 129.216  24.532  1.00  0.00     0.068 N 
ENDROOT
BRANCH   1   4
HETATM    4  C2  LIG X 999      43.906 131.495  22.003  1.00  0.00     0.094 A 
HETATM    5  C1  LIG X 999      42.718 132.029  21.470  1.00  0.00     0.035 A 
HETATM    6  C11 LIG X 999      42.544 132.125  20.087  1.00  0.00     0.014 A 
HETATM    7  C10 LIG X 999      43.553 131.690  19.217  1.00  0.00    -0.024 A 
HETATM    8  C4  LIG X 999      44.749 131.151  19.746  1.00  0.00    -0.024 A 
HETATM    9  C9  LIG X 999      43.387 131.781  17.825  1.00  0.00     0.034 A 
HETATM   10  C3  LIG X 999      44.916 131.058  21.136  1.00  0.00     0.046 A 
HETATM   11  C5  LIG X 999      45.760 130.715  18.875  1.00  0.00     0.014 A 
HETATM   12  C6  LIG X 999      45.585 130.811  17.491  1.00  0.00     0.023 A 
HETATM   13  C7  LIG X 999      44.402 131.342  16.966  1.00  0.00     0.045 A 
HETATM   14  C8  LIG X 999      44.229 131.439  15.539  1.00  0.00     0.099 C 
HETATM   15  N4  LIG X 999      44.089 131.516  14.393  1.00  0.00    -0.191 NA
ENDBRANCH   1   4
TORSDOF 1
