REMARK VINA RESULT:      -6.3      1.911      2.444
REMARK  6 active torsions:
REMARK  status: ('A' for Active; 'I' for Inactive)
REMARK    1  A    between atoms: N1_15  and  C15_17 
REMARK    2  A    between atoms: C15_17  and  C16_18 
REMARK    3  A    between atoms: C16_18  and  C17_19 
REMARK    4  A    between atoms: C17_19  and  C18_20 
REMARK    5  A    between atoms: C18_20  and  C19_21 
REMARK    6  A    between atoms: C19_21  and  N2_22 
ROOT
HETATM    1  C1  LIG X 999      44.764 131.462  15.504  1.00  0.00     0.001 C 
HETATM    2  C2  LIG X 999      43.472 131.746  15.937  1.00  0.00     0.001 C 
HETATM    3  C3  LIG X 999      43.161 131.710  17.298  1.00  0.00     0.013 C 
HETATM    4  C4  LIG X 999      44.153 131.436  18.269  1.00  0.00    -0.013 C 
HETATM    5  C5  LIG X 999      45.433 131.030  17.796  1.00  0.00    -0.025 C 
HETATM    6  C6  LIG X 999      45.737 131.085  16.425  1.00  0.00     0.012 C 
HETATM    7  C7  LIG X 999      46.382 130.519  18.684  1.00  0.00     0.014 C 
HETATM    8  C8  LIG X 999      46.065 130.351  20.025  1.00  0.00     0.031 C 
HETATM    9  C9  LIG X 999      44.836 130.790  20.534  1.00  0.00     0.045 C 
HETATM   10  C10 LIG X 999      43.900 131.443  19.681  1.00  0.00     0.008 C 
HETATM   11  C11 LIG X 999      42.798 132.092  20.315  1.00  0.00    -0.045 C 
HETATM   12  C12 LIG X 999      41.963 133.174  19.672  1.00  0.00     0.049 C 
HETATM   13  C13 LIG X 999      42.535 131.834  21.667  1.00  0.00     0.056 C 
HETATM   14  C14 LIG X 999      43.411 131.060  22.436  1.00  0.00     0.101 C 
HETATM   15  N1  LIG X 999      43.125 130.830  23.696  1.00  0.00    -0.376 N 
HETATM   16  H11 LIG X 999      42.255 131.245  24.104  1.00  0.00     0.161 HD
HETATM   17  N3  LIG X 999      44.563 130.603  21.858  1.00  0.00    -0.342 N 
HETATM   18  H28 LIG X 999      45.275 130.101  22.431  1.00  0.00     0.167 HD
ENDROOT
BRANCH  15  19
HETATM   19  C15 LIG X 999      43.917 130.013  24.625  1.00  0.00     0.121 C 
BRANCH  19  20
HETATM   20  C16 LIG X 999      43.461 128.543  24.624  1.00  0.00     0.020 C 
BRANCH  20  21
HETATM   21  C17 LIG X 999      42.165 128.288  23.828  1.00  0.00     0.004 C 
BRANCH  21  22
HETATM   22  C18 LIG X 999      41.325 127.088  24.309  1.00  0.00     0.035 C 
BRANCH  22  23
HETATM   23  C19 LIG X 999      41.037 126.015  23.226  1.00  0.00     0.216 C 
HETATM   24  C21 LIG X 999      42.146 124.954  23.200  1.00  0.00     0.042 C 
BRANCH  23  25
HETATM   25  N2  LIG X 999      39.704 125.384  23.332  1.00  0.00     0.083 N 
HETATM   26  H21 LIG X 999      39.276 125.629  24.254  1.00  0.00     0.315 HD
HETATM   27  C20 LIG X 999      39.701 123.922  23.190  1.00  0.00     0.307 C 
ENDBRANCH  23  25
ENDBRANCH  22  23
ENDBRANCH  21  22
ENDBRANCH  20  21
ENDBRANCH  19  20
ENDBRANCH  15  19
TORSDOF 6
