REMARK VINA RESULT:      -6.3      2.068      3.784
REMARK  1 active torsions:
REMARK  status: ('A' for Active; 'I' for Inactive)
REMARK    1  A    between atoms: C5_5  and  N1_6 
ROOT
HETATM    1  N1  LIG X 999      42.180 131.822  19.003  1.00  0.00    -0.070 NA
HETATM    2  N2  LIG X 999      41.834 132.768  19.712  1.00  0.00    -0.162 NA
HETATM    3  N3  LIG X 999      41.486 133.714  20.417  1.00  0.00     0.068 N 
ENDROOT
BRANCH   1   4
HETATM    4  C5  LIG X 999      43.560 131.452  18.845  1.00  0.00     0.124 A 
HETATM    5  C4  LIG X 999      44.178 131.344  17.568  1.00  0.00     0.007 A 
HETATM    6  C3  LIG X 999      43.520 131.717  16.377  1.00  0.00     0.015 A 
HETATM    7  C10 LIG X 999      45.522 130.886  17.484  1.00  0.00    -0.024 A 
HETATM    8  C2  LIG X 999      44.155 131.583  15.139  1.00  0.00     0.001 A 
HETATM    9  C1  LIG X 999      45.458 131.092  15.066  1.00  0.00     0.001 A 
HETATM   10  C11 LIG X 999      46.144 130.752  16.232  1.00  0.00     0.012 A 
HETATM   11  C9  LIG X 999      46.235 130.588  18.651  1.00  0.00     0.014 A 
HETATM   12  C8  LIG X 999      45.642 130.754  19.900  1.00  0.00     0.026 A 
HETATM   13  C6  LIG X 999      44.318 131.189  20.004  1.00  0.00     0.077 A 
HETATM   14  C7  LIG X 999      43.731 131.326  21.314  1.00  0.00     0.102 C 
HETATM   15  N4  LIG X 999      43.260 131.436  22.366  1.00  0.00    -0.191 NA
ENDBRANCH   1   4
TORSDOF 1
