MODEL 1
REMARK VINA RESULT:      -8.7      0.000      0.000
REMARK  4 active torsions:
REMARK  status: ('A' for Active; 'I' for Inactive)
REMARK    1  A    between atoms: C3_3  and  O1_4 
REMARK    2  A    between atoms: O1_4  and  C4_5 
REMARK    3  A    between atoms: C4_5  and  O2_6 
REMARK    4  A    between atoms: C5_8  and  C6_9 
ROOT
HETATM    1  C1  LIG X 999      47.621 131.009  13.010  1.00  0.00     0.014 C 
HETATM    2  C2  LIG X 999      47.007 130.433  13.874  1.00  0.00    -0.091 C 
HETATM    3  C3  LIG X 999      46.263 129.737  14.924  1.00  0.00     0.270 C 
ENDROOT
BRANCH   3   4
HETATM    4  O1  LIG X 999      45.791 130.686  15.868  1.00  0.00    -0.319 OA
BRANCH   4   5
HETATM    5  C4  LIG X 999      44.552 131.322  15.740  1.00  0.00     0.179 C 
HETATM    6  C5  LIG X 999      43.847 131.642  16.833  1.00  0.00     0.075 C 
BRANCH   5   7
HETATM    7  O2  LIG X 999      44.058 131.629  14.472  1.00  0.00    -0.341 OA
HETATM    8  H4  LIG X 999      43.240 132.214  14.341  1.00  0.00     0.220 HD
ENDBRANCH   5   7
BRANCH   6   9
HETATM    9  C6  LIG X 999      44.339 131.379  18.203  1.00  0.00    -0.021 A 
HETATM   10  C7  LIG X 999      45.586 130.751  18.334  1.00  0.00     0.012 A 
HETATM   11  C8  LIG X 999      46.093 130.426  19.592  1.00  0.00     0.002 A 
HETATM   12  C9  LIG X 999      45.369 130.732  20.743  1.00  0.00     0.012 A 
HETATM   13  C10 LIG X 999      44.135 131.391  20.647  1.00  0.00    -0.025 A 
HETATM   14  C11 LIG X 999      43.423 131.720  21.811  1.00  0.00     0.012 A 
HETATM   15  C15 LIG X 999      43.611 131.736  19.371  1.00  0.00    -0.015 A 
HETATM   16  C12 LIG X 999      42.210 132.404  21.724  1.00  0.00     0.001 A 
HETATM   17  C13 LIG X 999      41.703 132.775  20.478  1.00  0.00     0.001 A 
HETATM   18  C14 LIG X 999      42.397 132.453  19.310  1.00  0.00     0.013 A 
ENDBRANCH   6   9
ENDBRANCH   4   5
ENDBRANCH   3   4
TORSDOF 4
ENDMDL
MODEL 2
REMARK VINA RESULT:      -8.7      1.038      2.527
REMARK  4 active torsions:
REMARK  status: ('A' for Active; 'I' for Inactive)
REMARK    1  A    between atoms: C3_3  and  O1_4 
REMARK    2  A    between atoms: O1_4  and  C4_5 
REMARK    3  A    between atoms: C4_5  and  O2_6 
REMARK    4  A    between atoms: C5_8  and  C6_9 
ROOT
HETATM    1  C1  LIG X 999      47.186 130.975  13.332  1.00  0.00     0.014 C 
HETATM    2  C2  LIG X 999      46.157 131.054  13.955  1.00  0.00    -0.091 C 
HETATM    3  C3  LIG X 999      44.907 131.148  14.712  1.00  0.00     0.270 C 
ENDROOT
BRANCH   3   4
HETATM    4  O1  LIG X 999      44.957 130.245  15.807  1.00  0.00    -0.319 OA
BRANCH   4   5
HETATM    5  C4  LIG X 999      46.012 130.235  16.725  1.00  0.00     0.179 C 
HETATM    6  C5  LIG X 999      45.828 130.712  17.962  1.00  0.00     0.075 C 
BRANCH   5   7
HETATM    7  O2  LIG X 999      47.253 129.718  16.350  1.00  0.00    -0.341 OA
HETATM    8  H4  LIG X 999      47.430 128.720  16.317  1.00  0.00     0.220 HD
ENDBRANCH   5   7
BRANCH   6   9
HETATM    9  C6  LIG X 999      44.524 131.234  18.429  1.00  0.00    -0.021 A 
HETATM   10  C7  LIG X 999      43.599 131.632  17.451  1.00  0.00     0.012 A 
HETATM   11  C8  LIG X 999      42.369 132.180  17.815  1.00  0.00     0.002 A 
HETATM   12  C9  LIG X 999      42.036 132.330  19.160  1.00  0.00     0.012 A 
HETATM   13  C10 LIG X 999      42.925 131.910  20.160  1.00  0.00    -0.025 A 
HETATM   14  C11 LIG X 999      42.571 132.040  21.512  1.00  0.00     0.012 A 
HETATM   15  C15 LIG X 999      44.177 131.341  19.803  1.00  0.00    -0.015 A 
HETATM   16  C12 LIG X 999      43.437 131.595  22.511  1.00  0.00     0.001 A 
HETATM   17  C13 LIG X 999      44.656 131.006  22.171  1.00  0.00     0.001 A 
HETATM   18  C14 LIG X 999      45.024 130.872  20.830  1.00  0.00     0.013 A 
ENDBRANCH   6   9
ENDBRANCH   4   5
ENDBRANCH   3   4
TORSDOF 4
ENDMDL
MODEL 3
REMARK VINA RESULT:      -7.8      1.775      6.632
REMARK  4 active torsions:
REMARK  status: ('A' for Active; 'I' for Inactive)
REMARK    1  A    between atoms: C3_3  and  O1_4 
REMARK    2  A    between atoms: O1_4  and  C4_5 
REMARK    3  A    between atoms: C4_5  and  O2_6 
REMARK    4  A    between atoms: C5_8  and  C6_9 
ROOT
HETATM    1  C1  LIG X 999      42.159 132.261  20.533  1.00  0.00     0.014 C 
HETATM    2  C2  LIG X 999      43.359 132.306  20.423  1.00  0.00    -0.091 C 
HETATM    3  C3  LIG X 999      44.815 132.358  20.288  1.00  0.00     0.270 C 
ENDROOT
BRANCH   3   4
HETATM    4  O1  LIG X 999      45.191 131.745  19.063  1.00  0.00    -0.319 OA
BRANCH   4   5
HETATM    5  C4  LIG X 999      45.711 130.449  19.000  1.00  0.00     0.179 C 
HETATM    6  C5  LIG X 999      45.817 129.826  17.819  1.00  0.00     0.075 C 
BRANCH   5   7
HETATM    7  O2  LIG X 999      46.129 129.812  20.169  1.00  0.00    -0.341 OA
HETATM    8  H4  LIG X 999      45.483 129.587  20.918  1.00  0.00     0.220 HD
ENDBRANCH   5   7
BRANCH   6   9
HETATM    9  C6  LIG X 999      45.430 130.467  16.543  1.00  0.00    -0.021 A 
HETATM   10  C7  LIG X 999      44.220 131.177  16.517  1.00  0.00     0.012 A 
HETATM   11  C8  LIG X 999      43.765 131.766  15.337  1.00  0.00     0.002 A 
HETATM   12  C9  LIG X 999      44.514 131.666  14.166  1.00  0.00     0.012 A 
HETATM   13  C10 LIG X 999      45.743 130.992  14.169  1.00  0.00    -0.025 A 
HETATM   14  C11 LIG X 999      46.505 130.919  12.992  1.00  0.00     0.012 A 
HETATM   15  C15 LIG X 999      46.224 130.396  15.366  1.00  0.00    -0.015 A 
HETATM   16  C12 LIG X 999      47.744 130.277  12.995  1.00  0.00     0.001 A 
HETATM   17  C13 LIG X 999      48.239 129.716  14.173  1.00  0.00     0.001 A 
HETATM   18  C14 LIG X 999      47.493 129.778  15.352  1.00  0.00     0.013 A 
ENDBRANCH   6   9
ENDBRANCH   4   5
ENDBRANCH   3   4
TORSDOF 4
ENDMDL
MODEL 4
REMARK VINA RESULT:      -7.4      3.409      6.835
REMARK  4 active torsions:
REMARK  status: ('A' for Active; 'I' for Inactive)
REMARK    1  A    between atoms: C3_3  and  O1_4 
REMARK    2  A    between atoms: O1_4  and  C4_5 
REMARK    3  A    between atoms: C4_5  and  O2_6 
REMARK    4  A    between atoms: C5_8  and  C6_9 
ROOT
HETATM    1  C1  LIG X 999      42.331 126.676  23.959  1.00  0.00     0.014 C 
HETATM    2  C2  LIG X 999      42.190 127.870  23.874  1.00  0.00    -0.091 C 
HETATM    3  C3  LIG X 999      42.022 129.320  23.769  1.00  0.00     0.270 C 
ENDROOT
BRANCH   3   4
HETATM    4  O1  LIG X 999      42.803 129.802  22.685  1.00  0.00    -0.319 OA
BRANCH   4   5
HETATM    5  C4  LIG X 999      44.051 130.406  22.869  1.00  0.00     0.179 C 
HETATM    6  C5  LIG X 999      44.511 131.281  21.967  1.00  0.00     0.075 C 
BRANCH   5   7
HETATM    7  O2  LIG X 999      44.809 130.100  24.000  1.00  0.00    -0.341 OA
HETATM    8  H4  LIG X 999      44.560 129.341  24.625  1.00  0.00     0.220 HD
ENDBRANCH   5   7
BRANCH   6   9
HETATM    9  C6  LIG X 999      43.734 131.675  20.771  1.00  0.00    -0.021 A 
HETATM   10  C7  LIG X 999      42.511 132.330  20.980  1.00  0.00     0.012 A 
HETATM   11  C8  LIG X 999      41.700 132.687  19.904  1.00  0.00     0.002 A 
HETATM   12  C9  LIG X 999      42.100 132.407  18.598  1.00  0.00     0.012 A 
HETATM   13  C10 LIG X 999      43.332 131.785  18.354  1.00  0.00    -0.025 A 
HETATM   14  C11 LIG X 999      43.740 131.530  17.036  1.00  0.00     0.012 A 
HETATM   15  C15 LIG X 999      44.173 131.424  19.442  1.00  0.00    -0.015 A 
HETATM   16  C12 LIG X 999      44.980 130.940  16.785  1.00  0.00     0.001 A 
HETATM   17  C13 LIG X 999      45.826 130.611  17.844  1.00  0.00     0.001 A 
HETATM   18  C14 LIG X 999      45.434 130.855  19.162  1.00  0.00     0.013 A 
ENDBRANCH   6   9
ENDBRANCH   4   5
ENDBRANCH   3   4
TORSDOF 4
ENDMDL
MODEL 5
REMARK VINA RESULT:      -7.0      1.306      1.955
REMARK  4 active torsions:
REMARK  status: ('A' for Active; 'I' for Inactive)
REMARK    1  A    between atoms: C3_3  and  O1_4 
REMARK    2  A    between atoms: O1_4  and  C4_5 
REMARK    3  A    between atoms: C4_5  and  O2_6 
REMARK    4  A    between atoms: C5_8  and  C6_9 
ROOT
HETATM    1  C1  LIG X 999      47.639 131.016  13.110  1.00  0.00     0.014 C 
HETATM    2  C2  LIG X 999      46.903 131.474  13.948  1.00  0.00    -0.091 C 
HETATM    3  C3  LIG X 999      46.009 132.027  14.966  1.00  0.00     0.270 C 
ENDROOT
BRANCH   3   4
HETATM    4  O1  LIG X 999      46.281 131.404  16.213  1.00  0.00    -0.319 OA
BRANCH   4   5
HETATM    5  C4  LIG X 999      46.064 130.041  16.435  1.00  0.00     0.179 C 
HETATM    6  C5  LIG X 999      45.649 129.615  17.635  1.00  0.00     0.075 C 
BRANCH   5   7
HETATM    7  O2  LIG X 999      46.270 129.128  15.400  1.00  0.00    -0.341 OA
HETATM    8  H4  LIG X 999      46.477 129.427  14.453  1.00  0.00     0.220 HD
ENDBRANCH   5   7
BRANCH   6   9
HETATM    9  C6  LIG X 999      45.374 130.540  18.757  1.00  0.00    -0.021 A 
HETATM   10  C7  LIG X 999      46.371 130.688  19.733  1.00  0.00     0.012 A 
HETATM   11  C8  LIG X 999      46.164 131.504  20.845  1.00  0.00     0.002 A 
HETATM   12  C9  LIG X 999      44.964 132.196  20.997  1.00  0.00     0.012 A 
HETATM   13  C10 LIG X 999      43.962 132.095  20.022  1.00  0.00    -0.025 A 
HETATM   14  C11 LIG X 999      42.766 132.816  20.167  1.00  0.00     0.012 A 
HETATM   15  C15 LIG X 999      44.163 131.275  18.878  1.00  0.00    -0.015 A 
HETATM   16  C12 LIG X 999      41.779 132.746  19.184  1.00  0.00     0.001 A 
HETATM   17  C13 LIG X 999      41.980 131.968  18.043  1.00  0.00     0.001 A 
HETATM   18  C14 LIG X 999      43.162 131.243  17.884  1.00  0.00     0.013 A 
ENDBRANCH   6   9
ENDBRANCH   4   5
ENDBRANCH   3   4
TORSDOF 4
ENDMDL
MODEL 6
REMARK VINA RESULT:      -6.7      2.099      3.190
REMARK  4 active torsions:
REMARK  status: ('A' for Active; 'I' for Inactive)
REMARK    1  A    between atoms: C3_3  and  O1_4 
REMARK    2  A    between atoms: O1_4  and  C4_5 
REMARK    3  A    between atoms: C4_5  and  O2_6 
REMARK    4  A    between atoms: C5_8  and  C6_9 
ROOT
HETATM    1  C1  LIG X 999      46.051 130.964  16.226  1.00  0.00     0.014 C 
HETATM    2  C2  LIG X 999      44.895 131.288  16.328  1.00  0.00    -0.091 C 
HETATM    3  C3  LIG X 999      43.490 131.678  16.453  1.00  0.00     0.270 C 
ENDROOT
BRANCH   3   4
HETATM    4  O1  LIG X 999      43.026 131.340  17.753  1.00  0.00    -0.319 OA
BRANCH   4   5
HETATM    5  C4  LIG X 999      42.376 132.259  18.581  1.00  0.00     0.179 C 
HETATM    6  C5  LIG X 999      42.666 132.307  19.887  1.00  0.00     0.075 C 
BRANCH   5   7
HETATM    7  O2  LIG X 999      41.431 133.133  18.040  1.00  0.00    -0.341 OA
HETATM    8  H4  LIG X 999      41.672 134.076  17.756  1.00  0.00     0.220 HD
ENDBRANCH   5   7
BRANCH   6   9
HETATM    9  C6  LIG X 999      43.688 131.435  20.508  1.00  0.00    -0.021 A 
HETATM   10  C7  LIG X 999      44.853 131.178  19.771  1.00  0.00     0.012 A 
HETATM   11  C8  LIG X 999      45.839 130.326  20.270  1.00  0.00     0.002 A 
HETATM   12  C9  LIG X 999      45.683 129.724  21.518  1.00  0.00     0.012 A 
HETATM   13  C10 LIG X 999      44.545 129.988  22.292  1.00  0.00    -0.025 A 
HETATM   14  C11 LIG X 999      44.408 129.400  23.559  1.00  0.00     0.012 A 
HETATM   15  C15 LIG X 999      43.538 130.862  21.801  1.00  0.00    -0.015 A 
HETATM   16  C12 LIG X 999      43.293 129.684  24.350  1.00  0.00     0.001 A 
HETATM   17  C13 LIG X 999      42.314 130.565  23.889  1.00  0.00     0.001 A 
HETATM   18  C14 LIG X 999      42.435 131.157  22.630  1.00  0.00     0.013 A 
ENDBRANCH   6   9
ENDBRANCH   4   5
ENDBRANCH   3   4
TORSDOF 4
ENDMDL
MODEL 7
REMARK VINA RESULT:      -6.3      3.478      6.320
REMARK  4 active torsions:
REMARK  status: ('A' for Active; 'I' for Inactive)
REMARK    1  A    between atoms: C3_3  and  O1_4 
REMARK    2  A    between atoms: O1_4  and  C4_5 
REMARK    3  A    between atoms: C4_5  and  O2_6 
REMARK    4  A    between atoms: C5_8  and  C6_9 
ROOT
HETATM    1  C1  LIG X 999      44.642 127.287  24.129  1.00  0.00     0.014 C 
HETATM    2  C2  LIG X 999      43.695 128.029  24.041  1.00  0.00    -0.091 C 
HETATM    3  C3  LIG X 999      42.548 128.932  23.933  1.00  0.00     0.270 C 
ENDROOT
BRANCH   3   4
HETATM    4  O1  LIG X 999      42.748 129.809  22.834  1.00  0.00    -0.319 OA
BRANCH   4   5
HETATM    5  C4  LIG X 999      42.443 131.172  22.896  1.00  0.00     0.179 C 
HETATM    6  C5  LIG X 999      43.012 132.026  22.037  1.00  0.00     0.075 C 
BRANCH   5   7
HETATM    7  O2  LIG X 999      41.535 131.637  23.849  1.00  0.00    -0.341 OA
HETATM    8  H4  LIG X 999      40.769 131.064  24.186  1.00  0.00     0.220 HD
ENDBRANCH   5   7
BRANCH   6   9
HETATM    9  C6  LIG X 999      43.948 131.586  20.979  1.00  0.00    -0.021 A 
HETATM   10  C7  LIG X 999      45.182 131.057  21.386  1.00  0.00     0.012 A 
HETATM   11  C8  LIG X 999      46.136 130.666  20.446  1.00  0.00     0.002 A 
HETATM   12  C9  LIG X 999      45.871 130.787  19.083  1.00  0.00     0.012 A 
HETATM   13  C10 LIG X 999      44.634 131.280  18.644  1.00  0.00    -0.025 A 
HETATM   14  C11 LIG X 999      44.364 131.374  17.270  1.00  0.00     0.012 A 
HETATM   15  C15 LIG X 999      43.649 131.673  19.592  1.00  0.00    -0.015 A 
HETATM   16  C12 LIG X 999      43.123 131.834  16.827  1.00  0.00     0.001 A 
HETATM   17  C13 LIG X 999      42.138 132.192  17.749  1.00  0.00     0.001 A 
HETATM   18  C14 LIG X 999      42.392 132.107  19.120  1.00  0.00     0.013 A 
ENDBRANCH   6   9
ENDBRANCH   4   5
ENDBRANCH   3   4
TORSDOF 4
ENDMDL
MODEL 8
REMARK VINA RESULT:      -6.2      4.679      7.272
REMARK  4 active torsions:
REMARK  status: ('A' for Active; 'I' for Inactive)
REMARK    1  A    between atoms: C3_3  and  O1_4 
REMARK    2  A    between atoms: O1_4  and  C4_5 
REMARK    3  A    between atoms: C4_5  and  O2_6 
REMARK    4  A    between atoms: C5_8  and  C6_9 
ROOT
HETATM    1  C1  LIG X 999      42.070 124.075  21.599  1.00  0.00     0.014 C 
HETATM    2  C2  LIG X 999      42.155 124.850  22.519  1.00  0.00    -0.091 C 
HETATM    3  C3  LIG X 999      42.260 125.791  23.635  1.00  0.00     0.270 C 
ENDROOT
BRANCH   3   4
HETATM    4  O1  LIG X 999      43.038 126.908  23.230  1.00  0.00    -0.319 OA
BRANCH   4   5
HETATM    5  C4  LIG X 999      44.399 127.023  23.529  1.00  0.00     0.179 C 
HETATM    6  C5  LIG X 999      44.999 128.218  23.472  1.00  0.00     0.075 C 
BRANCH   5   7
HETATM    7  O2  LIG X 999      45.127 125.890  23.895  1.00  0.00    -0.341 OA
HETATM    8  H4  LIG X 999      46.088 125.751  23.603  1.00  0.00     0.220 HD
ENDBRANCH   5   7
BRANCH   6   9
HETATM    9  C6  LIG X 999      44.270 129.460  23.130  1.00  0.00    -0.021 A 
HETATM   10  C7  LIG X 999      43.320 129.927  24.051  1.00  0.00     0.012 A 
HETATM   11  C8  LIG X 999      42.558 131.062  23.776  1.00  0.00     0.002 A 
HETATM   12  C9  LIG X 999      42.738 131.758  22.581  1.00  0.00     0.012 A 
HETATM   13  C10 LIG X 999      43.703 131.336  21.657  1.00  0.00    -0.025 A 
HETATM   14  C11 LIG X 999      43.898 132.057  20.468  1.00  0.00     0.012 A 
HETATM   15  C15 LIG X 999      44.494 130.186  21.929  1.00  0.00    -0.015 A 
HETATM   16  C12 LIG X 999      44.879 131.661  19.558  1.00  0.00     0.001 A 
HETATM   17  C13 LIG X 999      45.681 130.552  19.830  1.00  0.00     0.001 A 
HETATM   18  C14 LIG X 999      45.499 129.823  21.007  1.00  0.00     0.013 A 
ENDBRANCH   6   9
ENDBRANCH   4   5
ENDBRANCH   3   4
TORSDOF 4
ENDMDL
MODEL 9
REMARK VINA RESULT:      -6.1      4.834      7.207
REMARK  4 active torsions:
REMARK  status: ('A' for Active; 'I' for Inactive)
REMARK    1  A    between atoms: C3_3  and  O1_4 
REMARK    2  A    between atoms: O1_4  and  C4_5 
REMARK    3  A    between atoms: C4_5  and  O2_6 
REMARK    4  A    between atoms: C5_8  and  C6_9 
ROOT
HETATM    1  C1  LIG X 999      44.638 131.728  19.111  1.00  0.00     0.014 C 
HETATM    2  C2  LIG X 999      43.887 131.704  20.054  1.00  0.00    -0.091 C 
HETATM    3  C3  LIG X 999      42.975 131.671  21.198  1.00  0.00     0.270 C 
ENDROOT
BRANCH   3   4
HETATM    4  O1  LIG X 999      43.298 130.557  22.019  1.00  0.00    -0.319 OA
BRANCH   4   5
HETATM    5  C4  LIG X 999      43.986 130.690  23.229  1.00  0.00     0.179 C 
HETATM    6  C5  LIG X 999      43.954 129.700  24.130  1.00  0.00     0.075 C 
BRANCH   5   7
HETATM    7  O2  LIG X 999      44.712 131.853  23.490  1.00  0.00    -0.341 OA
HETATM    8  H4  LIG X 999      44.336 132.605  24.057  1.00  0.00     0.220 HD
ENDBRANCH   5   7
BRANCH   6   9
HETATM    9  C6  LIG X 999      43.236 128.429  23.891  1.00  0.00    -0.021 A 
HETATM   10  C7  LIG X 999      41.861 128.400  24.168  1.00  0.00     0.012 A 
HETATM   11  C8  LIG X 999      41.127 127.224  24.015  1.00  0.00     0.002 A 
HETATM   12  C9  LIG X 999      41.750 126.058  23.571  1.00  0.00     0.012 A 
HETATM   13  C10 LIG X 999      43.115 126.064  23.253  1.00  0.00    -0.025 A 
HETATM   14  C11 LIG X 999      43.730 124.894  22.780  1.00  0.00     0.012 A 
HETATM   15  C15 LIG X 999      43.873 127.258  23.395  1.00  0.00    -0.015 A 
HETATM   16  C12 LIG X 999      45.081 124.901  22.431  1.00  0.00     0.001 A 
HETATM   17  C13 LIG X 999      45.826 126.076  22.537  1.00  0.00     0.001 A 
HETATM   18  C14 LIG X 999      45.230 127.248  23.008  1.00  0.00     0.013 A 
ENDBRANCH   6   9
ENDBRANCH   4   5
ENDBRANCH   3   4
TORSDOF 4
ENDMDL
