REMARK VINA RESULT:      -5.1      1.948      3.421
REMARK  1 active torsions:
REMARK  status: ('A' for Active; 'I' for Inactive)
REMARK    1  A    between atoms: C4_4  and  N1_5 
ROOT
HETATM    1  C1  LIG X 999      46.064 129.823  18.833  1.00  0.00     0.049 C 
HETATM    2  C2  LIG X 999      45.040 130.850  18.411  1.00  0.00    -0.045 C 
HETATM    3  C3  LIG X 999      44.263 131.403  19.439  1.00  0.00     0.055 C 
HETATM    4  C4  LIG X 999      43.121 132.141  19.141  1.00  0.00     0.099 C 
HETATM    5  N2  LIG X 999      42.736 132.295  17.848  1.00  0.00    -0.342 N 
HETATM    6  C5  LIG X 999      43.482 131.815  16.811  1.00  0.00     0.045 C 
HETATM    7  C6  LIG X 999      42.992 131.946  15.506  1.00  0.00     0.031 C 
HETATM    8  C7  LIG X 999      43.718 131.468  14.424  1.00  0.00     0.014 C 
HETATM    9  C8  LIG X 999      45.002 130.951  14.610  1.00  0.00    -0.025 C 
HETATM   10  C9  LIG X 999      45.759 130.578  13.488  1.00  0.00     0.012 C 
HETATM   11  C10 LIG X 999      47.087 130.187  13.634  1.00  0.00     0.001 C 
HETATM   12  C11 LIG X 999      47.681 130.204  14.891  1.00  0.00     0.001 C 
HETATM   13  C12 LIG X 999      46.935 130.558  16.018  1.00  0.00     0.013 C 
HETATM   14  C13 LIG X 999      45.555 130.857  15.919  1.00  0.00    -0.013 C 
HETATM   15  C14 LIG X 999      44.730 131.169  17.052  1.00  0.00     0.008 C 
HETATM   16  H7  LIG X 999      41.841 132.799  17.652  1.00  0.00     0.167 HD
ENDROOT
BRANCH   4  17
HETATM   17  N1  LIG X 999      42.322 132.684  20.197  1.00  0.00    -0.385 N 
HETATM   18  H5  LIG X 999      42.611 132.581  21.195  1.00  0.00     0.157 HD
HETATM   19  H6  LIG X 999      41.438 133.196  19.985  1.00  0.00     0.157 HD
ENDBRANCH   4  17
TORSDOF 1
