REMARK VINA RESULT:      -4.4      3.030      7.493
REMARK  5 active torsions:
REMARK  status: ('A' for Active; 'I' for Inactive)
REMARK    1  A    between atoms: C3_3  and  C4_4 
REMARK    2  A    between atoms: C4_4  and  S1_5 
REMARK    3  A    between atoms: S1_5  and  C5_6 
REMARK    4  A    between atoms: C6_7  and  N1_8 
REMARK    5  A    between atoms: C10_12  and  N2_13 
ROOT
HETATM    1  C1  LIG X 999      46.581 131.309  14.422  1.00  0.00     0.112 C 
HETATM    2  C2  LIG X 999      45.940 131.232  15.734  1.00  0.00    -0.110 C 
HETATM    3  C3  LIG X 999      45.410 131.158  16.814  1.00  0.00    -0.097 C 
ENDROOT
BRANCH   3   4
HETATM    4  C4  LIG X 999      44.768 131.060  18.127  1.00  0.00     0.173 C 
BRANCH   4   5
HETATM    5  S1  LIG X 999      45.993 130.612  19.404  1.00  0.00    -0.115 SA
BRANCH   5   6
HETATM    6  C5  LIG X 999      44.802 130.590  20.770  1.00  0.00     0.038 A 
HETATM    7  C6  LIG X 999      43.933 131.689  20.954  1.00  0.00     0.043 A 
HETATM    8  C7  LIG X 999      42.999 131.668  21.992  1.00  0.00     0.031 A 
HETATM    9  C8  LIG X 999      42.909 130.581  22.855  1.00  0.00     0.017 A 
HETATM   10  C9  LIG X 999      43.755 129.468  22.707  1.00  0.00     0.002 A 
HETATM   11  C10 LIG X 999      43.677 128.345  23.585  1.00  0.00     0.045 A 
HETATM   12  C14 LIG X 999      44.735 129.486  21.661  1.00  0.00    -0.004 A 
HETATM   13  C11 LIG X 999      44.595 127.301  23.408  1.00  0.00     0.003 A 
HETATM   14  C12 LIG X 999      45.531 127.331  22.424  1.00  0.00    -0.021 A 
HETATM   15  C18 LIG X 999      44.725 126.047  24.192  1.00  0.00     0.278 C 
HETATM   16  C13 LIG X 999      45.628 128.396  21.538  1.00  0.00     0.023 A 
HETATM   17  C15 LIG X 999      46.380 126.121  22.462  1.00  0.00     0.276 C 
HETATM   18  N3  LIG X 999      45.758 125.225  23.486  1.00  0.00    -0.067 N 
HETATM   19  C16 LIG X 999      45.119 124.063  22.823  1.00  0.00     0.272 C 
HETATM   20  C17 LIG X 999      46.779 124.733  24.440  1.00  0.00     0.272 C 
BRANCH   7  21
HETATM   21  N1  LIG X 999      43.992 132.848  20.109  1.00  0.00    -0.398 N 
HETATM   22  H6  LIG X 999      43.419 132.897  19.238  1.00  0.00     0.156 HD
HETATM   23  H7  LIG X 999      44.586 133.677  20.333  1.00  0.00     0.156 HD
ENDBRANCH   7  21
BRANCH  11  24
HETATM   24  N2  LIG X 999      42.687 128.241  24.623  1.00  0.00    -0.398 N 
HETATM   25  H10 LIG X 999      41.750 127.815  24.468  1.00  0.00     0.156 HD
HETATM   26  H11 LIG X 999      42.921 128.492  25.608  1.00  0.00     0.156 HD
ENDBRANCH  11  24
ENDBRANCH   5   6
ENDBRANCH   4   5
ENDBRANCH   3   4
TORSDOF 5
