REMARK VINA RESULT:      -6.6      3.164      6.323
REMARK  3 active torsions:
REMARK  status: ('A' for Active; 'I' for Inactive)
REMARK    1  A    between atoms: C3_3  and  S1_4 
REMARK    2  A    between atoms: S1_4  and  N1_7 
REMARK    3  A    between atoms: C10_16  and  N4_17 
ROOT
HETATM    1  N1  LIG X 999      46.277 129.852  15.443  1.00  0.00     0.026 NA
HETATM    2  N2  LIG X 999      47.156 129.684  14.598  1.00  0.00    -0.150 NA
HETATM    3  N3  LIG X 999      48.037 129.516  13.756  1.00  0.00     0.069 N 
ENDROOT
BRANCH   1   4
HETATM    4  S1  LIG X 999      45.409 131.344  15.505  1.00  0.00     0.311 S 
HETATM    5  O1  LIG X 999      44.396 131.371  14.394  1.00  0.00    -0.196 OA
HETATM    6  O2  LIG X 999      46.359 132.492  15.312  1.00  0.00    -0.196 OA
BRANCH   4   7
HETATM    7  C3  LIG X 999      44.589 131.487  17.056  1.00  0.00     0.084 A 
HETATM    8  C2  LIG X 999      43.196 131.600  17.113  1.00  0.00     0.026 A 
HETATM    9  C1  LIG X 999      42.549 131.699  18.346  1.00  0.00     0.009 A 
HETATM   10  C6  LIG X 999      43.284 131.696  19.541  1.00  0.00    -0.050 A 
HETATM   11  C5  LIG X 999      44.694 131.566  19.491  1.00  0.00    -0.023 A 
HETATM   12  C7  LIG X 999      42.533 131.698  20.852  1.00  0.00     0.039 C 
HETATM   13  C4  LIG X 999      45.331 131.464  18.243  1.00  0.00     0.035 A 
HETATM   14  C10 LIG X 999      45.541 131.614  20.749  1.00  0.00     0.179 C 
HETATM   15  C9  LIG X 999      44.727 131.238  21.996  1.00  0.00     0.035 C 
HETATM   16  C8  LIG X 999      43.423 132.036  22.052  1.00  0.00     0.007 C 
BRANCH  14  17
HETATM   17  N4  LIG X 999      46.104 132.951  20.927  1.00  0.00    -0.105 NA
HETATM   18  N5  LIG X 999      47.181 133.123  21.498  1.00  0.00    -0.167 NA
HETATM   19  N6  LIG X 999      48.258 133.295  22.067  1.00  0.00     0.068 N 
ENDBRANCH  14  17
ENDBRANCH   4   7
ENDBRANCH   1   4
TORSDOF 3
