REMARK VINA RESULT:      -4.4      2.397      5.100
REMARK  5 active torsions:
REMARK  status: ('A' for Active; 'I' for Inactive)
REMARK    1  A    between atoms: C3_3  and  N1_4 
REMARK    2  A    between atoms: N1_4  and  C6_7 
REMARK    3  A    between atoms: C6_7  and  C7_8 
REMARK    4  A    between atoms: C9_10  and  C10_11 
REMARK    5  A    between atoms: C11_14  and  N4_15 
ROOT
HETATM    1  C1  LIG X 999      45.442 131.080  14.536  1.00  0.00     0.013 C 
HETATM    2  C2  LIG X 999      45.527 131.592  15.623  1.00  0.00    -0.089 C 
HETATM    3  C3  LIG X 999      45.632 132.220  16.957  1.00  0.00     0.329 C 
ENDROOT
BRANCH   3   4
HETATM    4  N1  LIG X 999      44.888 131.484  18.026  1.00  0.00    -0.061 N 
HETATM    5  C4  LIG X 999      43.442 131.430  17.685  1.00  0.00     0.273 C 
HETATM    6  C5  LIG X 999      45.419 130.098  18.060  1.00  0.00     0.273 C 
BRANCH   4   7
HETATM    7  C6  LIG X 999      45.109 132.158  19.346  1.00  0.00     0.275 C 
BRANCH   7   8
HETATM    8  C7  LIG X 999      44.366 131.525  20.508  1.00  0.00    -0.035 C 
HETATM    9  C8  LIG X 999      44.974 131.346  21.696  1.00  0.00     0.001 C 
HETATM   10  C9  LIG X 999      44.274 130.606  22.827  1.00  0.00     0.054 C 
HETATM   11  C12 LIG X 999      44.880 130.994  24.199  1.00  0.00     0.023 C 
HETATM   12  C16 LIG X 999      42.742 130.928  22.788  1.00  0.00     0.028 C 
HETATM   13  C13 LIG X 999      44.555 132.437  24.601  1.00  0.00     0.002 C 
HETATM   14  C14 LIG X 999      43.043 132.661  24.625  1.00  0.00     0.001 C 
HETATM   15  C15 LIG X 999      42.435 132.370  23.252  1.00  0.00     0.010 C 
HETATM   16  C17 LIG X 999      42.209 130.750  21.384  1.00  0.00    -0.020 C 
HETATM   17  C18 LIG X 999      42.963 131.076  20.328  1.00  0.00     0.005 C 
BRANCH  10  18
HETATM   18  C10 LIG X 999      44.511 129.123  22.624  1.00  0.00     0.184 A 
HETATM   19  N2  LIG X 999      45.450 128.610  21.799  1.00  0.00    -0.124 NA
HETATM   20  N3  LIG X 999      45.372 127.293  21.908  1.00  0.00    -0.099 NA
HETATM   21  C11 LIG X 999      44.393 127.056  22.798  1.00  0.00     0.326 A 
HETATM   22  O1  LIG X 999      43.861 128.167  23.247  1.00  0.00    -0.255 OA
BRANCH  21  23
HETATM   23  N4  LIG X 999      43.992 125.749  23.200  1.00  0.00    -0.023 NA
HETATM   24  N5  LIG X 999      43.315 125.042  22.454  1.00  0.00    -0.158 NA
HETATM   25  N6  LIG X 999      42.637 124.335  21.709  1.00  0.00     0.068 N 
ENDBRANCH  21  23
ENDBRANCH  10  18
ENDBRANCH   7   8
ENDBRANCH   4   7
ENDBRANCH   3   4
TORSDOF 5
