REMARK VINA RESULT:      -3.7      1.856      2.869
REMARK  4 active torsions:
REMARK  status: ('A' for Active; 'I' for Inactive)
REMARK    1  A    between atoms: C4_4  and  N1_5 
REMARK    2  A    between atoms: C7_10  and  S1_11 
REMARK    3  A    between atoms: S1_11  and  C8_12 
REMARK    4  A    between atoms: C8_12  and  C9_13 
ROOT
HETATM    1  N1  LIG X 999      43.106 130.100  23.954  1.00  0.00    -0.071 NA
HETATM    2  N2  LIG X 999      42.046 129.513  24.169  1.00  0.00    -0.162 NA
HETATM    3  N3  LIG X 999      40.981 128.936  24.392  1.00  0.00     0.068 N 
ENDROOT
BRANCH   1   4
HETATM    4  C4  LIG X 999      44.020 129.746  22.900  1.00  0.00     0.108 A 
HETATM    5  C3  LIG X 999      44.550 128.451  22.915  1.00  0.00     0.008 A 
HETATM    6  C2  LIG X 999      45.465 128.038  22.003  1.00  0.00    -0.021 A 
HETATM    7  C15 LIG X 999      44.277 127.369  23.891  1.00  0.00     0.278 C 
HETATM    8  C1  LIG X 999      45.882 128.864  20.970  1.00  0.00     0.018 A 
HETATM    9  C18 LIG X 999      45.893 126.649  22.270  1.00  0.00     0.276 C 
HETATM   10  C6  LIG X 999      45.322 130.149  20.844  1.00  0.00    -0.035 A 
HETATM   11  C5  LIG X 999      44.400 130.622  21.833  1.00  0.00    -0.018 A 
HETATM   12  C7  LIG X 999      45.678 130.976  19.625  1.00  0.00     0.081 C 
HETATM   13  C14 LIG X 999      43.926 132.065  21.809  1.00  0.00     0.042 C 
HETATM   14  C13 LIG X 999      44.205 132.818  20.504  1.00  0.00     0.006 C 
HETATM   15  C12 LIG X 999      45.584 132.471  19.942  1.00  0.00     0.020 C 
HETATM   16  N4  LIG X 999      45.221 126.257  23.549  1.00  0.00    -0.067 N 
HETATM   17  C16 LIG X 999      46.229 126.095  24.624  1.00  0.00     0.272 C 
HETATM   18  C17 LIG X 999      44.487 124.983  23.383  1.00  0.00     0.272 C 
BRANCH  12  19
HETATM   19  S1  LIG X 999      44.561 130.584  18.210  1.00  0.00    -0.147 SA
BRANCH  19  20
HETATM   20  C8  LIG X 999      45.103 131.878  17.041  1.00  0.00     0.168 C 
BRANCH  20  21
HETATM   21  C9  LIG X 999      45.914 131.270  15.984  1.00  0.00    -0.097 C 
HETATM   22  C10 LIG X 999      46.574 130.751  15.119  1.00  0.00    -0.110 C 
HETATM   23  C11 LIG X 999      47.367 130.105  14.075  1.00  0.00     0.112 C 
ENDBRANCH  20  21
ENDBRANCH  19  20
ENDBRANCH  12  19
ENDBRANCH   1   4
TORSDOF 4
