REMARK VINA RESULT:      -6.2      2.657      8.246
REMARK  7 active torsions:
REMARK  status: ('A' for Active; 'I' for Inactive)
REMARK    1  A    between atoms: C2_2  and  C4_4 
REMARK    2  A    between atoms: C4_4  and  C5_5 
REMARK       I    between atoms: C5_5  and  N1_7 
REMARK    3  A    between atoms: N1_7  and  C6_8 
REMARK    4  A    between atoms: C6_8  and  C7_9 
REMARK    5  A    between atoms: C7_9  and  C8_10 
REMARK    6  A    between atoms: C8_10  and  O2_11 
REMARK    7  A    between atoms: O2_11  and  C9_12 
ROOT
HETATM    1  O2  LIG X 999      44.441 131.749  18.414  1.00  0.00    -0.351 OA
ENDROOT
BRANCH   1   2
HETATM    2  C8  LIG X 999      43.348 131.744  17.494  1.00  0.00     0.177 C 
BRANCH   2   3
HETATM    3  C7  LIG X 999      43.820 131.745  16.031  1.00  0.00     0.048 C 
BRANCH   3   4
HETATM    4  C6  LIG X 999      45.274 132.211  15.868  1.00  0.00     0.154 C 
BRANCH   4   5
HETATM    5  N1  LIG X 999      46.026 131.311  14.998  1.00  0.00    -0.256 NA
HETATM    6  C5  LIG X 999      46.370 129.968  15.352  1.00  0.00     0.238 C 
HETATM    7  O1  LIG X 999      45.950 129.463  16.429  1.00  0.00    -0.272 OA
BRANCH   6   8
HETATM    8  C4  LIG X 999      47.226 129.151  14.432  1.00  0.00     0.108 C 
BRANCH   8   9
HETATM    9  C2  LIG X 999      48.256 130.019  13.682  1.00  0.00    -0.014 C 
HETATM   10  C1  LIG X 999      49.226 129.157  12.859  1.00  0.00     0.010 C 
HETATM   11  C3  LIG X 999      47.537 131.018  12.767  1.00  0.00     0.010 C 
ENDBRANCH   8   9
ENDBRANCH   6   8
ENDBRANCH   4   5
ENDBRANCH   3   4
ENDBRANCH   2   3
ENDBRANCH   1   2
BRANCH   1  12
HETATM   12  C9  LIG X 999      44.387 131.353  19.760  1.00  0.00     0.069 A 
HETATM   13  C10 LIG X 999      45.322 130.413  20.204  1.00  0.00     0.037 A 
HETATM   14  C11 LIG X 999      45.297 129.944  21.519  1.00  0.00     0.015 A 
HETATM   15  C12 LIG X 999      44.333 130.419  22.417  1.00  0.00    -0.026 A 
HETATM   16  C13 LIG X 999      44.289 129.945  23.738  1.00  0.00     0.012 A 
HETATM   17  C17 LIG X 999      43.394 131.387  21.987  1.00  0.00    -0.023 A 
HETATM   18  C14 LIG X 999      43.323 130.430  24.625  1.00  0.00     0.001 A 
HETATM   19  C15 LIG X 999      42.397 131.388  24.202  1.00  0.00     0.001 A 
HETATM   20  C16 LIG X 999      42.430 131.866  22.889  1.00  0.00     0.012 A 
HETATM   21  C18 LIG X 999      43.431 131.856  20.665  1.00  0.00     0.049 A 
ENDBRANCH   1  12
TORSDOF 7
