REMARK VINA RESULT:      -6.2      5.087      7.835
REMARK  3 active torsions:
REMARK  status: ('A' for Active; 'I' for Inactive)
REMARK    1  A    between atoms: C7_9  and  C8_10 
REMARK    2  A    between atoms: C9_14  and  N4_15 
REMARK    3  A    between atoms: N7_24  and  C14_25 
ROOT
HETATM    1  N4  LIG X 999      45.175 131.942  20.794  1.00  0.00    -0.025 NA
HETATM    2  N5  LIG X 999      44.903 131.711  19.616  1.00  0.00    -0.158 NA
HETATM    3  N6  LIG X 999      44.631 131.481  18.439  1.00  0.00     0.068 N 
ENDROOT
BRANCH   1   4
HETATM    4  C9  LIG X 999      44.793 131.029  21.822  1.00  0.00     0.302 A 
HETATM    5  N3  LIG X 999      44.595 131.379  23.101  1.00  0.00    -0.236 N 
HETATM    6  N2  LIG X 999      44.254 130.281  23.755  1.00  0.00    -0.145 NA
HETATM    7  H4  LIG X 999      44.688 132.328  23.524  1.00  0.00     0.193 HD
HETATM    8  C8  LIG X 999      44.251 129.294  22.833  1.00  0.00     0.203 A 
HETATM    9  O1  LIG X 999      44.590 129.747  21.644  1.00  0.00    -0.253 OA
BRANCH   8  10
HETATM   10  C7  LIG X 999      43.960 127.880  23.143  1.00  0.00     0.032 A 
HETATM   11  C6  LIG X 999      42.657 127.413  23.500  1.00  0.00     0.020 A 
HETATM   12  C1  LIG X 999      41.427 128.209  23.824  1.00  0.00     0.060 A 
HETATM   13  C5  LIG X 999      42.511 126.043  23.638  1.00  0.00     0.019 A 
HETATM   14  N1  LIG X 999      41.464 129.501  23.907  1.00  0.00    -0.299 NA
HETATM   15  C2  LIG X 999      40.158 127.476  24.160  1.00  0.00     0.034 A 
HETATM   16  H1  LIG X 999      40.623 130.063  24.167  1.00  0.00     0.187 HD
HETATM   17  C3  LIG X 999      40.127 126.130  24.243  1.00  0.00     0.033 A 
HETATM   18  C4  LIG X 999      41.370 125.387  23.978  1.00  0.00     0.048 A 
HETATM   19  N7  LIG X 999      41.619 124.056  24.060  1.00  0.00    -0.324 N 
HETATM   20  C13 LIG X 999      42.945 123.909  23.784  1.00  0.00     0.193 A 
HETATM   21  C12 LIG X 999      43.516 125.140  23.512  1.00  0.00     0.032 A 
HETATM   22  O2  LIG X 999      43.619 122.693  23.799  1.00  0.00    -0.171 OA
HETATM   23  C11 LIG X 999      44.809 125.552  23.213  1.00  0.00     0.018 A 
HETATM   24  C10 LIG X 999      45.026 126.935  23.023  1.00  0.00     0.018 A 
BRANCH  19  25
HETATM   25  C14 LIG X 999      40.690 123.006  24.474  1.00  0.00     0.127 C 
HETATM   26  C15 LIG X 999      39.807 122.588  23.304  1.00  0.00     0.027 C 
ENDBRANCH  19  25
ENDBRANCH   8  10
ENDBRANCH   1   4
TORSDOF 3
