MODEL 1
REMARK VINA RESULT:      -9.0      0.000      0.000
REMARK  3 active torsions:
REMARK  status: ('A' for Active; 'I' for Inactive)
REMARK    1  A    between atoms: C3_3  and  O1_4 
REMARK    2  A    between atoms: O1_4  and  C4_5 
REMARK    3  A    between atoms: C5_7  and  C6_8 
ROOT
HETATM    1  C1  LIG X 999      47.622 131.002  13.002  1.00  0.00     0.014 C 
HETATM    2  C2  LIG X 999      47.017 130.433  13.876  1.00  0.00    -0.091 C 
HETATM    3  C3  LIG X 999      46.285 129.743  14.938  1.00  0.00     0.270 C 
ENDROOT
BRANCH   3   4
HETATM    4  O1  LIG X 999      45.847 130.695  15.898  1.00  0.00    -0.317 OA
BRANCH   4   5
HETATM    5  C4  LIG X 999      44.615 131.348  15.798  1.00  0.00     0.217 C 
HETATM    6  O2  LIG X 999      44.088 131.655  14.547  1.00  0.00    -0.164 OA
HETATM    7  C5  LIG X 999      43.940 131.704  16.895  1.00  0.00     0.079 C 
BRANCH   7   8
HETATM    8  C6  LIG X 999      44.410 131.412  18.271  1.00  0.00    -0.020 A 
HETATM    9  C7  LIG X 999      45.624 130.722  18.449  1.00  0.00     0.012 A 
HETATM   10  C8  LIG X 999      46.076 130.388  19.725  1.00  0.00     0.002 A 
HETATM   11  C9  LIG X 999      45.324 130.723  20.849  1.00  0.00     0.012 A 
HETATM   12  C10 LIG X 999      44.105 131.400  20.706  1.00  0.00    -0.025 A 
HETATM   13  C11 LIG X 999      43.352 131.732  21.842  1.00  0.00     0.012 A 
HETATM   14  C15 LIG X 999      43.634 131.752  19.411  1.00  0.00    -0.015 A 
HETATM   15  C12 LIG X 999      42.142 132.415  21.710  1.00  0.00     0.001 A 
HETATM   16  C13 LIG X 999      41.677 132.777  20.447  1.00  0.00     0.001 A 
HETATM   17  C14 LIG X 999      42.413 132.453  19.304  1.00  0.00     0.013 A 
ENDBRANCH   7   8
ENDBRANCH   4   5
ENDBRANCH   3   4
TORSDOF 3
ENDMDL
MODEL 2
REMARK VINA RESULT:      -8.5      1.853      6.519
REMARK  3 active torsions:
REMARK  status: ('A' for Active; 'I' for Inactive)
REMARK    1  A    between atoms: C3_3  and  O1_4 
REMARK    2  A    between atoms: O1_4  and  C4_5 
REMARK    3  A    between atoms: C5_7  and  C6_8 
ROOT
HETATM    1  C1  LIG X 999      41.648 132.472  19.006  1.00  0.00     0.014 C 
HETATM    2  C2  LIG X 999      42.713 132.295  19.544  1.00  0.00    -0.091 C 
HETATM    3  C3  LIG X 999      44.004 132.077  20.197  1.00  0.00     0.270 C 
ENDROOT
BRANCH   3   4
HETATM    4  O1  LIG X 999      44.983 131.785  19.208  1.00  0.00    -0.317 OA
BRANCH   4   5
HETATM    5  C4  LIG X 999      45.604 130.536  19.115  1.00  0.00     0.217 C 
HETATM    6  O2  LIG X 999      46.034 129.883  20.267  1.00  0.00    -0.164 OA
HETATM    7  C5  LIG X 999      45.812 129.964  17.926  1.00  0.00     0.079 C 
BRANCH   7   8
HETATM    8  C6  LIG X 999      45.382 130.572  16.643  1.00  0.00    -0.020 A 
HETATM    9  C7  LIG X 999      44.133 131.218  16.575  1.00  0.00     0.012 A 
HETATM   10  C8  LIG X 999      43.673 131.761  15.376  1.00  0.00     0.002 A 
HETATM   11  C9  LIG X 999      44.441 131.661  14.218  1.00  0.00     0.012 A 
HETATM   12  C10 LIG X 999      45.684 131.015  14.249  1.00  0.00    -0.025 A 
HETATM   13  C11 LIG X 999      46.451 130.917  13.077  1.00  0.00     0.012 A 
HETATM   14  C15 LIG X 999      46.169 130.462  15.465  1.00  0.00    -0.015 A 
HETATM   15  C12 LIG X 999      47.695 130.284  13.101  1.00  0.00     0.001 A 
HETATM   16  C13 LIG X 999      48.185 129.750  14.291  1.00  0.00     0.001 A 
HETATM   17  C14 LIG X 999      47.435 129.836  15.467  1.00  0.00     0.013 A 
ENDBRANCH   7   8
ENDBRANCH   4   5
ENDBRANCH   3   4
TORSDOF 3
ENDMDL
MODEL 3
REMARK VINA RESULT:      -8.1      1.047      2.533
REMARK  3 active torsions:
REMARK  status: ('A' for Active; 'I' for Inactive)
REMARK    1  A    between atoms: C3_3  and  O1_4 
REMARK    2  A    between atoms: O1_4  and  C4_5 
REMARK    3  A    between atoms: C5_7  and  C6_8 
ROOT
HETATM    1  C1  LIG X 999      47.106 130.949  13.213  1.00  0.00     0.014 C 
HETATM    2  C2  LIG X 999      46.054 131.002  13.800  1.00  0.00    -0.091 C 
HETATM    3  C3  LIG X 999      44.778 131.064  14.512  1.00  0.00     0.270 C 
ENDROOT
BRANCH   3   4
HETATM    4  O1  LIG X 999      44.839 130.219  15.654  1.00  0.00    -0.317 OA
BRANCH   4   5
HETATM    5  C4  LIG X 999      45.908 130.250  16.553  1.00  0.00     0.217 C 
HETATM    6  O2  LIG X 999      47.163 129.792  16.162  1.00  0.00    -0.164 OA
HETATM    7  C5  LIG X 999      45.737 130.697  17.801  1.00  0.00     0.079 C 
BRANCH   7   8
HETATM    8  C6  LIG X 999      44.445 131.217  18.310  1.00  0.00    -0.020 A 
HETATM    9  C7  LIG X 999      43.479 131.672  17.393  1.00  0.00     0.012 A 
HETATM   10  C8  LIG X 999      42.271 132.211  17.834  1.00  0.00     0.002 A 
HETATM   11  C9  LIG X 999      42.005 132.319  19.197  1.00  0.00     0.012 A 
HETATM   12  C10 LIG X 999      42.950 131.885  20.137  1.00  0.00    -0.025 A 
HETATM   13  C11 LIG X 999      42.675 131.999  21.509  1.00  0.00     0.012 A 
HETATM   14  C15 LIG X 999      44.183 131.328  19.702  1.00  0.00    -0.015 A 
HETATM   15  C12 LIG X 999      43.605 131.560  22.452  1.00  0.00     0.001 A 
HETATM   16  C13 LIG X 999      44.813 131.001  22.037  1.00  0.00     0.001 A 
HETATM   17  C14 LIG X 999      45.104 130.881  20.675  1.00  0.00     0.013 A 
ENDBRANCH   7   8
ENDBRANCH   4   5
ENDBRANCH   3   4
TORSDOF 3
ENDMDL
MODEL 4
REMARK VINA RESULT:      -6.8      2.461      5.902
REMARK  3 active torsions:
REMARK  status: ('A' for Active; 'I' for Inactive)
REMARK    1  A    between atoms: C3_3  and  O1_4 
REMARK    2  A    between atoms: O1_4  and  C4_5 
REMARK    3  A    between atoms: C5_7  and  C6_8 
ROOT
HETATM    1  C1  LIG X 999      43.782 129.239  22.880  1.00  0.00     0.014 C 
HETATM    2  C2  LIG X 999      43.380 130.352  22.651  1.00  0.00    -0.091 C 
HETATM    3  C3  LIG X 999      42.895 131.704  22.373  1.00  0.00     0.270 C 
ENDROOT
BRANCH   3   4
HETATM    4  O1  LIG X 999      43.359 132.113  21.093  1.00  0.00    -0.317 OA
BRANCH   4   5
HETATM    5  C4  LIG X 999      42.489 132.451  20.053  1.00  0.00     0.217 C 
HETATM    6  O2  LIG X 999      41.293 133.109  20.330  1.00  0.00    -0.164 OA
HETATM    7  C5  LIG X 999      42.778 132.131  18.788  1.00  0.00     0.079 C 
BRANCH   7   8
HETATM    8  C6  LIG X 999      44.029 131.442  18.389  1.00  0.00    -0.020 A 
HETATM    9  C7  LIG X 999      44.900 130.969  19.387  1.00  0.00     0.012 A 
HETATM   10  C8  LIG X 999      46.108 130.357  19.052  1.00  0.00     0.002 A 
HETATM   11  C9  LIG X 999      46.478 130.216  17.717  1.00  0.00     0.012 A 
HETATM   12  C10 LIG X 999      45.639 130.686  16.698  1.00  0.00    -0.025 A 
HETATM   13  C11 LIG X 999      46.019 130.541  15.355  1.00  0.00     0.012 A 
HETATM   14  C15 LIG X 999      44.402 131.306  17.024  1.00  0.00    -0.015 A 
HETATM   15  C12 LIG X 999      45.185 130.997  14.333  1.00  0.00     0.001 A 
HETATM   16  C13 LIG X 999      43.964 131.595  14.642  1.00  0.00     0.001 A 
HETATM   17  C14 LIG X 999      43.569 131.749  15.973  1.00  0.00     0.013 A 
ENDBRANCH   7   8
ENDBRANCH   4   5
ENDBRANCH   3   4
TORSDOF 3
ENDMDL
MODEL 5
REMARK VINA RESULT:      -6.4      1.253      2.515
REMARK  3 active torsions:
REMARK  status: ('A' for Active; 'I' for Inactive)
REMARK    1  A    between atoms: C3_3  and  O1_4 
REMARK    2  A    between atoms: O1_4  and  C4_5 
REMARK    3  A    between atoms: C5_7  and  C6_8 
ROOT
HETATM    1  C1  LIG X 999      47.627 129.370  14.039  1.00  0.00     0.014 C 
HETATM    2  C2  LIG X 999      46.578 129.277  14.625  1.00  0.00    -0.091 C 
HETATM    3  C3  LIG X 999      45.305 129.165  15.338  1.00  0.00     0.270 C 
ENDROOT
BRANCH   3   4
HETATM    4  O1  LIG X 999      44.768 130.465  15.543  1.00  0.00    -0.317 OA
BRANCH   4   5
HETATM    5  C4  LIG X 999      45.565 131.557  15.901  1.00  0.00     0.217 C 
HETATM    6  O2  LIG X 999      46.649 131.920  15.106  1.00  0.00    -0.164 OA
HETATM    7  C5  LIG X 999      45.313 132.250  17.016  1.00  0.00     0.079 C 
BRANCH   7   8
HETATM    8  C6  LIG X 999      44.177 131.950  17.922  1.00  0.00    -0.020 A 
HETATM    9  C7  LIG X 999      42.866 131.993  17.414  1.00  0.00     0.012 A 
HETATM   10  C8  LIG X 999      41.769 131.763  18.245  1.00  0.00     0.002 A 
HETATM   11  C9  LIG X 999      41.956 131.498  19.600  1.00  0.00     0.012 A 
HETATM   12  C10 LIG X 999      43.249 131.460  20.139  1.00  0.00    -0.025 A 
HETATM   13  C11 LIG X 999      43.430 131.194  21.506  1.00  0.00     0.012 A 
HETATM   14  C15 LIG X 999      44.377 131.686  19.303  1.00  0.00    -0.015 A 
HETATM   15  C12 LIG X 999      44.714 131.144  22.050  1.00  0.00     0.001 A 
HETATM   16  C13 LIG X 999      45.827 131.351  21.236  1.00  0.00     0.001 A 
HETATM   17  C14 LIG X 999      45.666 131.619  19.874  1.00  0.00     0.013 A 
ENDBRANCH   7   8
ENDBRANCH   4   5
ENDBRANCH   3   4
TORSDOF 3
ENDMDL
MODEL 6
REMARK VINA RESULT:      -6.4      3.095      6.756
REMARK  3 active torsions:
REMARK  status: ('A' for Active; 'I' for Inactive)
REMARK    1  A    between atoms: C3_3  and  O1_4 
REMARK    2  A    between atoms: O1_4  and  C4_5 
REMARK    3  A    between atoms: C5_7  and  C6_8 
ROOT
HETATM    1  C1  LIG X 999      42.465 132.497  24.625  1.00  0.00     0.014 C 
HETATM    2  C2  LIG X 999      42.383 131.353  24.253  1.00  0.00    -0.091 C 
HETATM    3  C3  LIG X 999      42.282 129.966  23.799  1.00  0.00     0.270 C 
ENDROOT
BRANCH   3   4
HETATM    4  O1  LIG X 999      42.941 129.834  22.547  1.00  0.00    -0.317 OA
BRANCH   4   5
HETATM    5  C4  LIG X 999      44.326 129.972  22.411  1.00  0.00     0.217 C 
HETATM    6  O2  LIG X 999      45.180 129.403  23.352  1.00  0.00    -0.164 OA
HETATM    7  C5  LIG X 999      44.847 130.665  21.393  1.00  0.00     0.079 C 
BRANCH   7   8
HETATM    8  C6  LIG X 999      44.024 131.298  20.334  1.00  0.00    -0.020 A 
HETATM    9  C7  LIG X 999      42.832 131.954  20.691  1.00  0.00     0.012 A 
HETATM   10  C8  LIG X 999      42.008 132.521  19.719  1.00  0.00     0.002 A 
HETATM   11  C9  LIG X 999      42.347 132.434  18.372  1.00  0.00     0.012 A 
HETATM   12  C10 LIG X 999      43.522 131.777  17.980  1.00  0.00    -0.025 A 
HETATM   13  C11 LIG X 999      43.857 131.692  16.620  1.00  0.00     0.012 A 
HETATM   14  C15 LIG X 999      44.375 131.200  18.961  1.00  0.00    -0.015 A 
HETATM   15  C12 LIG X 999      45.030 131.049  16.222  1.00  0.00     0.001 A 
HETATM   16  C13 LIG X 999      45.880 130.491  17.176  1.00  0.00     0.001 A 
HETATM   17  C14 LIG X 999      45.562 130.564  18.534  1.00  0.00     0.013 A 
ENDBRANCH   7   8
ENDBRANCH   4   5
ENDBRANCH   3   4
TORSDOF 3
ENDMDL
MODEL 7
REMARK VINA RESULT:      -6.4      3.606      6.064
REMARK  3 active torsions:
REMARK  status: ('A' for Active; 'I' for Inactive)
REMARK    1  A    between atoms: C3_3  and  O1_4 
REMARK    2  A    between atoms: O1_4  and  C4_5 
REMARK    3  A    between atoms: C5_7  and  C6_8 
ROOT
HETATM    1  C1  LIG X 999      45.180 127.473  22.486  1.00  0.00     0.014 C 
HETATM    2  C2  LIG X 999      44.521 128.202  23.185  1.00  0.00    -0.091 C 
HETATM    3  C3  LIG X 999      43.723 129.087  24.033  1.00  0.00     0.270 C 
ENDROOT
BRANCH   3   4
HETATM    4  O1  LIG X 999      44.012 130.439  23.702  1.00  0.00    -0.317 OA
BRANCH   4   5
HETATM    5  C4  LIG X 999      43.018 131.351  23.338  1.00  0.00     0.217 C 
HETATM    6  O2  LIG X 999      42.054 131.740  24.265  1.00  0.00    -0.164 OA
HETATM    7  C5  LIG X 999      42.963 131.843  22.097  1.00  0.00     0.079 C 
BRANCH   7   8
HETATM    8  C6  LIG X 999      43.947 131.500  21.041  1.00  0.00    -0.020 A 
HETATM    9  C7  LIG X 999      45.243 131.099  21.416  1.00  0.00     0.012 A 
HETATM   10  C8  LIG X 999      46.210 130.814  20.453  1.00  0.00     0.002 A 
HETATM   11  C9  LIG X 999      45.911 130.935  19.098  1.00  0.00     0.012 A 
HETATM   12  C10 LIG X 999      44.634 131.343  18.691  1.00  0.00    -0.025 A 
HETATM   13  C11 LIG X 999      44.340 131.465  17.324  1.00  0.00     0.012 A 
HETATM   14  C15 LIG X 999      43.635 131.632  19.662  1.00  0.00    -0.015 A 
HETATM   15  C12 LIG X 999      43.067 131.860  16.909  1.00  0.00     0.001 A 
HETATM   16  C13 LIG X 999      42.078 132.133  17.852  1.00  0.00     0.001 A 
HETATM   17  C14 LIG X 999      42.353 132.019  19.217  1.00  0.00     0.013 A 
ENDBRANCH   7   8
ENDBRANCH   4   5
ENDBRANCH   3   4
TORSDOF 3
ENDMDL
