REMARK VINA RESULT:      -5.6      2.805      3.540
REMARK  7 active torsions:
REMARK  status: ('A' for Active; 'I' for Inactive)
REMARK    1  A    between atoms: S1_2  and  C1_3 
REMARK    2  A    between atoms: C1_3  and  N2_11 
REMARK    3  A    between atoms: N1_4  and  C2_6 
REMARK    4  A    between atoms: C2_6  and  C3_7 
REMARK    5  A    between atoms: C3_7  and  C4_8 
REMARK    6  A    between atoms: C4_8  and  S2_9 
REMARK    7  A    between atoms: N2_11  and  C5_14 
ROOT
HETATM    1  N2  LIG X 999      45.711 130.429  20.321  1.00  0.00     0.006 N 
HETATM    2  H10 LIG X 999      46.735 130.315  20.495  1.00  0.00     0.293 HD
HETATM    3  H11 LIG X 999      45.270 129.510  20.555  1.00  0.00     0.293 HD
ENDROOT
BRANCH   1   4
HETATM    4  C1  LIG X 999      45.174 131.448  21.203  1.00  0.00     0.240 C 
HETATM    5  N1  LIG X 999      45.888 132.426  21.680  1.00  0.00    -0.365 N 
HETATM    6  H2  LIG X 999      45.427 133.103  22.306  1.00  0.00     0.161 HD
BRANCH   4   7
HETATM    7  S1  LIG X 999      43.460 131.305  21.740  1.00  0.00    -0.100 SA
HETATM    8  H1  LIG X 999      43.009 132.216  20.767  1.00  0.00     0.110 HD
ENDBRANCH   4   7
BRANCH   5   9
HETATM    9  C2  LIG X 999      47.279 132.691  21.357  1.00  0.00     0.122 C 
BRANCH   9  10
HETATM   10  C3  LIG X 999      47.674 134.094  21.837  1.00  0.00     0.029 C 
BRANCH  10  11
HETATM   11  C4  LIG X 999      48.071 134.120  23.316  1.00  0.00     0.072 C 
BRANCH  11  12
HETATM   12  S2  LIG X 999      49.841 134.497  23.531  1.00  0.00    -0.182 SA
HETATM   13  H9  LIG X 999      50.257 133.310  22.900  1.00  0.00     0.101 HD
ENDBRANCH  11  12
ENDBRANCH  10  11
ENDBRANCH   9  10
ENDBRANCH   5   9
ENDBRANCH   1   4
BRANCH   1  14
HETATM   14  C5  LIG X 999      45.420 130.707  18.934  1.00  0.00     0.141 A 
HETATM   15  C6  LIG X 999      44.324 131.517  18.585  1.00  0.00     0.038 A 
HETATM   16  C7  LIG X 999      44.031 131.786  17.245  1.00  0.00     0.014 A 
HETATM   17  C8  LIG X 999      44.845 131.267  16.229  1.00  0.00    -0.026 A 
HETATM   18  C9  LIG X 999      44.556 131.526  14.880  1.00  0.00     0.012 A 
HETATM   19  C13 LIG X 999      45.973 130.483  16.566  1.00  0.00    -0.024 A 
HETATM   20  C10 LIG X 999      45.380 131.011  13.875  1.00  0.00     0.001 A 
HETATM   21  C11 LIG X 999      46.496 130.237  14.208  1.00  0.00     0.001 A 
HETATM   22  C12 LIG X 999      46.793 129.974  15.548  1.00  0.00     0.012 A 
HETATM   23  C14 LIG X 999      46.259 130.219  17.914  1.00  0.00     0.049 A 
ENDBRANCH   1  14
TORSDOF 7
