REMARK VINA RESULT:      -7.4      2.611      4.898
REMARK  4 active torsions:
REMARK  status: ('A' for Active; 'I' for Inactive)
REMARK    1  A    between atoms: C3_3  and  O1_4 
REMARK    2  A    between atoms: O1_4  and  C4_5 
REMARK    3  A    between atoms: C4_5  and  O2_6 
REMARK    4  A    between atoms: C5_8  and  C6_9 
ROOT
HETATM    1  C1  LIG X 999      45.614 126.752  22.645  1.00  0.00     0.014 C 
HETATM    2  C2  LIG X 999      44.674 127.412  23.011  1.00  0.00    -0.091 C 
HETATM    3  C3  LIG X 999      43.533 128.213  23.454  1.00  0.00     0.270 C 
ENDROOT
BRANCH   3   4
HETATM    4  O1  LIG X 999      43.537 129.455  22.762  1.00  0.00    -0.319 OA
BRANCH   4   5
HETATM    5  C4  LIG X 999      44.176 130.592  23.265  1.00  0.00     0.179 C 
HETATM    6  C5  LIG X 999      44.468 131.622  22.458  1.00  0.00     0.075 C 
BRANCH   5   7
HETATM    7  O2  LIG X 999      44.486 130.663  24.625  1.00  0.00    -0.341 OA
HETATM    8  H4  LIG X 999      45.426 130.852  24.954  1.00  0.00     0.220 HD
ENDBRANCH   5   7
BRANCH   6   9
HETATM    9  C6  LIG X 999      44.188 131.645  21.004  1.00  0.00    -0.031 A 
HETATM   10  C7  LIG X 999      42.944 132.062  20.493  1.00  0.00     0.012 A 
HETATM   11  C8  LIG X 999      42.702 132.049  19.118  1.00  0.00     0.013 A 
HETATM   12  C9  LIG X 999      43.691 131.605  18.230  1.00  0.00    -0.026 A 
HETATM   13  C10 LIG X 999      43.457 131.590  16.846  1.00  0.00     0.012 A 
HETATM   14  C14 LIG X 999      44.935 131.159  18.736  1.00  0.00    -0.025 A 
HETATM   15  C11 LIG X 999      44.450 131.137  15.973  1.00  0.00     0.001 A 
HETATM   16  C12 LIG X 999      45.678 130.696  16.471  1.00  0.00     0.001 A 
HETATM   17  C13 LIG X 999      45.923 130.705  17.846  1.00  0.00     0.012 A 
HETATM   18  C15 LIG X 999      45.170 131.174  20.119  1.00  0.00     0.024 A 
ENDBRANCH   6   9
ENDBRANCH   4   5
ENDBRANCH   3   4
TORSDOF 4
