REMARK VINA RESULT:      -3.8      3.371      7.637
REMARK  3 active torsions:
REMARK  status: ('A' for Active; 'I' for Inactive)
REMARK    1  A    between atoms: C2_2  and  O1_3 
REMARK    2  A    between atoms: O1_3  and  C3_4 
REMARK       I    between atoms: C3_4  and  N1_6 
REMARK    3  A    between atoms: N1_6  and  C4_7 
ROOT
HETATM    1  C4  LIG X 999      43.340 131.778  21.043  1.00  0.00     0.063 A 
HETATM    2  C5  LIG X 999      42.265 132.220  20.262  1.00  0.00     0.032 A 
HETATM    3  C6  LIG X 999      42.338 132.196  18.866  1.00  0.00     0.014 A 
HETATM    4  C7  LIG X 999      43.488 131.712  18.229  1.00  0.00    -0.025 A 
HETATM    5  C8  LIG X 999      43.571 131.682  16.824  1.00  0.00     0.021 A 
HETATM    6  C9  LIG X 999      44.735 131.184  16.234  1.00  0.00    -0.024 A 
HETATM    7  C10 LIG X 999      45.774 130.726  16.983  1.00  0.00    -0.024 A 
HETATM    8  C11 LIG X 999      45.728 130.731  18.378  1.00  0.00     0.021 A 
HETATM    9  C12 LIG X 999      44.577 131.234  19.014  1.00  0.00    -0.023 A 
HETATM   10  C13 LIG X 999      44.488 131.263  20.413  1.00  0.00     0.044 A 
HETATM   11  C14 LIG X 999      46.862 130.229  16.113  1.00  0.00     0.276 C 
HETATM   12  N2  LIG X 999      46.454 130.580  14.716  1.00  0.00    -0.067 N 
HETATM   13  C15 LIG X 999      47.310 131.673  14.196  1.00  0.00     0.272 C 
HETATM   14  C16 LIG X 999      46.578 129.405  13.824  1.00  0.00     0.272 C 
HETATM   15  C17 LIG X 999      45.029 131.037  14.792  1.00  0.00     0.276 C 
ENDROOT
BRANCH   1  16
HETATM   16  N1  LIG X 999      43.209 131.810  22.471  1.00  0.00    -0.188 NA
HETATM   17  C3  LIG X 999      44.240 132.161  23.400  1.00  0.00     0.387 C 
HETATM   18  O2  LIG X 999      44.069 131.919  24.625  1.00  0.00    -0.236 OA
BRANCH  17  19
HETATM   19  O1  LIG X 999      45.397 132.811  22.963  1.00  0.00    -0.303 OA
BRANCH  19  20
HETATM   20  C2  LIG X 999      46.114 133.738  23.772  1.00  0.00     0.176 C 
HETATM   21  C1  LIG X 999      47.478 134.001  23.154  1.00  0.00     0.034 C 
ENDBRANCH  19  20
ENDBRANCH  17  19
ENDBRANCH   1  16
TORSDOF 3
