REMARK VINA RESULT:      -7.5      1.627      2.403
REMARK  4 active torsions:
REMARK  status: ('A' for Active; 'I' for Inactive)
REMARK    1  A    between atoms: C3_4  and  O1_5 
REMARK    2  A    between atoms: C3_4  and  O2_6 
REMARK    3  A    between atoms: O2_6  and  C4_7 
REMARK    4  A    between atoms: C13_16  and  N2_17 
ROOT
HETATM    1  C4  LIG X 999      44.972 131.059  17.319  1.00  0.00     0.106 A 
HETATM    2  C5  LIG X 999      43.779 131.578  16.792  1.00  0.00     0.040 A 
HETATM    3  C6  LIG X 999      42.762 132.015  17.634  1.00  0.00     0.015 A 
HETATM    4  C7  LIG X 999      42.926 131.973  19.022  1.00  0.00    -0.024 A 
HETATM    5  C8  LIG X 999      41.896 132.433  19.858  1.00  0.00     0.012 A 
HETATM    6  C9  LIG X 999      42.058 132.425  21.243  1.00  0.00     0.001 A 
HETATM    7  C10 LIG X 999      43.250 131.970  21.804  1.00  0.00     0.001 A 
HETATM    8  C11 LIG X 999      44.284 131.509  20.988  1.00  0.00     0.014 A 
HETATM    9  C12 LIG X 999      44.138 131.485  19.582  1.00  0.00     0.003 A 
HETATM   10  C13 LIG X 999      45.164 131.013  18.715  1.00  0.00     0.071 A 
ENDROOT
BRANCH   1  11
HETATM   11  O2  LIG X 999      46.000 130.614  16.474  1.00  0.00    -0.272 OA
BRANCH  11  12
HETATM   12  C3  LIG X 999      46.437 131.275  15.315  1.00  0.00     0.265 C 
HETATM   13  N1  LIG X 999      47.034 130.589  14.366  1.00  0.00    -0.350 N 
HETATM   14  C1  LIG X 999      47.493 131.233  13.128  1.00  0.00     0.153 C 
HETATM   15  C2  LIG X 999      47.251 129.146  14.547  1.00  0.00     0.153 C 
BRANCH  12  16
HETATM   16  O1  LIG X 999      46.188 132.648  15.184  1.00  0.00    -0.327 OA
HETATM   17  H7  LIG X 999      45.713 133.208  15.880  1.00  0.00     0.221 HD
ENDBRANCH  12  16
ENDBRANCH  11  12
ENDBRANCH   1  11
BRANCH  10  18
HETATM   18  N2  LIG X 999      46.391 130.461  19.224  1.00  0.00    -0.396 N 
HETATM   19  H14 LIG X 999      47.081 129.965  18.620  1.00  0.00     0.156 HD
HETATM   20  H15 LIG X 999      46.694 130.640  20.207  1.00  0.00     0.156 HD
ENDBRANCH  10  18
TORSDOF 4
