REMARK VINA RESULT:      -6.2      2.067      2.376
REMARK  5 active torsions:
REMARK  status: ('A' for Active; 'I' for Inactive)
REMARK    1  A    between atoms: C6_6  and  O1_7 
REMARK    2  A    between atoms: O1_7  and  C7_8 
REMARK    3  A    between atoms: C7_8  and  C8_9 
REMARK    4  A    between atoms: C8_9  and  C9_10 
REMARK    5  A    between atoms: C9_10  and  N1_11 
ROOT
HETATM    1  N1  LIG X 999      46.774 132.453  21.365  1.00  0.00    -0.116 NA
HETATM    2  N2  LIG X 999      47.326 133.493  21.724  1.00  0.00    -0.168 NA
HETATM    3  N3  LIG X 999      47.877 134.533  22.082  1.00  0.00     0.068 N 
ENDROOT
BRANCH   1   4
HETATM    4  C9  LIG X 999      45.387 132.191  21.718  1.00  0.00     0.191 C 
BRANCH   4   5
HETATM    5  C8  LIG X 999      44.856 131.025  20.884  1.00  0.00     0.051 C 
BRANCH   5   6
HETATM    6  C7  LIG X 999      45.760 130.746  19.685  1.00  0.00     0.177 C 
BRANCH   6   7
HETATM    7  O1  LIG X 999      44.959 130.590  18.516  1.00  0.00    -0.351 OA
BRANCH   7   8
HETATM    8  C6  LIG X 999      45.413 130.813  17.208  1.00  0.00     0.069 A 
HETATM    9  C5  LIG X 999      46.373 129.941  16.681  1.00  0.00     0.049 A 
HETATM   10  C4  LIG X 999      46.862 130.119  15.378  1.00  0.00    -0.023 A 
HETATM   11  C3  LIG X 999      47.826 129.245  14.849  1.00  0.00     0.012 A 
HETATM   12  C12 LIG X 999      46.379 131.189  14.588  1.00  0.00    -0.026 A 
HETATM   13  C2  LIG X 999      48.305 129.431  13.550  1.00  0.00     0.001 A 
HETATM   14  C1  LIG X 999      47.827 130.488  12.770  1.00  0.00     0.001 A 
HETATM   15  C13 LIG X 999      46.868 131.365  13.284  1.00  0.00     0.012 A 
HETATM   16  C11 LIG X 999      45.417 132.061  15.116  1.00  0.00     0.015 A 
HETATM   17  C10 LIG X 999      44.937 131.876  16.415  1.00  0.00     0.037 A 
ENDBRANCH   7   8
ENDBRANCH   6   7
ENDBRANCH   5   6
ENDBRANCH   4   5
ENDBRANCH   1   4
TORSDOF 5
