REMARK VINA RESULT:      -3.7      6.820      9.919
REMARK  3 active torsions:
REMARK  status: ('A' for Active; 'I' for Inactive)
REMARK    1  A    between atoms: C3_3  and  O1_4 
REMARK    2  A    between atoms: O1_4  and  C4_5 
REMARK    3  A    between atoms: C15_16  and  C16_17 
ROOT
HETATM    1  C1  LIG X 999      44.987 127.946  22.740  1.00  0.00     0.014 C 
HETATM    2  C2  LIG X 999      45.366 126.814  22.574  1.00  0.00    -0.091 C 
HETATM    3  C3  LIG X 999      45.827 125.440  22.372  1.00  0.00     0.268 C 
ENDROOT
BRANCH   3   4
HETATM    4  O1  LIG X 999      47.117 125.464  21.768  1.00  0.00    -0.339 OA
BRANCH   4   5
HETATM    5  C4  LIG X 999      47.998 124.370  21.701  1.00  0.00     0.083 C 
HETATM    6  C5  LIG X 999      47.967 123.501  20.577  1.00  0.00     0.038 C 
HETATM    7  C6  LIG X 999      49.013 122.673  20.127  1.00  0.00     0.003 C 
HETATM    8  C7  LIG X 999      50.361 122.808  20.471  1.00  0.00     0.002 C 
HETATM    9  C8  LIG X 999      50.948 124.031  20.810  1.00  0.00     0.020 C 
HETATM   10  C9  LIG X 999      51.859 124.156  21.869  1.00  0.00     0.016 C 
HETATM   11  C10 LIG X 999      52.821 125.227  21.819  1.00  0.00    -0.078 C 
HETATM   12  C12 LIG X 999      51.822 123.348  23.025  1.00  0.00     0.020 C 
HETATM   13  C11 LIG X 999      53.625 126.123  21.777  1.00  0.00     0.018 C 
HETATM   14  C13 LIG X 999      50.696 122.643  23.497  1.00  0.00     0.002 C 
HETATM   15  C14 LIG X 999      49.361 122.925  23.153  1.00  0.00     0.017 C 
HETATM   16  C15 LIG X 999      48.892 124.202  22.781  1.00  0.00     0.035 C 
BRANCH  16  17
HETATM   17  C16 LIG X 999      49.288 125.394  23.567  1.00  0.00     0.272 C 
HETATM   18  O2  LIG X 999      48.599 125.792  24.545  1.00  0.00    -0.301 OA
ENDBRANCH  16  17
ENDBRANCH   4   5
ENDBRANCH   3   4
TORSDOF 3
