REMARK VINA RESULT:      -5.5      3.048      7.740
REMARK  3 active torsions:
REMARK  status: ('A' for Active; 'I' for Inactive)
REMARK    1  A    between atoms: C2_2  and  N1_3 
REMARK    2  A    between atoms: C3_6  and  O1_7 
REMARK    3  A    between atoms: O1_7  and  C4_8 
REMARK       I    between atoms: C4_8  and  N4_10 
ROOT
HETATM    1  N1  LIG X 999      42.468 131.801  22.633  1.00  0.00    -0.070 NA
HETATM    2  N2  LIG X 999      42.815 132.438  23.629  1.00  0.00    -0.162 NA
HETATM    3  N3  LIG X 999      43.153 133.077  24.624  1.00  0.00     0.068 N 
ENDROOT
BRANCH   1   4
HETATM    4  C2  LIG X 999      43.384 131.325  21.634  1.00  0.00     0.128 A 
HETATM    5  C1  LIG X 999      43.201 131.783  20.322  1.00  0.00     0.049 A 
HETATM    6  C13 LIG X 999      44.057 131.378  19.292  1.00  0.00    -0.023 A 
HETATM    7  C8  LIG X 999      45.121 130.481  19.576  1.00  0.00    -0.022 A 
HETATM    8  C12 LIG X 999      43.868 131.846  17.977  1.00  0.00     0.021 A 
HETATM    9  C7  LIG X 999      45.301 130.015  20.884  1.00  0.00     0.052 A 
HETATM   10  C9  LIG X 999      45.979 130.060  18.540  1.00  0.00     0.021 A 
HETATM   11  C3  LIG X 999      44.448 130.435  21.923  1.00  0.00     0.113 A 
HETATM   12  C10 LIG X 999      45.762 130.551  17.252  1.00  0.00    -0.024 A 
HETATM   13  C11 LIG X 999      44.744 131.414  16.981  1.00  0.00    -0.024 A 
HETATM   14  C17 LIG X 999      46.516 130.232  16.021  1.00  0.00     0.276 C 
HETATM   15  C14 LIG X 999      44.721 131.752  15.542  1.00  0.00     0.276 C 
HETATM   16  N5  LIG X 999      45.951 131.126  14.960  1.00  0.00    -0.067 N 
HETATM   17  C15 LIG X 999      45.618 130.349  13.745  1.00  0.00     0.272 C 
HETATM   18  C16 LIG X 999      46.935 132.177  14.605  1.00  0.00     0.272 C 
BRANCH  11  19
HETATM   19  O1  LIG X 999      44.613 129.936  23.224  1.00  0.00    -0.259 OA
BRANCH  19  20
HETATM   20  C4  LIG X 999      43.859 128.894  23.786  1.00  0.00     0.367 C 
HETATM   21  O2  LIG X 999      42.893 129.153  24.555  1.00  0.00    -0.238 OA
HETATM   22  N4  LIG X 999      44.161 127.530  23.445  1.00  0.00    -0.336 N 
HETATM   23  C5  LIG X 999      43.333 126.445  23.980  1.00  0.00     0.154 C 
HETATM   24  C6  LIG X 999      45.311 127.241  22.587  1.00  0.00     0.154 C 
ENDBRANCH  19  20
ENDBRANCH  11  19
ENDBRANCH   1   4
TORSDOF 3
