REMARK VINA RESULT:      -4.5      8.180     10.513
REMARK  2 active torsions:
REMARK  status: ('A' for Active; 'I' for Inactive)
REMARK    1  A    between atoms: C9_10  and  N2_11 
REMARK       I    between atoms: N2_11  and  C10_12 
REMARK    2  A    between atoms: C10_12  and  C11_14 
ROOT
HETATM    1  C11 LIG X 999      40.875 126.243  24.337  1.00  0.00     0.282 C 
HETATM    2 CL1  LIG X 999      40.346 127.753  23.553  1.00  0.00    -0.099 Cl
HETATM    3  C12 LIG X 999      40.006 125.141  23.912  1.00  0.00     0.089 C 
HETATM    4  N3  LIG X 999      39.320 124.271  23.576  1.00  0.00    -0.195 NA
ENDROOT
BRANCH   1   5
HETATM    5  C10 LIG X 999      42.297 125.943  23.979  1.00  0.00     0.276 C 
HETATM    6  N2  LIG X 999      42.575 125.078  22.870  1.00  0.00    -0.212 NA
HETATM    7  O1  LIG X 999      43.235 126.507  24.605  1.00  0.00    -0.268 OA
BRANCH   6   8
HETATM    8  C9  LIG X 999      43.844 124.494  22.541  1.00  0.00     0.061 A 
HETATM    9  C8  LIG X 999      43.888 123.133  22.214  1.00  0.00     0.032 A 
HETATM   10  C7  LIG X 999      45.102 122.512  21.903  1.00  0.00     0.014 A 
HETATM   11  C6  LIG X 999      46.295 123.244  21.934  1.00  0.00    -0.025 A 
HETATM   12  C5  LIG X 999      47.523 122.628  21.622  1.00  0.00     0.021 A 
HETATM   13  C14 LIG X 999      46.265 124.622  22.291  1.00  0.00    -0.023 A 
HETATM   14  C4  LIG X 999      48.688 123.393  21.681  1.00  0.00    -0.024 A 
HETATM   15  C3  LIG X 999      50.071 122.965  21.377  1.00  0.00     0.276 C 
HETATM   16  C16 LIG X 999      48.661 124.710  22.025  1.00  0.00    -0.024 A 
HETATM   17  N1  LIG X 999      50.941 124.132  21.728  1.00  0.00    -0.067 N 
HETATM   18  C1  LIG X 999      51.727 123.830  22.949  1.00  0.00     0.272 C 
HETATM   19  C2  LIG X 999      51.872 124.442  20.620  1.00  0.00     0.272 C 
HETATM   20  C17 LIG X 999      50.022 125.286  21.984  1.00  0.00     0.276 C 
HETATM   21  C15 LIG X 999      47.465 125.360  22.334  1.00  0.00     0.021 A 
HETATM   22  C13 LIG X 999      45.040 125.232  22.599  1.00  0.00     0.044 A 
ENDBRANCH   6   8
ENDBRANCH   1   5
TORSDOF 2
