REMARK VINA RESULT:      -5.3      1.970      4.509
REMARK  5 active torsions:
REMARK  status: ('A' for Active; 'I' for Inactive)
REMARK    1  A    between atoms: C3_3  and  O1_4 
REMARK    2  A    between atoms: O1_4  and  C4_5 
REMARK    3  A    between atoms: C5_6  and  C6_7 
REMARK    4  A    between atoms: C12_14  and  N1_15 
REMARK    5  A    between atoms: C15_21  and  N3_22 
ROOT
HETATM    1  C1  LIG X 999      44.737 131.018  21.222  1.00  0.00     0.014 C 
HETATM    2  C2  LIG X 999      43.892 130.972  22.079  1.00  0.00    -0.091 C 
HETATM    3  C3  LIG X 999      42.865 130.917  23.120  1.00  0.00     0.268 C 
ENDROOT
BRANCH   3   4
HETATM    4  O1  LIG X 999      43.121 129.803  23.970  1.00  0.00    -0.339 OA
BRANCH   4   5
HETATM    5  C4  LIG X 999      42.526 128.537  23.840  1.00  0.00     0.085 A 
HETATM    6  C5  LIG X 999      43.356 127.407  23.550  1.00  0.00     0.050 A 
HETATM    7  C7  LIG X 999      42.723 126.159  23.427  1.00  0.00     0.044 A 
HETATM    8  C8  LIG X 999      41.382 126.051  23.582  1.00  0.00     0.021 A 
HETATM    9  C15 LIG X 999      43.149 124.771  23.146  1.00  0.00     0.198 A 
HETATM   10  C9  LIG X 999      41.003 124.761  23.420  1.00  0.00     0.071 A 
HETATM   11  C13 LIG X 999      40.523 127.096  23.861  1.00  0.00     0.006 A 
HETATM   12  C10 LIG X 999      39.663 124.399  23.532  1.00  0.00     0.035 A 
HETATM   13  N2  LIG X 999      42.137 123.942  23.141  1.00  0.00    -0.225 NA
HETATM   14  C11 LIG X 999      38.728 125.420  23.818  1.00  0.00     0.032 A 
HETATM   15  C12 LIG X 999      39.141 126.774  23.985  1.00  0.00     0.037 A 
HETATM   16  C14 LIG X 999      41.113 128.371  23.993  1.00  0.00     0.052 A 
BRANCH   6  17
HETATM   17  C6  LIG X 999      44.822 127.526  23.382  1.00  0.00     0.273 C 
HETATM   18  O2  LIG X 999      45.349 127.648  22.244  1.00  0.00    -0.301 OA
ENDBRANCH   6  17
BRANCH  15  19
HETATM   19  N1  LIG X 999      38.150 127.770  24.274  1.00  0.00    -0.398 N 
HETATM   20  H7  LIG X 999      37.412 127.995  23.572  1.00  0.00     0.156 HD
HETATM   21  H8  LIG X 999      38.126 128.295  25.173  1.00  0.00     0.156 HD
ENDBRANCH  15  19
BRANCH   9  22
HETATM   22  N3  LIG X 999      44.495 124.355  22.907  1.00  0.00    -0.051 NA
HETATM   23  N4  LIG X 999      44.744 123.365  22.220  1.00  0.00    -0.160 NA
HETATM   24  N5  LIG X 999      44.995 122.375  21.533  1.00  0.00     0.068 N 
ENDBRANCH   9  22
ENDBRANCH   4   5
ENDBRANCH   3   4
TORSDOF 5
