REMARK VINA RESULT:      -4.9      5.796      7.383
REMARK  3 active torsions:
REMARK  status: ('A' for Active; 'I' for Inactive)
REMARK    1  A    between atoms: C6_6  and  C7_7 
REMARK    2  A    between atoms: C8_8  and  C9_9 
REMARK    3  A    between atoms: C10_12  and  N1_13 
ROOT
HETATM    1  N1  LIG X 999      43.826 130.843  21.232  1.00  0.00    -0.105 NA
HETATM    2  N2  LIG X 999      44.445 131.467  20.369  1.00  0.00    -0.167 NA
HETATM    3  N3  LIG X 999      45.063 132.089  19.508  1.00  0.00     0.068 N 
ENDROOT
BRANCH   1   4
HETATM    4  C10 LIG X 999      44.320 130.756  22.604  1.00  0.00     0.179 C 
HETATM    5  C4  LIG X 999      44.184 129.325  23.081  1.00  0.00    -0.023 A 
HETATM    6  C3  LIG X 999      43.120 128.919  23.923  1.00  0.00    -0.050 A 
HETATM    7  C5  LIG X 999      45.087 128.362  22.598  1.00  0.00     0.030 A 
HETATM    8  C2  LIG X 999      43.009 127.570  24.294  1.00  0.00     0.009 A 
HETATM    9  C13 LIG X 999      42.164 129.919  24.531  1.00  0.00     0.039 C 
HETATM   10  C1  LIG X 999      43.917 126.625  23.813  1.00  0.00     0.021 A 
HETATM   11  C6  LIG X 999      44.957 127.017  22.965  1.00  0.00     0.018 A 
HETATM   12  C12 LIG X 999      42.142 131.252  23.780  1.00  0.00     0.007 C 
HETATM   13  C11 LIG X 999      43.567 131.740  23.517  1.00  0.00     0.035 C 
BRANCH  11  14
HETATM   14  C7  LIG X 999      45.888 126.041  22.468  1.00  0.00    -0.056 C 
HETATM   15  C8  LIG X 999      46.670 125.222  22.052  1.00  0.00     0.010 C 
BRANCH  15  16
HETATM   16  C9  LIG X 999      47.600 124.247  21.558  1.00  0.00     0.258 C 
HETATM   17  O1  LIG X 999      47.180 123.154  21.097  1.00  0.00    -0.637 OA
HETATM   18  O2  LIG X 999      48.962 124.510  21.586  1.00  0.00    -0.637 OA
ENDBRANCH  15  16
ENDBRANCH  11  14
ENDBRANCH   1   4
TORSDOF 3
