REMARK VINA RESULT:      -3.7      2.614      4.947
REMARK  5 active torsions:
REMARK  status: ('A' for Active; 'I' for Inactive)
REMARK    1  A    between atoms: C3_3  and  O1_4 
REMARK    2  A    between atoms: O1_4  and  C4_5 
REMARK    3  A    between atoms: C5_6  and  C6_7 
REMARK    4  A    between atoms: C12_14  and  N1_15 
REMARK    5  A    between atoms: C15_21  and  N3_22 
ROOT
HETATM    1  C1  LIG X 999      43.583 131.632  18.952  1.00  0.00     0.014 C 
HETATM    2  C2  LIG X 999      43.067 131.869  20.015  1.00  0.00    -0.091 C 
HETATM    3  C3  LIG X 999      42.440 132.156  21.305  1.00  0.00     0.268 C 
ENDROOT
BRANCH   3   4
HETATM    4  O1  LIG X 999      43.204 131.547  22.341  1.00  0.00    -0.339 OA
BRANCH   4   5
HETATM    5  C4  LIG X 999      43.153 130.185  22.685  1.00  0.00     0.085 A 
HETATM    6  C5  LIG X 999      44.287 129.356  22.404  1.00  0.00     0.050 A 
HETATM    7  C7  LIG X 999      44.196 128.000  22.761  1.00  0.00     0.044 A 
HETATM    8  C8  LIG X 999      43.075 127.518  23.348  1.00  0.00     0.021 A 
HETATM    9  C15 LIG X 999      45.075 126.814  22.672  1.00  0.00     0.198 A 
HETATM   10  C9  LIG X 999      43.220 126.196  23.600  1.00  0.00     0.071 A 
HETATM   11  C13 LIG X 999      41.948 128.258  23.647  1.00  0.00     0.006 A 
HETATM   12  C10 LIG X 999      42.193 125.475  24.202  1.00  0.00     0.035 A 
HETATM   13  N2  LIG X 999      44.502 125.746  23.166  1.00  0.00    -0.225 NA
HETATM   14  C11 LIG X 999      41.009 126.170  24.536  1.00  0.00     0.032 A 
HETATM   15  C12 LIG X 999      40.869 127.563  24.265  1.00  0.00     0.037 A 
HETATM   16  C14 LIG X 999      41.990 129.627  23.305  1.00  0.00     0.052 A 
BRANCH   6  17
HETATM   17  C6  LIG X 999      45.513 129.884  21.763  1.00  0.00     0.273 C 
HETATM   18  O2  LIG X 999      45.738 129.721  20.535  1.00  0.00    -0.301 OA
ENDBRANCH   6  17
BRANCH  15  19
HETATM   19  N1  LIG X 999      39.646 128.220  24.625  1.00  0.00    -0.398 N 
HETATM   20  H7  LIG X 999      39.080 127.872  25.430  1.00  0.00     0.156 HD
HETATM   21  H8  LIG X 999      39.281 129.049  24.112  1.00  0.00     0.156 HD
ENDBRANCH  15  19
BRANCH   9  22
HETATM   22  N3  LIG X 999      46.392 126.804  22.120  1.00  0.00    -0.051 NA
HETATM   23  N4  LIG X 999      47.095 125.795  22.164  1.00  0.00    -0.160 NA
HETATM   24  N5  LIG X 999      47.799 124.786  22.207  1.00  0.00     0.068 N 
ENDBRANCH   9  22
ENDBRANCH   4   5
ENDBRANCH   3   4
TORSDOF 5
