REMARK VINA RESULT:      -5.9      2.676      5.804
REMARK  1 active torsions:
REMARK  status: ('A' for Active; 'I' for Inactive)
REMARK    1  A    between atoms: C5_5  and  N1_6 
ROOT
HETATM    1  N1  LIG X 999      44.090 132.026  16.416  1.00  0.00    -0.070 NA
HETATM    2  N2  LIG X 999      43.906 131.308  15.432  1.00  0.00    -0.162 NA
HETATM    3  N3  LIG X 999      43.719 130.591  14.450  1.00  0.00     0.068 N 
ENDROOT
BRANCH   1   4
HETATM    4  C5  LIG X 999      44.481 131.489  17.691  1.00  0.00     0.124 A 
HETATM    5  C4  LIG X 999      43.760 131.764  18.886  1.00  0.00     0.007 A 
HETATM    6  C3  LIG X 999      42.540 132.473  18.886  1.00  0.00     0.015 A 
HETATM    7  C10 LIG X 999      44.257 131.271  20.124  1.00  0.00    -0.024 A 
HETATM    8  C2  LIG X 999      41.868 132.736  20.082  1.00  0.00     0.001 A 
HETATM    9  C1  LIG X 999      42.387 132.285  21.296  1.00  0.00     0.001 A 
HETATM   10  C11 LIG X 999      43.572 131.549  21.318  1.00  0.00     0.012 A 
HETATM   11  C9  LIG X 999      45.419 130.491  20.153  1.00  0.00     0.014 A 
HETATM   12  C8  LIG X 999      46.085 130.177  18.971  1.00  0.00     0.026 A 
HETATM   13  C6  LIG X 999      45.621 130.663  17.746  1.00  0.00     0.077 A 
HETATM   14  C7  LIG X 999      46.352 130.335  16.546  1.00  0.00     0.102 C 
HETATM   15  N4  LIG X 999      46.939 130.072  15.583  1.00  0.00    -0.191 NA
ENDBRANCH   1   4
TORSDOF 1
