REMARK VINA RESULT:      -6.8      2.209      3.676
REMARK  4 active torsions:
REMARK  status: ('A' for Active; 'I' for Inactive)
REMARK    1  A    between atoms: C3_3  and  O1_4 
REMARK    2  A    between atoms: O1_4  and  C4_5 
REMARK    3  A    between atoms: C4_5  and  O2_6 
REMARK    4  A    between atoms: C5_8  and  C6_9 
ROOT
HETATM    1  C1  LIG X 999      47.997 135.342  21.659  1.00  0.00     0.014 C 
HETATM    2  C2  LIG X 999      47.747 134.164  21.610  1.00  0.00    -0.091 C 
HETATM    3  C3  LIG X 999      47.442 132.734  21.548  1.00  0.00     0.270 C 
ENDROOT
BRANCH   3   4
HETATM    4  O1  LIG X 999      46.202 132.553  20.877  1.00  0.00    -0.319 OA
BRANCH   4   5
HETATM    5  C4  LIG X 999      45.174 131.725  21.350  1.00  0.00     0.179 C 
HETATM    6  C5  LIG X 999      44.367 131.092  20.491  1.00  0.00     0.075 C 
BRANCH   5   7
HETATM    7  O2  LIG X 999      44.948 131.562  22.718  1.00  0.00    -0.341 OA
HETATM    8  H4  LIG X 999      44.054 131.757  23.148  1.00  0.00     0.220 HD
ENDBRANCH   5   7
BRANCH   6   9
HETATM    9  C6  LIG X 999      44.492 131.169  19.018  1.00  0.00    -0.031 A 
HETATM   10  C7  LIG X 999      43.475 131.797  18.285  1.00  0.00     0.012 A 
HETATM   11  C8  LIG X 999      43.545 131.878  16.892  1.00  0.00     0.013 A 
HETATM   12  C9  LIG X 999      44.630 131.314  16.206  1.00  0.00    -0.026 A 
HETATM   13  C10 LIG X 999      44.711 131.390  14.807  1.00  0.00     0.012 A 
HETATM   14  C14 LIG X 999      45.650 130.654  16.932  1.00  0.00    -0.025 A 
HETATM   15  C11 LIG X 999      45.794 130.815  14.135  1.00  0.00     0.001 A 
HETATM   16  C12 LIG X 999      46.799 130.160  14.851  1.00  0.00     0.001 A 
HETATM   17  C13 LIG X 999      46.729 130.077  16.245  1.00  0.00     0.012 A 
HETATM   18  C15 LIG X 999      45.570 130.577  18.331  1.00  0.00     0.024 A 
ENDBRANCH   6   9
ENDBRANCH   4   5
ENDBRANCH   3   4
TORSDOF 4
