REMARK VINA RESULT:      -5.3      5.531      8.011
REMARK  4 active torsions:
REMARK  status: ('A' for Active; 'I' for Inactive)
REMARK    1  A    between atoms: O1_2  and  C1_3 
REMARK    2  A    between atoms: C1_3  and  O4_18 
REMARK       I    between atoms: N1_4  and  C2_5 
REMARK    3  A    between atoms: C2_5  and  C3_7 
REMARK    4  A    between atoms: O4_18  and  C13_19 
ROOT
HETATM    1  C3  LIG X 999      44.317 131.045  16.480  1.00  0.00     0.071 A 
HETATM    2  C4  LIG X 999      45.356 130.570  17.307  1.00  0.00     0.123 A 
HETATM    3  O3  LIG X 999      46.448 129.899  16.765  1.00  0.00    -0.191 OA
HETATM    4  C5  LIG X 999      45.293 130.753  18.692  1.00  0.00     0.053 A 
HETATM    5  C6  LIG X 999      44.189 131.390  19.274  1.00  0.00    -0.023 A 
HETATM    6  C7  LIG X 999      44.119 131.573  20.664  1.00  0.00     0.012 A 
HETATM    7  C8  LIG X 999      43.010 132.205  21.234  1.00  0.00     0.001 A 
HETATM    8  C9  LIG X 999      41.964 132.656  20.423  1.00  0.00     0.001 A 
HETATM    9  C10 LIG X 999      42.022 132.478  19.038  1.00  0.00     0.012 A 
HETATM   10  C11 LIG X 999      43.131 131.845  18.454  1.00  0.00    -0.025 A 
HETATM   11  C12 LIG X 999      43.200 131.664  17.064  1.00  0.00     0.032 A 
ENDROOT
BRANCH   1  12
HETATM   12  C2  LIG X 999      44.364 130.867  15.010  1.00  0.00     0.283 C 
HETATM   13  N1  LIG X 999      45.575 131.018  14.255  1.00  0.00    -0.162 NA
HETATM   14  C1  LIG X 999      46.524 131.873  14.503  1.00  0.00     0.289 C 
HETATM   15  O2  LIG X 999      43.311 130.538  14.401  1.00  0.00    -0.265 OA
BRANCH  14  16
HETATM   16  O1  LIG X 999      46.390 132.805  15.530  1.00  0.00    -0.325 OA
HETATM   17  H1  LIG X 999      45.588 132.781  16.147  1.00  0.00     0.221 HD
ENDBRANCH  14  16
BRANCH  14  18
HETATM   18  O4  LIG X 999      47.690 131.897  13.724  1.00  0.00    -0.294 OA
BRANCH  18  19
HETATM   19  C13 LIG X 999      48.245 130.777  13.024  1.00  0.00     0.224 C 
HETATM   20 CL1  LIG X 999      47.650 130.702  11.340  1.00  0.00    -0.095 Cl
HETATM   21  C14 LIG X 999      47.972 129.468  13.762  1.00  0.00     0.057 C 
ENDBRANCH  18  19
ENDBRANCH  14  18
ENDBRANCH   1  12
TORSDOF 4
