REMARK VINA RESULT:      -4.2      5.035      7.679
REMARK  4 active torsions:
REMARK  status: ('A' for Active; 'I' for Inactive)
REMARK    1  A    between atoms: C3_3  and  C4_4 
REMARK    2  A    between atoms: C5_7  and  N3_8 
REMARK    3  A    between atoms: C8_14  and  C9_15 
REMARK    4  A    between atoms: C10_16  and  C11_17 
ROOT
HETATM    1  N3  LIG X 999      49.662 122.617  19.935  1.00  0.00    -0.023 NA
HETATM    2  N4  LIG X 999      50.442 123.434  19.447  1.00  0.00    -0.158 NA
HETATM    3  N5  LIG X 999      51.222 124.250  18.959  1.00  0.00     0.068 N 
ENDROOT
BRANCH   1   4
HETATM    4  C5  LIG X 999      48.979 122.900  21.155  1.00  0.00     0.326 A 
HETATM    5  N2  LIG X 999      49.327 122.375  22.342  1.00  0.00    -0.099 NA
HETATM    6  N1  LIG X 999      48.469 122.869  23.220  1.00  0.00    -0.124 NA
HETATM    7  C4  LIG X 999      47.629 123.670  22.531  1.00  0.00     0.184 A 
HETATM    8  O1  LIG X 999      47.943 123.696  21.256  1.00  0.00    -0.255 OA
BRANCH   7   9
HETATM    9  C3  LIG X 999      46.498 124.458  23.163  1.00  0.00     0.054 C 
HETATM   10  C2  LIG X 999      46.063 123.717  24.418  1.00  0.00    -0.008 C 
HETATM   11  C1  LIG X 999      45.186 122.707  24.341  1.00  0.00    -0.003 C 
HETATM   12  C15 LIG X 999      44.533 122.375  23.060  1.00  0.00    -0.004 C 
HETATM   13  C14 LIG X 999      44.618 123.212  22.018  1.00  0.00    -0.021 C 
HETATM   14  C13 LIG X 999      45.284 124.563  22.174  1.00  0.00     0.030 C 
HETATM   15  C12 LIG X 999      44.224 125.580  22.654  1.00  0.00     0.027 C 
HETATM   16  C8  LIG X 999      44.847 126.953  22.937  1.00  0.00     0.066 C 
HETATM   17  C7  LIG X 999      45.954 126.825  23.992  1.00  0.00     0.019 C 
HETATM   18  C6  LIG X 999      47.046 125.865  23.511  1.00  0.00     0.024 C 
BRANCH  16  19
HETATM   19  C9  LIG X 999      43.813 127.888  23.405  1.00  0.00    -0.090 C 
HETATM   20  C10 LIG X 999      42.966 128.655  23.789  1.00  0.00     0.005 C 
BRANCH  20  21
HETATM   21  C11 LIG X 999      41.957 129.568  24.245  1.00  0.00     0.258 C 
HETATM   22  O2  LIG X 999      40.839 129.132  24.624  1.00  0.00    -0.637 OA
HETATM   23  O3  LIG X 999      42.215 130.932  24.269  1.00  0.00    -0.637 OA
ENDBRANCH  20  21
ENDBRANCH  16  19
ENDBRANCH   7   9
ENDBRANCH   1   4
TORSDOF 4
