REMARK VINA RESULT:      -3.9      2.894      5.982
REMARK  3 active torsions:
REMARK  status: ('A' for Active; 'I' for Inactive)
REMARK    1  A    between atoms: C3_3  and  S1_4 
REMARK    2  A    between atoms: S1_4  and  C4_7 
REMARK    3  A    between atoms: C6_9  and  N1_10 
ROOT
HETATM    1  C1  LIG X 999      47.061 124.518  21.661  1.00  0.00     0.013 C 
HETATM    2  C2  LIG X 999      46.151 125.145  22.144  1.00  0.00    -0.102 C 
HETATM    3  C3  LIG X 999      45.046 125.905  22.734  1.00  0.00     0.238 C 
ENDROOT
BRANCH   3   4
HETATM    4  S1  LIG X 999      43.661 124.827  23.078  1.00  0.00     0.186 S 
HETATM    5  O1  LIG X 999      44.090 123.853  24.140  1.00  0.00    -0.222 OA
HETATM    6  O2  LIG X 999      43.339 124.077  21.816  1.00  0.00    -0.222 OA
BRANCH   4   7
HETATM    7  C4  LIG X 999      42.198 125.682  23.624  1.00  0.00     0.073 A 
HETATM    8  C5  LIG X 999      41.042 124.938  23.918  1.00  0.00     0.058 A 
HETATM    9  C6  LIG X 999      39.856 125.566  24.331  1.00  0.00     0.095 A 
HETATM   10  C7  LIG X 999      39.820 126.953  24.463  1.00  0.00     0.046 A 
HETATM   11  C8  LIG X 999      40.956 127.725  24.194  1.00  0.00    -0.021 A 
HETATM   12  C9  LIG X 999      40.900 129.125  24.347  1.00  0.00     0.022 A 
HETATM   13  C13 LIG X 999      42.168 127.094  23.775  1.00  0.00    -0.004 A 
HETATM   14  C10 LIG X 999      42.042 129.875  24.080  1.00  0.00    -0.024 A 
HETATM   15  C11 LIG X 999      43.202 129.286  23.689  1.00  0.00    -0.024 A 
HETATM   16  C17 LIG X 999      42.214 131.339  24.200  1.00  0.00     0.276 C 
HETATM   17  C12 LIG X 999      43.305 127.904  23.532  1.00  0.00     0.023 A 
HETATM   18  C14 LIG X 999      44.264 130.300  23.510  1.00  0.00     0.276 C 
HETATM   19  N4  LIG X 999      43.589 131.626  23.678  1.00  0.00    -0.067 N 
HETATM   20  C15 LIG X 999      43.499 132.319  22.370  1.00  0.00     0.272 C 
HETATM   21  C16 LIG X 999      44.340 132.480  24.624  1.00  0.00     0.272 C 
BRANCH   9  22
HETATM   22  N1  LIG X 999      38.668 124.817  24.625  1.00  0.00    -0.073 NA
HETATM   23  N2  LIG X 999      38.583 123.606  24.417  1.00  0.00    -0.162 NA
HETATM   24  N3  LIG X 999      38.497 122.396  24.210  1.00  0.00     0.068 N 
ENDBRANCH   9  22
ENDBRANCH   4   7
ENDBRANCH   3   4
TORSDOF 3
