REMARK VINA RESULT:      -8.0      1.984      6.154
REMARK  4 active torsions:
REMARK  status: ('A' for Active; 'I' for Inactive)
REMARK    1  A    between atoms: C3_3  and  O1_4 
REMARK    2  A    between atoms: O1_4  and  C4_5 
REMARK    3  A    between atoms: C13_14  and  C14_15 
REMARK    4  A    between atoms: C14_15  and  O2_16 
ROOT
HETATM    1  C1  LIG X 999      42.791 131.741  22.635  1.00  0.00     0.014 C 
HETATM    2  C2  LIG X 999      42.740 131.819  21.433  1.00  0.00    -0.091 C 
HETATM    3  C3  LIG X 999      42.679 131.914  19.975  1.00  0.00     0.268 C 
ENDROOT
BRANCH   3   4
HETATM    4  O1  LIG X 999      43.952 132.317  19.479  1.00  0.00    -0.339 OA
BRANCH   4   5
HETATM    5  C4  LIG X 999      44.661 131.655  18.462  1.00  0.00     0.079 A 
HETATM    6  C5  LIG X 999      44.469 131.967  17.102  1.00  0.00     0.049 A 
HETATM    7  C6  LIG X 999      45.200 131.302  16.108  1.00  0.00    -0.023 A 
HETATM    8  C7  LIG X 999      45.011 131.613  14.751  1.00  0.00     0.012 A 
HETATM    9  C11 LIG X 999      46.142 130.314  16.473  1.00  0.00    -0.025 A 
HETATM   10  C8  LIG X 999      45.749 130.949  13.769  1.00  0.00     0.001 A 
HETATM   11  C9  LIG X 999      46.680 129.972  14.130  1.00  0.00     0.001 A 
HETATM   12  C10 LIG X 999      46.879 129.653  15.476  1.00  0.00     0.012 A 
HETATM   13  C12 LIG X 999      46.332 130.002  17.825  1.00  0.00     0.024 A 
HETATM   14  C13 LIG X 999      45.589 130.656  18.821  1.00  0.00    -0.001 A 
BRANCH  14  15
HETATM   15  C14 LIG X 999      45.831 130.324  20.269  1.00  0.00     0.205 C 
BRANCH  15  16
HETATM   16  O2  LIG X 999      46.187 131.489  20.958  1.00  0.00    -0.396 OA
HETATM   17  H12 LIG X 999      45.680 132.228  20.531  1.00  0.00     0.209 HD
ENDBRANCH  15  16
ENDBRANCH  14  15
ENDBRANCH   4   5
ENDBRANCH   3   4
TORSDOF 4
