REMARK VINA RESULT:      -7.4      4.928      6.854
REMARK  7 active torsions:
REMARK  status: ('A' for Active; 'I' for Inactive)
REMARK    1  A    between atoms: N1_2  and  C2_3 
REMARK    2  A    between atoms: C2_3  and  C4_5 
REMARK    3  A    between atoms: C4_5  and  C5_6 
REMARK    4  A    between atoms: C5_6  and  C6_7 
REMARK    5  A    between atoms: C6_7  and  C7_8 
REMARK    6  A    between atoms: C7_8  and  N2_9 
REMARK    7  A    between atoms: N2_9  and  C8_10 
ROOT
HETATM    1  C8  LIG X 999      42.419 128.874  23.502  1.00  0.00     0.101 C 
HETATM    2  C9  LIG X 999      43.321 127.820  23.681  1.00  0.00     0.056 C 
HETATM    3  C10 LIG X 999      42.858 126.510  23.872  1.00  0.00    -0.045 C 
HETATM    4  C11 LIG X 999      43.880 125.508  24.352  1.00  0.00     0.049 C 
HETATM    5  C12 LIG X 999      41.461 126.237  23.748  1.00  0.00     0.008 C 
HETATM    6  C13 LIG X 999      40.588 127.361  23.716  1.00  0.00     0.045 C 
HETATM    7  C14 LIG X 999      39.205 127.188  23.846  1.00  0.00     0.031 C 
HETATM    8  C15 LIG X 999      38.658 125.920  23.987  1.00  0.00     0.014 C 
HETATM    9  C16 LIG X 999      39.471 124.788  23.886  1.00  0.00    -0.025 C 
HETATM   10  C17 LIG X 999      38.878 123.514  23.919  1.00  0.00     0.012 C 
HETATM   11  C18 LIG X 999      39.646 122.376  23.687  1.00  0.00     0.001 C 
HETATM   12  C19 LIG X 999      40.997 122.501  23.382  1.00  0.00     0.001 C 
HETATM   13  C20 LIG X 999      41.602 123.761  23.361  1.00  0.00     0.013 C 
HETATM   14  C21 LIG X 999      40.875 124.927  23.699  1.00  0.00    -0.013 C 
HETATM   15  N3  LIG X 999      41.085 128.624  23.577  1.00  0.00    -0.342 N 
HETATM   16  H28 LIG X 999      40.424 129.432  23.515  1.00  0.00     0.167 HD
ENDROOT
BRANCH   1  17
HETATM   17  N2  LIG X 999      42.870 130.230  23.314  1.00  0.00    -0.376 N 
HETATM   18  H17 LIG X 999      42.941 130.847  24.155  1.00  0.00     0.161 HD
BRANCH  17  19
HETATM   19  C7  LIG X 999      43.177 130.838  22.016  1.00  0.00     0.121 C 
BRANCH  19  20
HETATM   20  C6  LIG X 999      44.649 130.632  21.631  1.00  0.00     0.020 C 
BRANCH  20  21
HETATM   21  C5  LIG X 999      45.109 131.634  20.564  1.00  0.00     0.004 C 
BRANCH  21  22
HETATM   22  C4  LIG X 999      44.076 131.746  19.433  1.00  0.00     0.035 C 
BRANCH  22  23
HETATM   23  C2  LIG X 999      44.741 131.734  18.045  1.00  0.00     0.216 C 
HETATM   24  C3  LIG X 999      45.650 130.498  17.911  1.00  0.00     0.042 C 
BRANCH  23  25
HETATM   25  N1  LIG X 999      43.697 131.754  17.002  1.00  0.00     0.083 N 
HETATM   26  C1  LIG X 999      44.224 131.391  15.684  1.00  0.00     0.307 C 
HETATM   27  H4  LIG X 999      42.923 131.093  17.248  1.00  0.00     0.315 HD
ENDBRANCH  23  25
ENDBRANCH  22  23
ENDBRANCH  21  22
ENDBRANCH  20  21
ENDBRANCH  19  20
ENDBRANCH  17  19
ENDBRANCH   1  17
TORSDOF 7
