REMARK VINA RESULT:      -4.6      4.433      6.582
REMARK  3 active torsions:
REMARK  status: ('A' for Active; 'I' for Inactive)
REMARK    1  A    between atoms: C3_3  and  S1_4 
REMARK    2  A    between atoms: S1_4  and  C4_7 
REMARK    3  A    between atoms: C6_9  and  N1_10 
ROOT
HETATM    1  C1  LIG X 999      44.297 128.421  23.136  1.00  0.00     0.013 C 
HETATM    2  C2  LIG X 999      44.564 129.504  22.678  1.00  0.00    -0.102 C 
HETATM    3  C3  LIG X 999      44.886 130.818  22.116  1.00  0.00     0.238 C 
ENDROOT
BRANCH   3   4
HETATM    4  S1  LIG X 999      45.731 130.623  20.557  1.00  0.00     0.186 S 
HETATM    5  O1  LIG X 999      46.125 129.179  20.409  1.00  0.00    -0.222 OA
HETATM    6  O2  LIG X 999      46.987 131.450  20.544  1.00  0.00    -0.222 OA
BRANCH   4   7
HETATM    7  C4  LIG X 999      44.670 131.105  19.216  1.00  0.00     0.073 A 
HETATM    8  C5  LIG X 999      43.456 131.735  19.533  1.00  0.00     0.058 A 
HETATM    9  C6  LIG X 999      42.571 132.152  18.537  1.00  0.00     0.095 A 
HETATM   10  C7  LIG X 999      42.898 131.943  17.190  1.00  0.00     0.046 A 
HETATM   11  C8  LIG X 999      44.106 131.325  16.841  1.00  0.00    -0.022 A 
HETATM   12  C9  LIG X 999      44.421 131.131  15.485  1.00  0.00     0.012 A 
HETATM   13  C13 LIG X 999      45.011 130.900  17.851  1.00  0.00    -0.004 A 
HETATM   14  C10 LIG X 999      45.623 130.525  15.122  1.00  0.00     0.001 A 
HETATM   15  C11 LIG X 999      46.520 130.108  16.103  1.00  0.00     0.001 A 
HETATM   16  C12 LIG X 999      46.222 130.292  17.455  1.00  0.00     0.014 A 
BRANCH   9  17
HETATM   17  N1  LIG X 999      41.345 132.788  18.925  1.00  0.00    -0.073 NA
HETATM   18  N2  LIG X 999      41.138 133.176  20.076  1.00  0.00    -0.162 NA
HETATM   19  N3  LIG X 999      40.929 133.564  21.224  1.00  0.00     0.068 N 
ENDBRANCH   9  17
ENDBRANCH   4   7
ENDBRANCH   3   4
TORSDOF 3
