REMARK VINA RESULT:      -8.3      0.000      0.000
REMARK  2 active torsions:
REMARK  status: ('A' for Active; 'I' for Inactive)
REMARK    1  A    between atoms: N1_1  and  C1_2 
REMARK    2  A    between atoms: C2_5  and  C3_6 
ROOT
HETATM    1  C3  LIG X 999      44.325 131.561  17.391  1.00  0.00     0.028 A 
HETATM    2  C4  LIG X 999      43.044 131.945  16.956  1.00  0.00     0.017 A 
HETATM    3  C5  LIG X 999      42.011 132.157  17.868  1.00  0.00     0.002 A 
HETATM    4  C6  LIG X 999      42.235 131.993  19.233  1.00  0.00     0.012 A 
HETATM    5  C7  LIG X 999      43.505 131.631  19.702  1.00  0.00    -0.025 A 
HETATM    6  C8  LIG X 999      43.722 131.488  21.082  1.00  0.00     0.012 A 
HETATM    7  C9  LIG X 999      44.990 131.160  21.563  1.00  0.00     0.001 A 
HETATM    8  C10 LIG X 999      46.051 130.985  20.677  1.00  0.00     0.001 A 
HETATM    9  C11 LIG X 999      45.852 131.120  19.302  1.00  0.00     0.013 A 
HETATM   10  C12 LIG X 999      44.572 131.423  18.785  1.00  0.00    -0.011 A 
ENDROOT
BRANCH   1  11
HETATM   11  C2  LIG X 999      45.351 131.279  16.358  1.00  0.00     0.178 A 
HETATM   12  N3  LIG X 999      45.871 132.197  15.521  1.00  0.00    -0.252 N 
HETATM   13  N2  LIG X 999      46.728 131.581  14.725  1.00  0.00    -0.128 NA
HETATM   14  H3  LIG X 999      45.664 133.220  15.490  1.00  0.00     0.191 HD
HETATM   15  C1  LIG X 999      46.691 130.290  15.110  1.00  0.00     0.263 A 
HETATM   16  O1  LIG X 999      45.854 130.092  16.101  1.00  0.00    -0.258 OA
BRANCH  15  17
HETATM   17  N1  LIG X 999      47.471 129.261  14.508  1.00  0.00    -0.362 N 
HETATM   18  H1  LIG X 999      48.487 129.409  14.324  1.00  0.00     0.159 HD
HETATM   19  H2  LIG X 999      47.028 128.352  14.250  1.00  0.00     0.159 HD
ENDBRANCH  15  17
ENDBRANCH   1  11
TORSDOF 2
