REMARK VINA RESULT:      -4.7      6.328      8.258
REMARK  1 active torsions:
REMARK  status: ('A' for Active; 'I' for Inactive)
REMARK    1  A    between atoms: C12_14  and  N2_15 
ROOT
HETATM    1  C1  LIG X 999      43.627 131.389  22.875  1.00  0.00     0.001 A 
HETATM    2  C2  LIG X 999      44.631 130.628  22.283  1.00  0.00     0.001 A 
HETATM    3  C3  LIG X 999      44.634 129.236  22.406  1.00  0.00     0.013 A 
HETATM    4  C4  LIG X 999      43.619 128.572  23.132  1.00  0.00    -0.012 A 
HETATM    5  C5  LIG X 999      42.594 129.369  23.734  1.00  0.00    -0.025 A 
HETATM    6  C6  LIG X 999      42.613 130.766  23.596  1.00  0.00     0.012 A 
HETATM    7  C7  LIG X 999      41.555 128.765  24.469  1.00  0.00     0.013 A 
HETATM    8  C8  LIG X 999      41.508 127.382  24.625  1.00  0.00     0.021 A 
HETATM    9  C9  LIG X 999      42.503 126.611  24.041  1.00  0.00     0.020 A 
HETATM   10  S1  LIG X 999      42.619 124.943  24.113  1.00  0.00    -0.076 SA
HETATM   11  C10 LIG X 999      44.024 124.848  23.200  1.00  0.00     0.118 A 
HETATM   12  C11 LIG X 999      44.666 123.599  22.890  1.00  0.00     0.109 C 
HETATM   13  N1  LIG X 999      45.177 122.590  22.645  1.00  0.00    -0.191 NA
HETATM   14  C12 LIG X 999      44.429 126.140  22.817  1.00  0.00     0.133 A 
HETATM   15  C13 LIG X 999      43.556 127.156  23.300  1.00  0.00     0.026 A 
ENDROOT
BRANCH  14  16
HETATM   16  N2  LIG X 999      45.597 126.413  22.027  1.00  0.00    -0.070 NA
HETATM   17  N3  LIG X 999      46.716 125.969  22.289  1.00  0.00    -0.162 NA
HETATM   18  N4  LIG X 999      47.837 125.531  22.540  1.00  0.00     0.068 N 
ENDBRANCH  14  16
TORSDOF 1
