REMARK VINA RESULT:      -8.1      3.243      6.459
REMARK  3 active torsions:
REMARK  status: ('A' for Active; 'I' for Inactive)
REMARK    1  A    between atoms: C2_2  and  C3_3 
REMARK       I    between atoms: C3_3  and  N1_5 
REMARK    2  A    between atoms: N1_5  and  C4_6 
REMARK    3  A    between atoms: C4_6  and  C6_8 
ROOT
HETATM    1  C6  LIG X 999      44.404 131.125  16.316  1.00  0.00    -0.035 A 
HETATM    2  C7  LIG X 999      45.595 130.788  16.983  1.00  0.00     0.010 A 
HETATM    3  C8  LIG X 999      45.695 130.916  18.369  1.00  0.00     0.013 A 
HETATM    4  C9  LIG X 999      44.606 131.390  19.114  1.00  0.00    -0.026 A 
HETATM    5  C10 LIG X 999      44.696 131.521  20.509  1.00  0.00     0.012 A 
HETATM    6  C11 LIG X 999      43.604 131.998  21.240  1.00  0.00     0.001 A 
HETATM    7  C12 LIG X 999      42.419 132.346  20.588  1.00  0.00     0.001 A 
HETATM    8  C13 LIG X 999      42.316 132.219  19.200  1.00  0.00     0.012 A 
HETATM    9  C14 LIG X 999      43.405 131.742  18.453  1.00  0.00    -0.025 A 
HETATM   10  C15 LIG X 999      43.314 131.611  17.059  1.00  0.00     0.021 A 
ENDROOT
BRANCH   1  11
HETATM   11  C4  LIG X 999      44.301 131.001  14.810  1.00  0.00     0.113 C 
HETATM   12  C5  LIG X 999      43.188 131.910  14.279  1.00  0.00     0.037 C 
BRANCH  11  13
HETATM   13  N1  LIG X 999      45.584 131.333  14.180  1.00  0.00    -0.353 N 
HETATM   14  C3  LIG X 999      46.611 130.351  13.984  1.00  0.00     0.217 C 
HETATM   15  O1  LIG X 999      46.417 129.150  14.318  1.00  0.00    -0.274 OA
HETATM   16  H6  LIG X 999      45.763 132.312  13.859  1.00  0.00     0.163 HD
BRANCH  14  17
HETATM   17  C2  LIG X 999      47.909 130.739  13.342  1.00  0.00     0.098 C 
HETATM   18  C1  LIG X 999      48.830 129.531  13.220  1.00  0.00     0.014 C 
ENDBRANCH  14  17
ENDBRANCH  11  13
ENDBRANCH   1  11
TORSDOF 3
