REMARK VINA RESULT:      -4.6      2.243      6.715
REMARK  5 active torsions:
REMARK  status: ('A' for Active; 'I' for Inactive)
REMARK    1  A    between atoms: O1_2  and  C1_3 
REMARK    2  A    between atoms: C1_3  and  C15_22 
REMARK    3  A    between atoms: N1_4  and  C2_5 
REMARK    4  A    between atoms: C3_6  and  O2_7 
REMARK    5  A    between atoms: O2_7  and  C4_8 
REMARK       I    between atoms: C4_8  and  N2_10 
ROOT
HETATM    1  C2  LIG X 999      44.143 125.538  24.315  1.00  0.00     0.104 A 
HETATM    2  C3  LIG X 999      45.349 124.812  24.395  1.00  0.00     0.110 A 
HETATM    3  C7  LIG X 999      45.316 123.409  24.455  1.00  0.00     0.041 A 
HETATM    4  C8  LIG X 999      44.099 122.728  24.435  1.00  0.00     0.015 A 
HETATM    5  C9  LIG X 999      42.894 123.434  24.337  1.00  0.00    -0.024 A 
HETATM    6  C10 LIG X 999      41.671 122.746  24.301  1.00  0.00     0.012 A 
HETATM    7  C11 LIG X 999      40.470 123.451  24.194  1.00  0.00     0.001 A 
HETATM    8  C12 LIG X 999      40.480 124.844  24.121  1.00  0.00     0.001 A 
HETATM    9  C13 LIG X 999      41.688 125.544  24.157  1.00  0.00     0.014 A 
HETATM   10  C14 LIG X 999      42.910 124.851  24.264  1.00  0.00     0.006 A 
ENDROOT
BRANCH   1  11
HETATM   11  N1  LIG X 999      44.174 126.971  24.205  1.00  0.00    -0.221 NA
HETATM   12  C1  LIG X 999      44.471 127.645  23.130  1.00  0.00     0.176 C 
BRANCH  12  13
HETATM   13  O1  LIG X 999      44.916 127.016  21.963  1.00  0.00    -0.344 OA
HETATM   14  H1  LIG X 999      45.115 126.026  21.911  1.00  0.00     0.219 HD
ENDBRANCH  12  13
BRANCH  12  15
HETATM   15  C15 LIG X 999      44.359 129.109  23.145  1.00  0.00     0.053 A 
HETATM   16  C16 LIG X 999      44.563 129.984  22.092  1.00  0.00     0.156 A 
HETATM   17  N3  LIG X 999      44.357 131.245  22.519  1.00  0.00    -0.185 NA
HETATM   18  N4  LIG X 999      44.046 131.185  23.806  1.00  0.00    -0.285 N 
HETATM   19  C17 LIG X 999      43.691 132.345  24.611  1.00  0.00     0.179 C 
HETATM   20  C18 LIG X 999      44.025 129.904  24.220  1.00  0.00     0.129 A 
ENDBRANCH  12  15
ENDBRANCH   1  11
BRANCH   2  21
HETATM   21  O2  LIG X 999      46.562 125.516  24.359  1.00  0.00    -0.254 OA
BRANCH  21  22
HETATM   22  C4  LIG X 999      47.542 125.399  23.362  1.00  0.00     0.461 C 
HETATM   23  O3  LIG X 999      47.228 125.468  22.142  1.00  0.00    -0.230 OA
HETATM   24  N2  LIG X 999      48.904 125.113  23.732  1.00  0.00     0.009 N 
HETATM   25  H2  LIG X 999      49.503 125.086  22.873  1.00  0.00     0.292 HD
HETATM   26  C5  LIG X 999      48.977 123.797  24.389  1.00  0.00     0.282 C 
HETATM   27  C6  LIG X 999      49.416 126.168  24.619  1.00  0.00     0.282 C 
ENDBRANCH  21  22
ENDBRANCH   2  21
TORSDOF 5
