REMARK VINA RESULT:      -7.7      0.000      0.000
REMARK  1 active torsions:
REMARK  status: ('A' for Active; 'I' for Inactive)
REMARK    1  A    between atoms: C8_8  and  N1_9 
ROOT
HETATM    1  N1  LIG X 999      46.628 129.926  16.521  1.00  0.00    -0.072 NA
HETATM    2  N2  LIG X 999      46.895 129.836  15.323  1.00  0.00    -0.162 NA
HETATM    3  N3  LIG X 999      47.169 129.747  14.127  1.00  0.00     0.068 N 
ENDROOT
BRANCH   1   4
HETATM    4  C8  LIG X 999      45.464 130.610  17.009  1.00  0.00     0.104 A 
HETATM    5  C7  LIG X 999      44.513 131.057  16.051  1.00  0.00     0.038 A 
HETATM    6  C6  LIG X 999      43.315 131.695  16.443  1.00  0.00     0.035 A 
HETATM    7  C5  LIG X 999      43.089 131.884  17.804  1.00  0.00     0.073 A 
HETATM    8  C4  LIG X 999      44.020 131.476  18.713  1.00  0.00     0.021 A 
HETATM    9  N4  LIG X 999      41.977 132.532  18.433  1.00  0.00    -0.209 NA
HETATM   10  C3  LIG X 999      43.642 131.808  19.974  1.00  0.00     0.047 A 
HETATM   11  C9  LIG X 999      45.223 130.860  18.392  1.00  0.00     0.009 A 
HETATM   12  C2  LIG X 999      44.473 131.548  21.061  1.00  0.00     0.018 A 
HETATM   13  C11 LIG X 999      42.352 132.471  19.818  1.00  0.00     0.278 A 
HETATM   14  C1  LIG X 999      45.718 130.934  20.799  1.00  0.00     0.002 A 
HETATM   15  C10 LIG X 999      46.100 130.599  19.473  1.00  0.00     0.015 A 
HETATM   16  O1  LIG X 999      41.652 132.941  20.754  1.00  0.00    -0.265 OA
ENDBRANCH   1   4
TORSDOF 1
