REMARK VINA RESULT:      -7.8      1.393      1.813
REMARK  4 active torsions:
REMARK  status: ('A' for Active; 'I' for Inactive)
REMARK    1  A    between atoms: C3_3  and  O1_4 
REMARK    2  A    between atoms: O1_4  and  C4_5 
REMARK    3  A    between atoms: C4_5  and  O2_6 
REMARK    4  A    between atoms: C5_8  and  C6_9 
ROOT
HETATM    1  C1  LIG X 999      48.399 129.227  13.614  1.00  0.00     0.014 C 
HETATM    2  C2  LIG X 999      47.738 130.229  13.713  1.00  0.00    -0.091 C 
HETATM    3  C3  LIG X 999      46.934 131.446  13.833  1.00  0.00     0.270 C 
ENDROOT
BRANCH   3   4
HETATM    4  O1  LIG X 999      45.661 131.114  14.380  1.00  0.00    -0.319 OA
BRANCH   4   5
HETATM    5  C4  LIG X 999      45.151 131.608  15.593  1.00  0.00     0.179 C 
HETATM    6  C5  LIG X 999      44.177 130.976  16.272  1.00  0.00     0.075 C 
BRANCH   5   7
HETATM    7  O2  LIG X 999      45.701 132.780  16.103  1.00  0.00    -0.341 OA
HETATM    8  H4  LIG X 999      45.752 132.935  17.103  1.00  0.00     0.220 HD
ENDBRANCH   5   7
BRANCH   6   9
HETATM    9  C6  LIG X 999      43.617 131.488  17.547  1.00  0.00    -0.021 A 
HETATM   10  C7  LIG X 999      42.364 132.126  17.538  1.00  0.00     0.012 A 
HETATM   11  C8  LIG X 999      41.781 132.575  18.723  1.00  0.00     0.002 A 
HETATM   12  C9  LIG X 999      42.431 132.388  19.940  1.00  0.00     0.012 A 
HETATM   13  C10 LIG X 999      43.676 131.747  19.985  1.00  0.00    -0.025 A 
HETATM   14  C11 LIG X 999      44.324 131.560  21.217  1.00  0.00     0.012 A 
HETATM   15  C15 LIG X 999      44.284 131.288  18.785  1.00  0.00    -0.015 A 
HETATM   16  C12 LIG X 999      45.569 130.932  21.269  1.00  0.00     0.001 A 
HETATM   17  C13 LIG X 999      46.179 130.488  20.096  1.00  0.00     0.001 A 
HETATM   18  C14 LIG X 999      45.548 130.666  18.862  1.00  0.00     0.013 A 
ENDBRANCH   6   9
ENDBRANCH   4   5
ENDBRANCH   3   4
TORSDOF 4
