REMARK VINA RESULT:      -5.1      6.677      8.461
REMARK  1 active torsions:
REMARK  status: ('A' for Active; 'I' for Inactive)
REMARK    1  A    between atoms: C10_11  and  N2_12 
ROOT
HETATM    1  N2  LIG X 999      46.845 125.823  22.157  1.00  0.00    -0.052 NA
HETATM    2  N3  LIG X 999      47.338 124.784  21.716  1.00  0.00    -0.160 NA
HETATM    3  N4  LIG X 999      47.832 123.747  21.275  1.00  0.00     0.068 N 
ENDROOT
BRANCH   1   4
HETATM    4  C10 LIG X 999      45.475 125.882  22.560  1.00  0.00     0.186 C 
HETATM    5  N1  LIG X 999      44.669 124.801  22.425  1.00  0.00    -0.226 NA
HETATM    6  C9  LIG X 999      43.357 124.824  22.778  1.00  0.00     0.071 C 
HETATM    7  C8  LIG X 999      42.620 123.646  22.666  1.00  0.00     0.033 C 
HETATM    8  C14 LIG X 999      42.759 126.017  23.272  1.00  0.00     0.010 C 
HETATM    9  C7  LIG X 999      41.279 123.615  23.022  1.00  0.00     0.014 C 
HETATM   10  C5  LIG X 999      40.621 124.791  23.393  1.00  0.00    -0.025 C 
HETATM   11  C4  LIG X 999      41.335 126.024  23.458  1.00  0.00    -0.013 C 
HETATM   12  C6  LIG X 999      39.241 124.753  23.645  1.00  0.00     0.012 C 
HETATM   13  C3  LIG X 999      40.571 127.207  23.601  1.00  0.00     0.013 C 
HETATM   14  C2  LIG X 999      39.195 127.155  23.836  1.00  0.00     0.001 C 
HETATM   15  C1  LIG X 999      38.536 125.929  23.886  1.00  0.00     0.001 C 
HETATM   16  C12 LIG X 999      43.644 127.102  23.579  1.00  0.00    -0.045 C 
HETATM   17  C11 LIG X 999      44.981 127.038  23.152  1.00  0.00     0.063 C 
HETATM   18  C13 LIG X 999      43.287 128.267  24.471  1.00  0.00     0.049 C 
ENDBRANCH   1   4
TORSDOF 1
