REMARK VINA RESULT:      -7.2      1.119      2.080
REMARK  5 active torsions:
REMARK  status: ('A' for Active; 'I' for Inactive)
REMARK    1  A    between atoms: C6_6  and  C7_7 
REMARK    2  A    between atoms: C7_7  and  N3_15 
REMARK    3  A    between atoms: N1_8  and  C8_9 
REMARK    4  A    between atoms: C8_9  and  C9_10 
REMARK    5  A    between atoms: C9_10  and  N2_11 
ROOT
HETATM    1  N3  LIG X 999      44.861 132.122  15.422  1.00  0.00    -0.052 NA
HETATM    2  N4  LIG X 999      44.008 131.729  14.625  1.00  0.00    -0.160 NA
HETATM    3  N5  LIG X 999      43.159 131.337  13.826  1.00  0.00     0.068 N 
ENDROOT
BRANCH   1   4
HETATM    4  C7  LIG X 999      45.208 131.381  16.604  1.00  0.00     0.191 C 
HETATM    5  N1  LIG X 999      46.212 130.553  16.579  1.00  0.00    -0.267 NA
BRANCH   4   6
HETATM    6  C6  LIG X 999      44.444 131.531  17.865  1.00  0.00     0.015 A 
HETATM    7  C5  LIG X 999      45.086 131.341  19.101  1.00  0.00     0.027 A 
HETATM    8  C4  LIG X 999      44.376 131.493  20.302  1.00  0.00    -0.025 A 
HETATM    9  C3  LIG X 999      45.011 131.294  21.538  1.00  0.00     0.012 A 
HETATM   10  C12 LIG X 999      43.006 131.850  20.268  1.00  0.00    -0.026 A 
HETATM   11  C2  LIG X 999      44.294 131.447  22.729  1.00  0.00     0.001 A 
HETATM   12  C1  LIG X 999      42.942 131.800  22.695  1.00  0.00     0.001 A 
HETATM   13  C13 LIG X 999      42.298 132.002  21.470  1.00  0.00     0.012 A 
HETATM   14  C11 LIG X 999      42.374 132.054  19.035  1.00  0.00     0.013 A 
HETATM   15  C10 LIG X 999      43.088 131.900  17.844  1.00  0.00     0.016 A 
ENDBRANCH   4   6
BRANCH   5  16
HETATM   16  C8  LIG X 999      47.043 130.275  15.408  1.00  0.00     0.178 C 
BRANCH  16  17
HETATM   17  C9  LIG X 999      46.462 129.125  14.573  1.00  0.00     0.251 C 
BRANCH  17  18
HETATM   18  N2  LIG X 999      45.445 128.381  15.316  1.00  0.00    -0.078 N 
HETATM   19  H9  LIG X 999      45.837 127.453  15.594  1.00  0.00     0.274 HD
HETATM   20  H10 LIG X 999      44.602 128.222  14.718  1.00  0.00     0.274 HD
HETATM   21  H11 LIG X 999      45.172 128.904  16.179  1.00  0.00     0.274 HD
ENDBRANCH  17  18
ENDBRANCH  16  17
ENDBRANCH   5  16
ENDBRANCH   1   4
TORSDOF 5
