REMARK VINA RESULT:      -6.5      4.474      6.677
REMARK  3 active torsions:
REMARK  status: ('A' for Active; 'I' for Inactive)
REMARK    1  A    between atoms: C6_6  and  C7_7 
REMARK    2  A    between atoms: C7_7  and  N1_8 
REMARK    3  A    between atoms: C8_12  and  N4_13 
ROOT
HETATM    1  N1  LIG X 999      45.401 131.696  21.408  1.00  0.00    -0.065 NA
HETATM    2  N2  LIG X 999      46.238 132.600  21.379  1.00  0.00    -0.164 NA
HETATM    3  N3  LIG X 999      47.074 133.502  21.351  1.00  0.00     0.068 N 
ENDROOT
BRANCH   1   4
HETATM    4  C7  LIG X 999      44.371 131.568  20.379  1.00  0.00     0.267 A 
HETATM    5  O1  LIG X 999      43.431 132.619  20.399  1.00  0.00    -0.314 OA
HETATM    6  C8  LIG X 999      42.967 131.349  20.808  1.00  0.00     0.349 A 
BRANCH   4   7
HETATM    7  C6  LIG X 999      44.798 131.180  18.996  1.00  0.00     0.007 A 
HETATM    8  C5  LIG X 999      44.098 131.662  17.881  1.00  0.00     0.024 A 
HETATM    9  C4  LIG X 999      44.510 131.319  16.584  1.00  0.00    -0.025 A 
HETATM   10  C3  LIG X 999      43.811 131.789  15.461  1.00  0.00     0.012 A 
HETATM   11  C11 LIG X 999      45.646 130.491  16.405  1.00  0.00    -0.026 A 
HETATM   12  C2  LIG X 999      44.232 131.441  14.175  1.00  0.00     0.001 A 
HETATM   13  C1  LIG X 999      45.353 130.625  13.999  1.00  0.00     0.001 A 
HETATM   14  C12 LIG X 999      46.059 130.150  15.108  1.00  0.00     0.012 A 
HETATM   15  C10 LIG X 999      46.349 130.026  17.526  1.00  0.00     0.013 A 
HETATM   16  C9  LIG X 999      45.929 130.373  18.813  1.00  0.00     0.013 A 
ENDBRANCH   4   7
BRANCH   6  17
HETATM   17  N4  LIG X 999      42.742 131.333  22.243  1.00  0.00    -0.077 NA
HETATM   18  N5  LIG X 999      42.642 130.263  22.843  1.00  0.00    -0.165 NA
HETATM   19  N6  LIG X 999      42.542 129.194  23.442  1.00  0.00     0.068 N 
ENDBRANCH   6  17
ENDBRANCH   1   4
TORSDOF 3
