REMARK  3 active torsions:
REMARK  status: ('A' for Active; 'I' for Inactive)
REMARK    1  A    between atoms: C2_2  and  N1_3 
REMARK       I    between atoms: N2_8  and  C7_9 
REMARK    2  A    between atoms: C7_9  and  C8_11 
REMARK    3  A    between atoms: C9_12  and  C10_13 
ROOT
HETATM    1  C8  LIG X 999      -1.063   0.767   0.889  1.00  0.00     0.001 C 
HETATM    2  C9  LIG X 999      -0.045   1.348   1.169  1.00  0.00    -0.057 C 
ENDROOT
BRANCH   1   3
HETATM    3  C7  LIG X 999      -2.272   0.077   0.528  1.00  0.00     0.313 C 
HETATM    4  N2  LIG X 999      -2.377  -0.601  -0.736  1.00  0.00    -0.269 N 
HETATM    5  N1  LIG X 999      -1.304  -0.643  -1.646  1.00  0.00    -0.226 NA
HETATM    6  C6  LIG X 999      -3.468  -1.512  -1.025  1.00  0.00     0.153 C 
HETATM    7  C3  LIG X 999      -1.583  -1.804  -2.511  1.00  0.00     0.119 C 
HETATM    8  C4  LIG X 999      -3.048  -2.222  -2.304  1.00  0.00     0.016 C 
HETATM    9  C5  LIG X 999      -3.933  -1.830  -3.495  1.00  0.00     0.013 C 
HETATM   10  O1  LIG X 999      -3.239   0.070   1.335  1.00  0.00    -0.257 OA
BRANCH   5  11
HETATM   11  C2  LIG X 999      -1.277   0.619  -2.414  1.00  0.00     0.109 C 
HETATM   12  C1  LIG X 999       0.117   0.856  -2.986  1.00  0.00     0.023 C 
ENDBRANCH   5  11
ENDBRANCH   1   3
BRANCH   2  13
HETATM   13  C10 LIG X 999       1.174   2.042   1.486  1.00  0.00     0.019 A 
HETATM   14  C11 LIG X 999       1.717   1.956   2.774  1.00  0.00     0.021 A 
HETATM   15  C12 LIG X 999       2.904   2.626   3.084  1.00  0.00     0.013 A 
HETATM   16  C13 LIG X 999       3.559   3.389   2.107  1.00  0.00    -0.026 A 
HETATM   17  C14 LIG X 999       4.752   4.066   2.407  1.00  0.00     0.012 A 
HETATM   18  C18 LIG X 999       3.012   3.478   0.803  1.00  0.00    -0.025 A 
HETATM   19  C15 LIG X 999       5.395   4.823   1.423  1.00  0.00     0.001 A 
HETATM   20  C16 LIG X 999       4.856   4.910   0.137  1.00  0.00     0.001 A 
HETATM   21  C17 LIG X 999       3.669   4.242  -0.175  1.00  0.00     0.012 A 
HETATM   22  C19 LIG X 999       1.820   2.802   0.502  1.00  0.00     0.032 A 
ENDBRANCH   2  13
TORSDOF 3
