REMARK  7 active torsions:
REMARK  status: ('A' for Active; 'I' for Inactive)
REMARK    1  A    between atoms: C6_6  and  N1_7 
REMARK       I    between atoms: N1_7  and  C7_8 
REMARK    2  A    between atoms: C7_8  and  C8_10 
REMARK    3  A    between atoms: C8_10  and  N2_11 
REMARK    4  A    between atoms: C11_16  and  C12_17 
REMARK    5  A    between atoms: C12_17  and  O2_18 
REMARK    6  A    between atoms: O2_18  and  C13_19 
REMARK    7  A    between atoms: C22_28  and  N5_29 
ROOT
HETATM    1  N5  LIG X 999       0.179  -0.626  -2.824  1.00  0.00    -0.069 NA
HETATM    2  N6  LIG X 999       0.362   0.445  -3.404  1.00  0.00    -0.162 NA
HETATM    3  N7  LIG X 999       0.542   1.513  -3.988  1.00  0.00     0.068 N 
ENDROOT
BRANCH   1   4
HETATM    4  C22 LIG X 999       0.568  -0.840  -1.458  1.00  0.00     0.137 A 
HETATM    5  C13 LIG X 999      -0.361  -1.477  -0.615  1.00  0.00     0.101 A 
HETATM    6  C14 LIG X 999      -0.051  -1.680   0.740  1.00  0.00     0.040 A 
HETATM    7  C15 LIG X 999       1.163  -1.243   1.263  1.00  0.00     0.015 A 
HETATM    8  C16 LIG X 999       2.109  -0.627   0.437  1.00  0.00    -0.023 A 
HETATM    9  C17 LIG X 999       3.336  -0.207   0.975  1.00  0.00     0.012 A 
HETATM   10  C21 LIG X 999       1.833  -0.441  -0.944  1.00  0.00     0.009 A 
HETATM   11  C18 LIG X 999       4.302   0.371   0.152  1.00  0.00     0.001 A 
HETATM   12  C19 LIG X 999       4.061   0.517  -1.212  1.00  0.00     0.001 A 
HETATM   13  C20 LIG X 999       2.845   0.106  -1.762  1.00  0.00     0.015 A 
BRANCH   5  14
HETATM   14  O2  LIG X 999      -1.593  -1.869  -1.165  1.00  0.00    -0.343 OA
BRANCH  14  15
HETATM   15  C12 LIG X 999      -2.647  -2.534  -0.469  1.00  0.00     0.236 C 
BRANCH  15  16
HETATM   16  C11 LIG X 999      -3.334  -1.619   0.511  1.00  0.00     0.077 A 
HETATM   17  N2  LIG X 999      -3.795  -0.373   0.266  1.00  0.00    -0.265 N 
HETATM   18  N3  LIG X 999      -4.421   0.055   1.351  1.00  0.00     0.005 NA
HETATM   19  N4  LIG X 999      -4.411  -0.876   2.295  1.00  0.00    -0.163 NA
HETATM   20  C9  LIG X 999      -3.745  -1.935   1.792  1.00  0.00     0.074 A 
HETATM   21  C10 LIG X 999      -3.549  -3.225   2.519  1.00  0.00     0.074 C 
BRANCH  17  22
HETATM   22  C8  LIG X 999      -3.627   0.441  -0.938  1.00  0.00     0.251 C 
BRANCH  22  23
HETATM   23  C7  LIG X 999      -2.512   1.431  -0.769  1.00  0.00     0.263 C 
HETATM   24  N1  LIG X 999      -1.643   1.349   0.370  1.00  0.00    -0.213 NA
HETATM   25  O1  LIG X 999      -2.376   2.348  -1.622  1.00  0.00    -0.269 OA
BRANCH  24  26
HETATM   26  C6  LIG X 999      -0.388   2.013   0.585  1.00  0.00     0.063 A 
HETATM   27  C1  LIG X 999       0.348   2.607  -0.461  1.00  0.00     0.034 A 
HETATM   28  C2  LIG X 999       1.603   3.172  -0.210  1.00  0.00     0.042 A 
HETATM   29  C3  LIG X 999       2.137   3.138   1.079  1.00  0.00     0.102 A 
HETATM   30  C4  LIG X 999       1.404   2.569   2.127  1.00  0.00     0.104 A 
HETATM   31  O4  LIG X 999       3.409   3.657   1.342  1.00  0.00    -0.346 OA
HETATM   32  C5  LIG X 999       0.155   1.995   1.877  1.00  0.00     0.071 A 
HETATM   33  O3  LIG X 999       1.945   2.574   3.417  1.00  0.00    -0.346 OA
HETATM   34  C23 LIG X 999       3.082   3.379   3.737  1.00  0.00     0.202 C 
HETATM   35  C24 LIG X 999       4.081   3.375   2.572  1.00  0.00     0.202 C 
ENDBRANCH  24  26
ENDBRANCH  22  23
ENDBRANCH  17  22
ENDBRANCH  15  16
ENDBRANCH  14  15
ENDBRANCH   5  14
ENDBRANCH   1   4
TORSDOF 7
