REMARK  16 active torsions:
REMARK  status: ('A' for Active; 'I' for Inactive)
REMARK    1  A    between atoms: N1_2  and  C3_4 
REMARK    2  A    between atoms: N1_2  and  C17_22 
REMARK    3  A    between atoms: C3_4  and  C4_5 
REMARK    4  A    between atoms: C4_5  and  C5_6 
REMARK    5  A    between atoms: N2_8  and  C7_9 
REMARK    6  A    between atoms: C7_9  and  C8_10 
REMARK    7  A    between atoms: C8_10  and  C9_11 
REMARK    8  A    between atoms: C9_11  and  C10_12 
REMARK    9  A    between atoms: C10_12  and  C11_13 
REMARK   10  A    between atoms: C11_13  and  C12_14 
REMARK   11  A    between atoms: C12_14  and  C13_15 
REMARK   12  A    between atoms: C13_15  and  C14_16 
REMARK   13  A    between atoms: C14_16  and  C15_17 
REMARK   14  A    between atoms: C15_17  and  C16_18 
REMARK   15  A    between atoms: C16_18  and  O1_19 
REMARK   16  A    between atoms: C17_22  and  C18_23 
ROOT
HETATM    1  C5  LIG X 999       0.202   0.447  -2.226  1.00  0.00     0.074 A 
HETATM    2  C6  LIG X 999      -1.082   0.941  -2.352  1.00  0.00     0.140 A 
HETATM    3  N2  LIG X 999      -1.003   1.982  -3.199  1.00  0.00    -0.285 N 
HETATM    4  N3  LIG X 999       0.262   2.113  -3.564  1.00  0.00    -0.218 N 
HETATM    5  N4  LIG X 999       1.026   1.199  -2.985  1.00  0.00    -0.162 NA
HETATM    6  H33 LIG X 999       0.624   2.864  -4.192  1.00  0.00     0.210 HD
ENDROOT
BRANCH   1   7
HETATM    7  C4  LIG X 999       0.665  -0.607  -1.267  1.00  0.00     0.090 C 
BRANCH   7   8
HETATM    8  C3  LIG X 999      -0.056  -1.952  -1.531  1.00  0.00     0.243 C 
BRANCH   8   9
HETATM    9  N1  LIG X 999       0.344  -3.091  -0.639  1.00  0.00    -0.070 N 
HETATM   10  C1  LIG X 999      -0.577  -4.218  -0.946  1.00  0.00     0.272 C 
HETATM   11  C2  LIG X 999       0.154  -2.723   0.786  1.00  0.00     0.272 C 
BRANCH   9  12
HETATM   12  C17 LIG X 999       1.762  -3.496  -0.922  1.00  0.00     0.276 C 
BRANCH  12  13
HETATM   13  C18 LIG X 999       2.259  -4.707  -0.126  1.00  0.00    -0.021 A 
HETATM   14  C19 LIG X 999       2.041  -5.983  -0.682  1.00  0.00     0.010 A 
HETATM   15  C20 LIG X 999       2.415  -7.140  -0.004  1.00  0.00     0.002 A 
HETATM   16  C21 LIG X 999       3.030  -7.057   1.240  1.00  0.00     0.012 A 
HETATM   17  C22 LIG X 999       3.306  -5.808   1.808  1.00  0.00    -0.025 A 
HETATM   18  C23 LIG X 999       3.961  -5.743   3.049  1.00  0.00     0.012 A 
HETATM   19  C27 LIG X 999       2.943  -4.612   1.125  1.00  0.00    -0.018 A 
HETATM   20  C24 LIG X 999       4.279  -4.510   3.614  1.00  0.00     0.001 A 
HETATM   21  C25 LIG X 999       3.957  -3.331   2.944  1.00  0.00     0.001 A 
HETATM   22  C26 LIG X 999       3.298  -3.375   1.713  1.00  0.00     0.013 A 
ENDBRANCH  12  13
ENDBRANCH   9  12
ENDBRANCH   8   9
ENDBRANCH   7   8
ENDBRANCH   1   7
BRANCH   3  23
HETATM   23  C7  LIG X 999      -2.064   2.936  -3.522  1.00  0.00     0.150 C 
BRANCH  23  24
HETATM   24  C8  LIG X 999      -2.015   4.145  -2.578  1.00  0.00     0.022 C 
BRANCH  24  25
HETATM   25  C9  LIG X 999      -2.507   3.790  -1.168  1.00  0.00     0.002 C 
BRANCH  25  26
HETATM   26  C10 LIG X 999      -2.260   4.938  -0.178  1.00  0.00     0.000 C 
BRANCH  26  27
HETATM   27  C11 LIG X 999      -2.870   4.675   1.213  1.00  0.00     0.000 C 
BRANCH  27  28
HETATM   28  C12 LIG X 999      -2.465   3.340   1.868  1.00  0.00     0.000 C 
BRANCH  28  29
HETATM   29  C13 LIG X 999      -0.949   3.200   2.071  1.00  0.00     0.000 C 
BRANCH  29  30
HETATM   30  C14 LIG X 999      -0.610   1.864   2.745  1.00  0.00     0.002 C 
BRANCH  30  31
HETATM   31  C15 LIG X 999       0.902   1.723   2.959  1.00  0.00     0.026 C 
BRANCH  31  32
HETATM   32  C16 LIG X 999       1.240   0.398   3.640  1.00  0.00     0.164 C 
BRANCH  32  33
HETATM   33  O1  LIG X 999       2.624   0.315   3.836  1.00  0.00    -0.401 OA
HETATM   34  H32 LIG X 999       2.784  -0.552   4.292  1.00  0.00     0.209 HD
ENDBRANCH  32  33
ENDBRANCH  31  32
ENDBRANCH  30  31
ENDBRANCH  29  30
ENDBRANCH  28  29
ENDBRANCH  27  28
ENDBRANCH  26  27
ENDBRANCH  25  26
ENDBRANCH  24  25
ENDBRANCH  23  24
ENDBRANCH   3  23
TORSDOF 16
