REMARK  3 active torsions:
REMARK  status: ('A' for Active; 'I' for Inactive)
REMARK    1  A    between atoms: C7_9  and  C8_10 
REMARK    2  A    between atoms: C9_14  and  N4_15 
REMARK    3  A    between atoms: N7_24  and  C14_25 
ROOT
HETATM    1  N4  LIG X 999      -0.819   1.124  -6.124  1.00  0.00    -0.025 NA
HETATM    2  N5  LIG X 999       0.154   0.415  -6.381  1.00  0.00    -0.158 NA
HETATM    3  N6  LIG X 999       1.125  -0.294  -6.637  1.00  0.00     0.068 N 
ENDROOT
BRANCH   1   4
HETATM    4  C9  LIG X 999      -1.358   1.170  -4.804  1.00  0.00     0.302 A 
HETATM    5  N3  LIG X 999      -2.408   1.924  -4.448  1.00  0.00    -0.236 N 
HETATM    6  N2  LIG X 999      -2.621   1.711  -3.161  1.00  0.00    -0.145 NA
HETATM    7  H4  LIG X 999      -2.970   2.562  -5.054  1.00  0.00     0.193 HD
HETATM    8  C8  LIG X 999      -1.671   0.829  -2.776  1.00  0.00     0.203 A 
HETATM    9  O1  LIG X 999      -0.899   0.487  -3.785  1.00  0.00    -0.253 OA
BRANCH   8  10
HETATM   10  C7  LIG X 999      -1.563   0.282  -1.409  1.00  0.00     0.032 A 
HETATM   11  C6  LIG X 999      -0.314  -0.062  -0.804  1.00  0.00     0.020 A 
HETATM   12  C1  LIG X 999       1.077   0.224  -1.288  1.00  0.00     0.060 A 
HETATM   13  C5  LIG X 999      -0.380  -0.681   0.431  1.00  0.00     0.019 A 
HETATM   14  N1  LIG X 999       1.288   0.950  -2.338  1.00  0.00    -0.299 NA
HETATM   15  C2  LIG X 999       2.241  -0.259  -0.469  1.00  0.00     0.034 A 
HETATM   16  H1  LIG X 999       2.252   1.186  -2.665  1.00  0.00     0.187 HD
HETATM   17  C3  LIG X 999       2.056  -0.878   0.715  1.00  0.00     0.033 A 
HETATM   18  C4  LIG X 999       0.676  -1.085   1.186  1.00  0.00     0.048 A 
HETATM   19  N7  LIG X 999       0.228  -1.610   2.353  1.00  0.00    -0.324 N 
HETATM   20  C13 LIG X 999      -1.129  -1.502   2.312  1.00  0.00     0.193 A 
HETATM   21  C12 LIG X 999      -1.526  -0.930   1.114  1.00  0.00     0.032 A 
HETATM   22  O2  LIG X 999      -1.979  -1.895   3.339  1.00  0.00    -0.171 OA
HETATM   23  C11 LIG X 999      -2.760  -0.571   0.587  1.00  0.00     0.018 A 
HETATM   24  C10 LIG X 999      -2.772   0.037  -0.688  1.00  0.00     0.018 A 
BRANCH  19  25
HETATM   25  C14 LIG X 999       1.033  -2.087   3.477  1.00  0.00     0.127 C 
HETATM   26  C15 LIG X 999       1.431  -0.921   4.374  1.00  0.00     0.027 C 
ENDBRANCH  19  25
ENDBRANCH   8  10
ENDBRANCH   1   4
TORSDOF 3
