REMARK  1 active torsions:
REMARK  status: ('A' for Active; 'I' for Inactive)
REMARK    1  A    between atoms: C4_4  and  N1_5 
ROOT
HETATM    1  C1  LIG X 999      -0.100   0.306  -1.540  1.00  0.00     0.049 C 
HETATM    2  C2  LIG X 999       0.486   0.176  -0.155  1.00  0.00    -0.045 C 
HETATM    3  C3  LIG X 999       1.778   0.698   0.019  1.00  0.00     0.057 C 
HETATM    4  C4  LIG X 999       2.510   0.396   1.164  1.00  0.00     0.122 C 
HETATM    5  N2  LIG X 999       1.983  -0.433   2.096  1.00  0.00    -0.231 NA
HETATM    6  C5  LIG X 999       0.722  -0.928   1.999  1.00  0.00     0.070 C 
HETATM    7  C6  LIG X 999       0.287  -1.828   2.971  1.00  0.00     0.033 C 
HETATM    8  C7  LIG X 999      -0.990  -2.368   2.911  1.00  0.00     0.014 C 
HETATM    9  C8  LIG X 999      -1.895  -1.934   1.939  1.00  0.00    -0.025 C 
HETATM   10  C9  LIG X 999      -3.213  -2.417   1.966  1.00  0.00     0.012 C 
HETATM   11  C10 LIG X 999      -4.169  -1.903   1.093  1.00  0.00     0.001 C 
HETATM   12  C11 LIG X 999      -3.828  -0.877   0.218  1.00  0.00     0.001 C 
HETATM   13  C12 LIG X 999      -2.517  -0.396   0.170  1.00  0.00     0.013 C 
HETATM   14  C13 LIG X 999      -1.498  -0.970   0.966  1.00  0.00    -0.013 C 
HETATM   15  C14 LIG X 999      -0.124  -0.555   0.916  1.00  0.00     0.010 C 
ENDROOT
BRANCH   4  16
HETATM   16  N1  LIG X 999       3.835   0.901   1.334  1.00  0.00    -0.384 N 
HETATM   17  H5  LIG X 999       4.268   1.526   0.618  1.00  0.00     0.157 HD
HETATM   18  H6  LIG X 999       4.388   0.652   2.184  1.00  0.00     0.157 HD
ENDBRANCH   4  16
TORSDOF 1
