REMARK  3 active torsions:
REMARK  status: ('A' for Active; 'I' for Inactive)
REMARK    1  A    between atoms: C2_2  and  N1_3 
REMARK       I    between atoms: N2_8  and  C7_9 
REMARK    2  A    between atoms: C7_9  and  C8_11 
REMARK    3  A    between atoms: C9_12  and  C10_13 
ROOT
HETATM    1  C8  LIG X 999       0.161   1.421  -1.594  1.00  0.00     0.001 C 
HETATM    2  C9  LIG X 999       0.971   1.855  -0.815  1.00  0.00    -0.057 C 
ENDROOT
BRANCH   1   3
HETATM    3  C7  LIG X 999      -0.811   0.894  -2.514  1.00  0.00     0.313 C 
HETATM    4  N2  LIG X 999      -1.990   0.222  -2.037  1.00  0.00    -0.269 N 
HETATM    5  N1  LIG X 999      -2.192  -0.070  -0.674  1.00  0.00    -0.226 NA
HETATM    6  C6  LIG X 999      -3.154   0.041  -2.882  1.00  0.00     0.153 C 
HETATM    7  C3  LIG X 999      -3.629  -0.376  -0.534  1.00  0.00     0.119 C 
HETATM    8  C4  LIG X 999      -4.297  -0.205  -1.909  1.00  0.00     0.016 C 
HETATM    9  C5  LIG X 999      -5.154  -1.413  -2.306  1.00  0.00     0.013 C 
HETATM   10  O1  LIG X 999      -0.624   1.043  -3.751  1.00  0.00    -0.257 OA
BRANCH   5  11
HETATM   11  C2  LIG X 999      -1.328  -1.198  -0.248  1.00  0.00     0.109 C 
HETATM   12  C1  LIG X 999      -1.365  -2.413  -1.188  1.00  0.00     0.023 C 
ENDBRANCH   5  11
ENDBRANCH   1   3
BRANCH   2  13
HETATM   13  C10 LIG X 999       1.933   2.365   0.124  1.00  0.00     0.019 A 
HETATM   14  C11 LIG X 999       3.006   3.145  -0.326  1.00  0.00     0.021 A 
HETATM   15  C12 LIG X 999       3.947   3.640   0.582  1.00  0.00     0.013 A 
HETATM   16  C13 LIG X 999       3.820   3.360   1.951  1.00  0.00    -0.026 A 
HETATM   17  C14 LIG X 999       4.758   3.853   2.873  1.00  0.00     0.012 A 
HETATM   18  C18 LIG X 999       2.735   2.572   2.409  1.00  0.00    -0.025 A 
HETATM   19  C15 LIG X 999       4.621   3.566   4.234  1.00  0.00     0.001 A 
HETATM   20  C16 LIG X 999       3.551   2.789   4.686  1.00  0.00     0.001 A 
HETATM   21  C17 LIG X 999       2.610   2.292   3.780  1.00  0.00     0.012 A 
HETATM   22  C19 LIG X 999       1.798   2.079   1.489  1.00  0.00     0.032 A 
ENDBRANCH   2  13
TORSDOF 3
