REMARK  5 active torsions:
REMARK  status: ('A' for Active; 'I' for Inactive)
REMARK    1  A    between atoms: C6_6  and  O1_7 
REMARK    2  A    between atoms: O1_7  and  C7_8 
REMARK    3  A    between atoms: C7_8  and  O3_10 
REMARK    4  A    between atoms: O3_10  and  C8_11 
REMARK    5  A    between atoms: C8_11  and  N1_12 
ROOT
HETATM    1  N1  LIG X 999      -0.911   5.654   1.083  1.00  0.00    -0.089 NA
HETATM    2  N2  LIG X 999      -0.759   6.661   1.774  1.00  0.00    -0.165 NA
HETATM    3  N3  LIG X 999      -0.608   7.667   2.465  1.00  0.00     0.068 N 
ENDROOT
BRANCH   1   4
HETATM    4  C8  LIG X 999      -0.147   4.448   1.355  1.00  0.00     0.370 C 
BRANCH   4   5
HETATM    5  O3  LIG X 999      -0.511   3.442   0.417  1.00  0.00    -0.273 OA
BRANCH   5   6
HETATM    6  C7  LIG X 999       0.052   2.164   0.426  1.00  0.00     0.413 C 
HETATM    7  O2  LIG X 999       0.946   1.867   1.267  1.00  0.00    -0.229 OA
BRANCH   6   8
HETATM    8  O1  LIG X 999      -0.351   1.243  -0.548  1.00  0.00    -0.256 OA
BRANCH   8   9
HETATM    9  C6  LIG X 999      -0.099  -0.137  -0.514  1.00  0.00     0.082 A 
HETATM   10  C5  LIG X 999       0.008  -0.852   0.694  1.00  0.00     0.049 A 
HETATM   11  C4  LIG X 999       0.251  -2.234   0.680  1.00  0.00    -0.023 A 
HETATM   12  C3  LIG X 999       0.366  -2.953   1.881  1.00  0.00     0.012 A 
HETATM   13  C11 LIG X 999       0.377  -2.913  -0.556  1.00  0.00    -0.026 A 
HETATM   14  C2  LIG X 999       0.608  -4.329   1.855  1.00  0.00     0.001 A 
HETATM   15  C1  LIG X 999       0.735  -4.998   0.635  1.00  0.00     0.001 A 
HETATM   16  C12 LIG X 999       0.620  -4.296  -0.568  1.00  0.00     0.012 A 
HETATM   17  C10 LIG X 999       0.250  -2.199  -1.755  1.00  0.00     0.015 A 
HETATM   18  C9  LIG X 999       0.007  -0.823  -1.730  1.00  0.00     0.038 A 
ENDBRANCH   8   9
ENDBRANCH   6   8
ENDBRANCH   5   6
ENDBRANCH   4   5
ENDBRANCH   1   4
TORSDOF 5
