REMARK  3 active torsions:
REMARK  status: ('A' for Active; 'I' for Inactive)
REMARK    1  A    between atoms: C7_9  and  C8_10 
REMARK    2  A    between atoms: C9_14  and  N4_15 
REMARK    3  A    between atoms: N7_24  and  C14_25 
ROOT
HETATM    1  N4  LIG X 999      -0.765   1.457  -6.032  1.00  0.00    -0.025 NA
HETATM    2  N5  LIG X 999       0.391   1.878  -5.977  1.00  0.00    -0.158 NA
HETATM    3  N6  LIG X 999       1.545   2.298  -5.922  1.00  0.00     0.068 N 
ENDROOT
BRANCH   1   4
HETATM    4  C9  LIG X 999      -1.399   0.917  -4.874  1.00  0.00     0.302 A 
HETATM    5  N3  LIG X 999      -2.649   0.434  -4.859  1.00  0.00    -0.236 N 
HETATM    6  N2  LIG X 999      -2.894   0.025  -3.626  1.00  0.00    -0.145 NA
HETATM    7  H4  LIG X 999      -3.323   0.383  -5.655  1.00  0.00     0.193 HD
HETATM    8  C8  LIG X 999      -1.762   0.272  -2.929  1.00  0.00     0.203 A 
HETATM    9  O1  LIG X 999      -0.843   0.829  -3.690  1.00  0.00    -0.253 OA
BRANCH   8  10
HETATM   10  C7  LIG X 999      -1.609   0.002  -1.486  1.00  0.00     0.032 A 
HETATM   11  C6  LIG X 999      -0.367  -0.388  -0.894  1.00  0.00     0.020 A 
HETATM   12  C1  LIG X 999       0.913  -0.787  -1.567  1.00  0.00     0.060 A 
HETATM   13  C5  LIG X 999      -0.348  -0.482   0.486  1.00  0.00     0.019 A 
HETATM   14  N1  LIG X 999       0.986  -0.915  -2.853  1.00  0.00    -0.299 NA
HETATM   15  C2  LIG X 999       2.098  -1.145  -0.714  1.00  0.00     0.034 A 
HETATM   16  H1  LIG X 999       1.861  -1.227  -3.331  1.00  0.00     0.187 HD
HETATM   17  C3  LIG X 999       2.007  -1.180   0.632  1.00  0.00     0.033 A 
HETATM   18  C4  LIG X 999       0.716  -0.842   1.253  1.00  0.00     0.048 A 
HETATM   19  N7  LIG X 999       0.349  -0.866   2.558  1.00  0.00    -0.324 N 
HETATM   20  C13 LIG X 999      -0.972  -0.535   2.578  1.00  0.00     0.193 A 
HETATM   21  C12 LIG X 999      -1.421  -0.285   1.292  1.00  0.00     0.032 A 
HETATM   22  O2  LIG X 999      -1.750  -0.481   3.729  1.00  0.00    -0.171 OA
HETATM   23  C11 LIG X 999      -2.660   0.049   0.758  1.00  0.00     0.018 A 
HETATM   24  C10 LIG X 999      -2.747   0.196  -0.644  1.00  0.00     0.018 A 
BRANCH  19  25
HETATM   25  C14 LIG X 999       1.164  -1.278   3.700  1.00  0.00     0.127 C 
HETATM   26  C15 LIG X 999       1.127  -2.793   3.858  1.00  0.00     0.027 C 
ENDBRANCH  19  25
ENDBRANCH   8  10
ENDBRANCH   1   4
TORSDOF 3
