REMARK  5 active torsions:
REMARK  status: ('A' for Active; 'I' for Inactive)
REMARK    1  A    between atoms: C3_3  and  O1_4 
REMARK    2  A    between atoms: O1_4  and  C4_5 
REMARK    3  A    between atoms: C4_5  and  O2_6 
REMARK    4  A    between atoms: C5_8  and  C6_9 
REMARK    5  A    between atoms: C11_14  and  O3_15 
ROOT
HETATM    1  C1  LIG X 999       1.095  -3.763   3.463  1.00  0.00     0.014 C 
HETATM    2  C2  LIG X 999       1.798  -2.790   3.568  1.00  0.00    -0.091 C 
HETATM    3  C3  LIG X 999       2.651  -1.607   3.693  1.00  0.00     0.270 C 
ENDROOT
BRANCH   3   4
HETATM    4  O1  LIG X 999       2.511  -0.808   2.525  1.00  0.00    -0.319 OA
BRANCH   4   5
HETATM    5  C4  LIG X 999       3.174   0.411   2.330  1.00  0.00     0.179 C 
HETATM    6  C5  LIG X 999       2.987   1.111   1.206  1.00  0.00     0.075 C 
BRANCH   5   7
HETATM    7  O2  LIG X 999       4.065   0.909   3.283  1.00  0.00    -0.341 OA
HETATM    8  H4  LIG X 999       4.261   0.425   4.150  1.00  0.00     0.220 HD
ENDBRANCH   5   7
BRANCH   6   9
HETATM    9  C6  LIG X 999       2.071   0.706   0.116  1.00  0.00    -0.031 A 
HETATM   10  C7  LIG X 999       2.454   0.944  -1.213  1.00  0.00     0.012 A 
HETATM   11  C8  LIG X 999       1.613   0.592  -2.271  1.00  0.00     0.013 A 
HETATM   12  C9  LIG X 999       0.363   0.011  -2.016  1.00  0.00    -0.023 A 
HETATM   13  C10 LIG X 999      -0.488  -0.347  -3.073  1.00  0.00     0.049 A 
HETATM   14  C15 LIG X 999      -0.046  -0.209  -0.681  1.00  0.00    -0.025 A 
HETATM   15  C11 LIG X 999      -1.740  -0.918  -2.817  1.00  0.00     0.069 A 
HETATM   16  C13 LIG X 999      -2.143  -1.132  -1.485  1.00  0.00     0.037 A 
HETATM   17  C14 LIG X 999      -1.302  -0.778  -0.427  1.00  0.00     0.015 A 
HETATM   18  C16 LIG X 999       0.804   0.149   0.376  1.00  0.00     0.024 A 
BRANCH  15  19
HETATM   19  O3  LIG X 999      -2.551  -1.258  -3.911  1.00  0.00    -0.356 OA
HETATM   20  C12 LIG X 999      -3.845  -1.844  -3.802  1.00  0.00     0.210 C 
ENDBRANCH  15  19
ENDBRANCH   6   9
ENDBRANCH   4   5
ENDBRANCH   3   4
TORSDOF 5
