REMARK  6 active torsions:
REMARK  status: ('A' for Active; 'I' for Inactive)
REMARK    1  A    between atoms: C10_10  and  N1_11 
REMARK    2  A    between atoms: C13_17  and  C14_18 
REMARK    3  A    between atoms: C14_18  and  O1_19 
REMARK    4  A    between atoms: C14_18  and  C17_22 
REMARK    5  A    between atoms: O1_19  and  C15_20 
REMARK    6  A    between atoms: C21_28  and  N4_29 
ROOT
HETATM    1  N4  LIG X 999      -0.595   2.848  -6.598  1.00  0.00    -0.072 NA
HETATM    2  N5  LIG X 999      -0.207   3.105  -7.739  1.00  0.00    -0.162 NA
HETATM    3  N6  LIG X 999       0.178   3.364  -8.878  1.00  0.00     0.068 N 
ENDROOT
BRANCH   1   4
HETATM    4  C21 LIG X 999      -0.119   1.711  -5.857  1.00  0.00     0.104 A 
HETATM    5  C1  LIG X 999       0.826   0.832  -6.418  1.00  0.00     0.035 A 
HETATM    6  C2  LIG X 999       1.285  -0.270  -5.698  1.00  0.00     0.003 A 
HETATM    7  C3  LIG X 999       0.815  -0.516  -4.410  1.00  0.00     0.015 A 
HETATM    8  C4  LIG X 999      -0.129   0.343  -3.820  1.00  0.00     0.011 A 
HETATM    9  C5  LIG X 999      -0.602   1.468  -4.550  1.00  0.00     0.009 A 
HETATM   10  C20 LIG X 999      -0.609   0.101  -2.517  1.00  0.00     0.101 A 
HETATM   11  C6  LIG X 999      -1.548   2.325  -3.955  1.00  0.00     0.016 A 
HETATM   12  C7  LIG X 999      -2.019   2.081  -2.665  1.00  0.00     0.015 A 
HETATM   13  C8  LIG X 999      -1.556   0.976  -1.943  1.00  0.00     0.001 A 
HETATM   14  C9  LIG X 999      -2.012   0.716  -0.648  1.00  0.00     0.052 A 
HETATM   15  C10 LIG X 999      -1.508  -0.379   0.057  1.00  0.00     0.131 A 
HETATM   16  C19 LIG X 999      -0.592  -1.226  -0.588  1.00  0.00     0.317 A 
HETATM   17  O2  LIG X 999      -0.164  -2.260  -0.012  1.00  0.00    -0.257 OA
HETATM   18  O3  LIG X 999      -0.180  -0.953  -1.823  1.00  0.00    -0.272 OA
BRANCH  15  19
HETATM   19  N1  LIG X 999      -1.966  -0.643   1.390  1.00  0.00    -0.234 N 
HETATM   20  N2  LIG X 999      -3.239  -0.849   1.692  1.00  0.00    -0.015 NA
HETATM   21  N3  LIG X 999      -3.372  -1.009   2.999  1.00  0.00    -0.286 N 
HETATM   22  H7  LIG X 999      -4.277  -1.190   3.486  1.00  0.00     0.184 HD
HETATM   23  C11 LIG X 999      -2.156  -0.881   3.562  1.00  0.00     0.047 A 
HETATM   24  C12 LIG X 999      -1.884  -1.009   5.027  1.00  0.00     0.071 C 
HETATM   25  C13 LIG X 999      -1.247  -0.654   2.538  1.00  0.00     0.085 A 
BRANCH  25  26
HETATM   26  C14 LIG X 999       0.227  -0.314   2.671  1.00  0.00     0.174 C 
BRANCH  26  27
HETATM   27  O1  LIG X 999       0.823  -1.091   3.698  1.00  0.00    -0.380 OA
BRANCH  27  28
HETATM   28  C15 LIG X 999       1.157  -2.391   3.246  1.00  0.00     0.164 C 
HETATM   29  C16 LIG X 999       2.594  -2.428   2.736  1.00  0.00     0.033 C 
ENDBRANCH  27  28
ENDBRANCH  26  27
BRANCH  26  30
HETATM   30  C17 LIG X 999       0.418   1.170   3.030  1.00  0.00     0.034 C 
HETATM   31  C18 LIG X 999      -0.041   2.119   1.923  1.00  0.00     0.008 C 
ENDBRANCH  26  30
ENDBRANCH  25  26
ENDBRANCH  15  19
ENDBRANCH   1   4
TORSDOF 6
