REMARK  3 active torsions:
REMARK  status: ('A' for Active; 'I' for Inactive)
REMARK    1  A    between atoms: C7_9  and  C8_10 
REMARK    2  A    between atoms: C9_13  and  N4_14 
REMARK    3  A    between atoms: N7_23  and  C14_24 
ROOT
HETATM    1  N4  LIG X 999      -3.206   2.918   3.646  1.00  0.00    -0.023 NA
HETATM    2  N5  LIG X 999      -3.953   3.299   2.745  1.00  0.00    -0.158 NA
HETATM    3  N6  LIG X 999      -4.699   3.679   1.844  1.00  0.00     0.068 N 
ENDROOT
BRANCH   1   4
HETATM    4  C9  LIG X 999      -2.019   2.185   3.349  1.00  0.00     0.326 A 
HETATM    5  N3  LIG X 999      -1.168   1.735   4.286  1.00  0.00    -0.099 NA
HETATM    6  N2  LIG X 999      -0.204   1.111   3.627  1.00  0.00    -0.119 NA
HETATM    7  C8  LIG X 999      -0.512   1.201   2.316  1.00  0.00     0.205 A 
HETATM    8  O1  LIG X 999      -1.626   1.871   2.139  1.00  0.00    -0.252 OA
BRANCH   7   9
HETATM    9  C7  LIG X 999       0.334   0.664   1.231  1.00  0.00     0.032 A 
HETATM   10  C6  LIG X 999      -0.200   0.156   0.006  1.00  0.00     0.020 A 
HETATM   11  C1  LIG X 999      -1.631  -0.095  -0.368  1.00  0.00     0.060 A 
HETATM   12  C5  LIG X 999       0.721  -0.201  -0.964  1.00  0.00     0.019 A 
HETATM   13  N1  LIG X 999      -2.582   0.001   0.505  1.00  0.00    -0.299 NA
HETATM   14  C2  LIG X 999      -1.942  -0.568  -1.761  1.00  0.00     0.034 A 
HETATM   15  H1  LIG X 999      -3.577  -0.205   0.266  1.00  0.00     0.187 HD
HETATM   16  C3  LIG X 999      -0.959  -0.848  -2.641  1.00  0.00     0.033 A 
HETATM   17  C4  LIG X 999       0.437  -0.676  -2.205  1.00  0.00     0.048 A 
HETATM   18  N7  LIG X 999       1.591  -0.916  -2.875  1.00  0.00    -0.324 N 
HETATM   19  C13 LIG X 999       2.595  -0.569  -2.022  1.00  0.00     0.193 A 
HETATM   20  C12 LIG X 999       2.067  -0.127  -0.820  1.00  0.00     0.032 A 
HETATM   21  O2  LIG X 999       3.948  -0.644  -2.331  1.00  0.00    -0.171 OA
HETATM   22  C11 LIG X 999       2.632   0.325   0.366  1.00  0.00     0.018 A 
HETATM   23  C10 LIG X 999       1.752   0.720   1.399  1.00  0.00     0.018 A 
BRANCH  18  24
HETATM   24  C14 LIG X 999       1.735  -1.371  -4.257  1.00  0.00     0.127 C 
HETATM   25  C15 LIG X 999       1.656  -0.187  -5.213  1.00  0.00     0.027 C 
ENDBRANCH  18  24
ENDBRANCH   7   9
ENDBRANCH   1   4
TORSDOF 3
