REMARK  6 active torsions:
REMARK  status: ('A' for Active; 'I' for Inactive)
REMARK    1  A    between atoms: C10_10  and  N1_11 
REMARK    2  A    between atoms: C11_12  and  C12_13 
REMARK    3  A    between atoms: C12_13  and  O1_14 
REMARK    4  A    between atoms: C12_13  and  C15_17 
REMARK    5  A    between atoms: O1_14  and  C13_15 
REMARK    6  A    between atoms: C21_28  and  N4_29 
ROOT
HETATM    1  N4  LIG X 999       5.148   4.524  -1.529  1.00  0.00    -0.072 NA
HETATM    2  N5  LIG X 999       6.223   4.803  -2.062  1.00  0.00    -0.162 NA
HETATM    3  N6  LIG X 999       7.297   5.082  -2.593  1.00  0.00     0.068 N 
ENDROOT
BRANCH   1   4
HETATM    4  C21 LIG X 999       4.288   3.482  -2.019  1.00  0.00     0.104 A 
HETATM    5  C1  LIG X 999       4.648   2.725  -3.150  1.00  0.00     0.035 A 
HETATM    6  C2  LIG X 999       3.813   1.714  -3.624  1.00  0.00     0.003 A 
HETATM    7  C3  LIG X 999       2.606   1.439  -2.983  1.00  0.00     0.015 A 
HETATM    8  C4  LIG X 999       2.216   2.177  -1.852  1.00  0.00     0.011 A 
HETATM    9  C5  LIG X 999       3.064   3.209  -1.363  1.00  0.00     0.009 A 
HETATM   10  C20 LIG X 999       0.997   1.904  -1.198  1.00  0.00     0.101 A 
HETATM   11  C6  LIG X 999       2.669   3.945  -0.230  1.00  0.00     0.016 A 
HETATM   12  C7  LIG X 999       1.461   3.670   0.413  1.00  0.00     0.015 A 
HETATM   13  C8  LIG X 999       0.625   2.656  -0.063  1.00  0.00     0.001 A 
HETATM   14  C9  LIG X 999      -0.587   2.363   0.569  1.00  0.00     0.052 A 
HETATM   15  C10 LIG X 999      -1.390   1.332   0.079  1.00  0.00     0.134 A 
HETATM   16  C19 LIG X 999      -0.968   0.639  -1.067  1.00  0.00     0.317 A 
HETATM   17  O2  LIG X 999      -1.689  -0.266  -1.565  1.00  0.00    -0.257 OA
HETATM   18  O3  LIG X 999       0.189   0.942  -1.647  1.00  0.00    -0.272 OA
BRANCH  15  19
HETATM   19  N1  LIG X 999      -2.632   1.022   0.724  1.00  0.00    -0.234 N 
HETATM   20  C11 LIG X 999      -2.963  -0.102   1.396  1.00  0.00     0.091 A 
HETATM   21  C17 LIG X 999      -4.249   0.111   1.884  1.00  0.00     0.079 A 
HETATM   22  C18 LIG X 999      -5.092  -0.812   2.705  1.00  0.00     0.074 C 
HETATM   23  N2  LIG X 999      -4.654   1.337   1.493  1.00  0.00    -0.162 NA
HETATM   24  N3  LIG X 999      -3.653   1.859   0.803  1.00  0.00    -0.212 N 
HETATM   25  H21 LIG X 999      -3.672   2.814   0.379  1.00  0.00     0.211 HD
BRANCH  20  26
HETATM   26  C12 LIG X 999      -2.020  -1.253   1.688  1.00  0.00     0.175 C 
BRANCH  26  27
HETATM   27  O1  LIG X 999      -2.760  -2.401   2.072  1.00  0.00    -0.380 OA
BRANCH  27  28
HETATM   28  C13 LIG X 999      -2.191  -3.578   1.536  1.00  0.00     0.164 C 
HETATM   29  C14 LIG X 999      -2.938  -4.784   2.083  1.00  0.00     0.033 C 
ENDBRANCH  27  28
ENDBRANCH  26  27
BRANCH  26  30
HETATM   30  C15 LIG X 999      -1.008  -0.873   2.790  1.00  0.00     0.034 C 
HETATM   31  C16 LIG X 999      -1.653  -0.642   4.157  1.00  0.00     0.008 C 
ENDBRANCH  26  30
ENDBRANCH  20  26
ENDBRANCH  15  19
ENDBRANCH   1   4
TORSDOF 6
