REMARK  11 active torsions:
REMARK  status: ('A' for Active; 'I' for Inactive)
REMARK    1  A    between atoms: O1_2  and  C1_3 
REMARK    2  A    between atoms: C1_3  and  O2_4 
REMARK    3  A    between atoms: O2_4  and  C2_5 
REMARK    4  A    between atoms: C2_5  and  C3_6 
REMARK    5  A    between atoms: C3_6  and  C4_7 
REMARK    6  A    between atoms: N3_10  and  C5_11 
REMARK    7  A    between atoms: C5_11  and  C6_12 
REMARK    8  A    between atoms: C6_12  and  C7_13 
REMARK       I    between atoms: C7_13  and  N4_15 
REMARK    9  A    between atoms: N4_15  and  N5_16 
REMARK   10  A    between atoms: N5_16  and  C8_18 
REMARK   11  A    between atoms: C12_22  and  C13_23 
ROOT
HETATM    1  C2  LIG X 999      -0.260   1.697  -0.511  1.00  0.00     0.184 C 
ENDROOT
BRANCH   1   2
HETATM    2  O2  LIG X 999      -1.526   1.735  -1.167  1.00  0.00    -0.330 OA
BRANCH   2   3
HETATM    3  C1  LIG X 999      -2.511   0.741  -1.062  1.00  0.00     0.178 C 
HETATM    4  C12 LIG X 999      -3.695   0.960  -1.641  1.00  0.00     0.075 C 
BRANCH   3   5
HETATM    5  O1  LIG X 999      -2.283  -0.446  -0.360  1.00  0.00    -0.341 OA
HETATM    6  H1  LIG X 999      -1.398  -0.666   0.076  1.00  0.00     0.220 HD
ENDBRANCH   3   5
BRANCH   4   7
HETATM    7  C13 LIG X 999      -4.812  -0.016  -1.611  1.00  0.00    -0.021 A 
HETATM    8  C14 LIG X 999      -4.568  -1.349  -1.989  1.00  0.00     0.012 A 
HETATM    9  C15 LIG X 999      -5.602  -2.283  -2.021  1.00  0.00     0.002 A 
HETATM   10  C16 LIG X 999      -6.901  -1.907  -1.688  1.00  0.00     0.012 A 
HETATM   11  C17 LIG X 999      -7.180  -0.584  -1.318  1.00  0.00    -0.025 A 
HETATM   12  C18 LIG X 999      -8.492  -0.212  -0.984  1.00  0.00     0.012 A 
HETATM   13  C22 LIG X 999      -6.135   0.378  -1.276  1.00  0.00    -0.015 A 
HETATM   14  C19 LIG X 999      -8.776   1.100  -0.602  1.00  0.00     0.001 A 
HETATM   15  C20 LIG X 999      -7.756   2.049  -0.547  1.00  0.00     0.001 A 
HETATM   16  C21 LIG X 999      -6.445   1.697  -0.877  1.00  0.00     0.013 A 
ENDBRANCH   4   7
ENDBRANCH   2   3
ENDBRANCH   1   2
BRANCH   1  17
HETATM   17  C3  LIG X 999      -0.418   2.010   0.978  1.00  0.00     0.089 C 
BRANCH  17  18
HETATM   18  C4  LIG X 999       0.909   1.964   1.667  1.00  0.00     0.071 A 
HETATM   19  N1  LIG X 999       1.736   3.019   1.809  1.00  0.00    -0.163 NA
HETATM   20  N2  LIG X 999       2.836   2.564   2.392  1.00  0.00     0.004 NA
HETATM   21  N3  LIG X 999       2.730   1.264   2.621  1.00  0.00    -0.283 N 
HETATM   22  C11 LIG X 999       1.540   0.844   2.163  1.00  0.00     0.136 A 
BRANCH  21  23
HETATM   23  C5  LIG X 999       3.794   0.434   3.175  1.00  0.00     0.155 C 
BRANCH  23  24
HETATM   24  C6  LIG X 999       4.684  -0.101   2.048  1.00  0.00     0.128 C 
BRANCH  24  25
HETATM   25  C7  LIG X 999       5.824  -0.953   2.548  1.00  0.00     0.261 C 
HETATM   26  O3  LIG X 999       5.935  -1.213   3.776  1.00  0.00    -0.270 OA
HETATM   27  N4  LIG X 999       6.799  -1.489   1.646  1.00  0.00    -0.136 NA
BRANCH  27  28
HETATM   28  N5  LIG X 999       6.757  -1.302   0.253  1.00  0.00    -0.280 N 
HETATM   29  H10 LIG X 999       5.970  -0.771  -0.181  1.00  0.00     0.189 HD
BRANCH  28  30
HETATM   30  C8  LIG X 999       7.771  -1.849  -0.606  1.00  0.00     0.014 C 
HETATM   31  C9  LIG X 999       8.844  -2.470  -0.104  1.00  0.00     0.039 C 
HETATM   32  C10 LIG X 999       7.660  -1.649  -2.090  1.00  0.00     0.069 C 
ENDBRANCH  28  30
ENDBRANCH  27  28
ENDBRANCH  24  25
ENDBRANCH  23  24
ENDBRANCH  21  23
ENDBRANCH  17  18
ENDBRANCH   1  17
TORSDOF 11
