REMARK  6 active torsions:
REMARK  status: ('A' for Active; 'I' for Inactive)
REMARK    1  A    between atoms: O1_2  and  C1_3 
REMARK    2  A    between atoms: C1_3  and  C2_4 
REMARK    3  A    between atoms: C1_3  and  C13_20 
REMARK    4  A    between atoms: C2_4  and  O3_6 
REMARK    5  A    between atoms: O3_6  and  C3_7 
REMARK    6  A    between atoms: C8_12  and  N1_13 
ROOT
HETATM    1  N1  LIG X 999       1.353   3.234   5.344  1.00  0.00    -0.073 NA
HETATM    2  N2  LIG X 999       2.064   2.737   6.219  1.00  0.00    -0.162 NA
HETATM    3  N3  LIG X 999       2.774   2.242   7.093  1.00  0.00     0.068 N 
ENDROOT
BRANCH   1   4
HETATM    4  C8  LIG X 999       1.095   2.573   4.098  1.00  0.00     0.094 A 
HETATM    5  C7  LIG X 999       0.275   3.206   3.156  1.00  0.00     0.046 A 
HETATM    6  C6  LIG X 999      -0.002   2.592   1.925  1.00  0.00    -0.024 A 
HETATM    7  C5  LIG X 999      -0.831   3.219   0.984  1.00  0.00     0.015 A 
HETATM    8  C11 LIG X 999       0.554   1.325   1.632  1.00  0.00    -0.023 A 
HETATM    9  C4  LIG X 999      -1.100   2.599  -0.239  1.00  0.00     0.038 A 
HETATM   10  C3  LIG X 999      -0.539   1.355  -0.547  1.00  0.00     0.080 A 
HETATM   11  C12 LIG X 999       0.278   0.711   0.400  1.00  0.00     0.049 A 
HETATM   12  C10 LIG X 999       1.373   0.692   2.579  1.00  0.00     0.014 A 
HETATM   13  C9  LIG X 999       1.643   1.311   3.802  1.00  0.00     0.035 A 
BRANCH  10  14
HETATM   14  O3  LIG X 999      -0.849   0.774  -1.786  1.00  0.00    -0.277 OA
BRANCH  14  15
HETATM   15  C2  LIG X 999      -0.020  -0.101  -2.502  1.00  0.00     0.293 C 
HETATM   16  O2  LIG X 999       1.209  -0.195  -2.232  1.00  0.00    -0.262 OA
BRANCH  15  17
HETATM   17  C1  LIG X 999      -0.576  -0.852  -3.676  1.00  0.00     0.217 C 
BRANCH  17  18
HETATM   18  O1  LIG X 999      -1.939  -1.116  -3.464  1.00  0.00    -0.386 OA
HETATM   19  H1  LIG X 999      -2.201  -1.813  -4.120  1.00  0.00     0.210 HD
ENDBRANCH  17  18
BRANCH  17  20
HETATM   20  C13 LIG X 999      -0.366  -0.072  -4.989  1.00  0.00     0.037 C 
HETATM   21  C14 LIG X 999      -1.141   1.246  -5.042  1.00  0.00     0.008 C 
ENDBRANCH  17  20
ENDBRANCH  15  17
ENDBRANCH  14  15
ENDBRANCH  10  14
ENDBRANCH   1   4
TORSDOF 6
