REMARK  3 active torsions:
REMARK  status: ('A' for Active; 'I' for Inactive)
REMARK    1  A    between atoms: O1_2  and  C2_3 
REMARK    2  A    between atoms: C2_3  and  C3_5 
REMARK    3  A    between atoms: C4_6  and  C5_7 
ROOT
HETATM    1  C5  LIG X 999       0.228   0.187   0.774  1.00  0.00     0.019 A 
HETATM    2  C6  LIG X 999       1.510   0.468   1.262  1.00  0.00     0.021 A 
HETATM    3  C7  LIG X 999       2.608   0.471   0.397  1.00  0.00     0.013 A 
HETATM    4  C8  LIG X 999       2.433   0.192  -0.967  1.00  0.00    -0.026 A 
HETATM    5  C9  LIG X 999       3.528   0.192  -1.845  1.00  0.00     0.012 A 
HETATM    6  C10 LIG X 999       3.340  -0.088  -3.201  1.00  0.00     0.001 A 
HETATM    7  C11 LIG X 999       2.062  -0.369  -3.691  1.00  0.00     0.001 A 
HETATM    8  C12 LIG X 999       0.962  -0.372  -2.828  1.00  0.00     0.012 A 
HETATM    9  C13 LIG X 999       1.137  -0.093  -1.463  1.00  0.00    -0.025 A 
HETATM   10  C14 LIG X 999       0.041  -0.093  -0.586  1.00  0.00     0.032 A 
ENDROOT
BRANCH   1  11
HETATM   11  C4  LIG X 999      -0.898   0.186   1.670  1.00  0.00    -0.056 C 
HETATM   12  C3  LIG X 999      -1.841   0.185   2.421  1.00  0.00     0.008 C 
BRANCH  12  13
HETATM   13  C2  LIG X 999      -2.964   0.185   3.314  1.00  0.00     0.339 C 
HETATM   14  O2  LIG X 999      -3.387  -0.906   3.781  1.00  0.00    -0.249 OA
BRANCH  13  15
HETATM   15  O1  LIG X 999      -3.572   1.396   3.654  1.00  0.00    -0.316 OA
HETATM   16  C1  LIG X 999      -4.688   1.472   4.532  1.00  0.00     0.214 C 
ENDBRANCH  13  15
ENDBRANCH  12  13
ENDBRANCH   1  11
TORSDOF 3
