REMARK  4 active torsions:
REMARK  status: ('A' for Active; 'I' for Inactive)
REMARK    1  A    between atoms: C5_5  and  C6_6 
REMARK    2  A    between atoms: C7_7  and  C8_8 
REMARK    3  A    between atoms: C11_13  and  C12_14 
REMARK    4  A    between atoms: C13_18  and  N3_19 
ROOT
HETATM    1  N3  LIG X 999       2.068  -3.578  -2.331  1.00  0.00    -0.025 NA
HETATM    2  N4  LIG X 999       3.208  -3.460  -1.883  1.00  0.00    -0.158 NA
HETATM    3  N5  LIG X 999       4.348  -3.343  -1.434  1.00  0.00     0.068 N 
ENDROOT
BRANCH   1   4
HETATM    4  C13 LIG X 999       1.148  -2.490  -2.275  1.00  0.00     0.301 A 
HETATM    5  N2  LIG X 999      -0.108  -2.545  -2.741  1.00  0.00    -0.236 N 
HETATM    6  N1  LIG X 999      -0.656  -1.361  -2.522  1.00  0.00    -0.149 NA
HETATM    7  H11 LIG X 999      -0.584  -3.354  -3.197  1.00  0.00     0.193 HD
HETATM    8  C12 LIG X 999       0.300  -0.622  -1.914  1.00  0.00     0.182 A 
HETATM    9  O3  LIG X 999       1.414  -1.311  -1.769  1.00  0.00    -0.257 OA
BRANCH   8  10
HETATM   10  C11 LIG X 999       0.127   0.829  -1.508  1.00  0.00     0.054 C 
HETATM   11  C3  LIG X 999      -1.301   1.064  -0.902  1.00  0.00     0.030 C 
HETATM   12  C2  LIG X 999      -1.647   2.538  -0.862  1.00  0.00    -0.021 C 
HETATM   13  C4  LIG X 999      -1.456   0.410   0.487  1.00  0.00     0.027 C 
HETATM   14  C1  LIG X 999      -1.219   3.357  -1.826  1.00  0.00    -0.004 C 
HETATM   15  C15 LIG X 999      -0.296   2.873  -2.867  1.00  0.00    -0.003 C 
HETATM   16  C14 LIG X 999       0.300   1.679  -2.754  1.00  0.00    -0.008 C 
HETATM   17  C5  LIG X 999      -0.356   0.864   1.461  1.00  0.00     0.066 C 
HETATM   18  C9  LIG X 999       1.035   0.567   0.883  1.00  0.00     0.019 C 
HETATM   19  C10 LIG X 999       1.218   1.246  -0.482  1.00  0.00     0.024 C 
BRANCH  17  20
HETATM   20  C6  LIG X 999      -0.517   0.182   2.754  1.00  0.00    -0.090 C 
HETATM   21  C7  LIG X 999      -0.650  -0.378   3.813  1.00  0.00     0.005 C 
BRANCH  21  22
HETATM   22  C8  LIG X 999      -0.807  -1.046   5.073  1.00  0.00     0.258 C 
HETATM   23  O1  LIG X 999      -1.398  -2.155   5.128  1.00  0.00    -0.637 OA
HETATM   24  O2  LIG X 999      -0.308  -0.467   6.232  1.00  0.00    -0.637 OA
ENDBRANCH  21  22
ENDBRANCH  17  20
ENDBRANCH   8  10
ENDBRANCH   1   4
TORSDOF 4
