REMARK  8 active torsions:
REMARK  status: ('A' for Active; 'I' for Inactive)
REMARK    1  A    between atoms: C3_3  and  C4_4 
REMARK    2  A    between atoms: C4_4  and  S1_5 
REMARK    3  A    between atoms: S1_5  and  C5_6 
REMARK    4  A    between atoms: C14_15  and  N1_16 
REMARK       I    between atoms: N1_16  and  C15_17 
REMARK    5  A    between atoms: C15_17  and  C16_19 
REMARK    6  A    between atoms: C16_19  and  C18_21 
REMARK    7  A    between atoms: C18_21  and  C19_22 
REMARK    8  A    between atoms: C19_22  and  O2_23 
ROOT
HETATM    1  C1  LIG X 999      -2.911   1.492  -0.530  1.00  0.00     0.112 C 
HETATM    2  C2  LIG X 999      -2.077   2.137  -1.542  1.00  0.00    -0.110 C 
HETATM    3  C3  LIG X 999      -1.388   2.672  -2.375  1.00  0.00    -0.097 C 
ENDROOT
BRANCH   3   4
HETATM    4  C4  LIG X 999      -0.553   3.333  -3.380  1.00  0.00     0.168 C 
BRANCH   4   5
HETATM    5  S1  LIG X 999       0.262   2.119  -4.478  1.00  0.00    -0.147 SA
BRANCH   5   6
HETATM    6  C5  LIG X 999       1.414   1.275  -3.303  1.00  0.00     0.081 C 
HETATM    7  C6  LIG X 999       2.394   2.251  -2.607  1.00  0.00     0.020 C 
HETATM    8  C7  LIG X 999       2.044   2.533  -1.143  1.00  0.00     0.006 C 
HETATM    9  C8  LIG X 999       1.937   1.231  -0.358  1.00  0.00     0.042 C 
HETATM   10  C9  LIG X 999       0.915   0.303  -0.969  1.00  0.00    -0.021 A 
HETATM   11  C10 LIG X 999       0.691   0.309  -2.376  1.00  0.00    -0.035 A 
HETATM   12  C14 LIG X 999       0.239  -0.638  -0.152  1.00  0.00     0.076 A 
HETATM   13  C11 LIG X 999      -0.174  -0.650  -2.941  1.00  0.00     0.018 A 
HETATM   14  C12 LIG X 999      -0.807  -1.570  -2.111  1.00  0.00    -0.021 A 
HETATM   15  C13 LIG X 999      -0.618  -1.566  -0.763  1.00  0.00     0.005 A 
HETATM   16  C24 LIG X 999      -1.694  -2.681  -2.515  1.00  0.00     0.276 C 
HETATM   17  C21 LIG X 999      -1.353  -2.702  -0.150  1.00  0.00     0.278 C 
HETATM   18  N2  LIG X 999      -1.852  -3.527  -1.294  1.00  0.00    -0.067 N 
HETATM   19  C22 LIG X 999      -3.270  -3.902  -1.095  1.00  0.00     0.272 C 
HETATM   20  C23 LIG X 999      -1.038  -4.760  -1.422  1.00  0.00     0.272 C 
BRANCH  12  21
HETATM   21  N1  LIG X 999       0.499  -0.686   1.257  1.00  0.00    -0.213 NA
HETATM   22  C15 LIG X 999      -0.509  -0.609   2.271  1.00  0.00     0.247 C 
HETATM   23  O1  LIG X 999      -1.708  -0.371   1.963  1.00  0.00    -0.271 OA
BRANCH  22  24
HETATM   24  C16 LIG X 999      -0.123  -0.710   3.721  1.00  0.00     0.078 C 
HETATM   25  C17 LIG X 999       0.559  -2.056   3.986  1.00  0.00     0.020 C 
BRANCH  24  26
HETATM   26  C18 LIG X 999       0.795   0.460   4.141  1.00  0.00     0.040 C 
BRANCH  26  27
HETATM   27  C19 LIG X 999       0.109   1.830   4.037  1.00  0.00     0.167 C 
BRANCH  27  28
HETATM   28  O2  LIG X 999      -0.005   2.207   2.681  1.00  0.00    -0.396 OA
HETATM   29  C20 LIG X 999      -0.715   3.421   2.586  1.00  0.00     0.201 C 
ENDBRANCH  27  28
ENDBRANCH  26  27
ENDBRANCH  24  26
ENDBRANCH  22  24
ENDBRANCH  12  21
ENDBRANCH   5   6
ENDBRANCH   4   5
ENDBRANCH   3   4
TORSDOF 8
