REMARK  6 active torsions:
REMARK  status: ('A' for Active; 'I' for Inactive)
REMARK    1  A    between atoms: O1_2  and  C1_3 
REMARK    2  A    between atoms: C1_3  and  O2_15 
REMARK    3  A    between atoms: N1_4  and  C2_5 
REMARK    4  A    between atoms: C6_10  and  C7_11 
REMARK    5  A    between atoms: O2_15  and  C8_16 
REMARK    6  A    between atoms: C9_17  and  C10_18 
REMARK       I    between atoms: C10_18  and  N3_20 
ROOT
HETATM    1  C10 LIG X 999       2.465  -3.946   0.801  1.00  0.00     0.311 C 
HETATM    2  O3  LIG X 999       3.495  -3.228   0.897  1.00  0.00    -0.263 OA
HETATM    3  N3  LIG X 999       2.624  -5.370   0.755  1.00  0.00    -0.028 NA
HETATM    4  N4  LIG X 999       1.697  -6.125   0.458  1.00  0.00    -0.159 NA
HETATM    5  N5  LIG X 999       0.772  -6.880   0.162  1.00  0.00     0.068 N 
ENDROOT
BRANCH   1   6
HETATM    6  C9  LIG X 999       1.131  -3.299   0.738  1.00  0.00     0.071 A 
HETATM    7  C8  LIG X 999       0.931  -2.145  -0.048  1.00  0.00     0.096 A 
HETATM    8  C18 LIG X 999      -0.341  -1.546  -0.093  1.00  0.00     0.050 A 
HETATM    9  C17 LIG X 999      -1.399  -2.060   0.669  1.00  0.00    -0.023 A 
HETATM   10  C12 LIG X 999      -1.189  -3.197   1.481  1.00  0.00    -0.025 A 
HETATM   11  C16 LIG X 999      -2.666  -1.455   0.633  1.00  0.00     0.012 A 
HETATM   12  C11 LIG X 999       0.072  -3.807   1.509  1.00  0.00     0.032 A 
HETATM   13  C13 LIG X 999      -2.248  -3.707   2.249  1.00  0.00     0.012 A 
HETATM   14  C14 LIG X 999      -3.503  -3.095   2.208  1.00  0.00     0.001 A 
HETATM   15  C15 LIG X 999      -3.712  -1.973   1.402  1.00  0.00     0.001 A 
BRANCH   7  16
HETATM   16  O2  LIG X 999       1.997  -1.644  -0.816  1.00  0.00    -0.272 OA
BRANCH  16  17
HETATM   17  C1  LIG X 999       2.229  -0.289  -1.093  1.00  0.00     0.290 C 
HETATM   18  N1  LIG X 999       1.635   0.637  -0.397  1.00  0.00    -0.200 NA
BRANCH  17  19
HETATM   19  O1  LIG X 999       3.165   0.041  -2.068  1.00  0.00    -0.325 OA
HETATM   20  H1  LIG X 999       3.645  -0.683  -2.588  1.00  0.00     0.221 HD
ENDBRANCH  17  19
BRANCH  18  21
HETATM   21  C2  LIG X 999       1.746   2.060  -0.574  1.00  0.00     0.094 A 
HETATM   22  C3  LIG X 999       1.870   2.635  -1.853  1.00  0.00     0.148 A 
HETATM   23  N2  LIG X 999       1.938   3.984  -1.995  1.00  0.00    -0.271 NA
HETATM   24  C4  LIG X 999       1.878   4.819  -0.927  1.00  0.00     0.117 A 
HETATM   25  C5  LIG X 999       1.721   4.302   0.358  1.00  0.00     0.038 A 
HETATM   26  C6  LIG X 999       1.640   2.911   0.548  1.00  0.00     0.079 A 
BRANCH  26  27
HETATM   27  C7  LIG X 999       1.456   2.328   1.932  1.00  0.00     0.419 C 
HETATM   28  F1  LIG X 999       2.526   1.506   2.235  1.00  0.00    -0.166 F 
HETATM   29  F2  LIG X 999       0.290   1.584   1.970  1.00  0.00    -0.166 F 
HETATM   30  F3  LIG X 999       1.375   3.315   2.900  1.00  0.00    -0.166 F 
ENDBRANCH  26  27
ENDBRANCH  18  21
ENDBRANCH  16  17
ENDBRANCH   7  16
ENDBRANCH   1   6
TORSDOF 6
