REMARK  3 active torsions:
REMARK  status: ('A' for Active; 'I' for Inactive)
REMARK       I    between atoms: N1_2  and  C3_4 
REMARK    1  A    between atoms: C3_4  and  O2_6 
REMARK    2  A    between atoms: O2_6  and  C4_7 
REMARK    3  A    between atoms: C13_16  and  N2_17 
ROOT
HETATM    1  C4  LIG X 999      -0.252   1.085  -0.149  1.00  0.00     0.108 A 
HETATM    2  C5  LIG X 999      -0.737   2.072   0.710  1.00  0.00     0.040 A 
HETATM    3  C6  LIG X 999      -1.255   1.736   1.957  1.00  0.00     0.015 A 
HETATM    4  C7  LIG X 999      -1.323   0.397   2.357  1.00  0.00    -0.024 A 
HETATM    5  C8  LIG X 999      -1.855   0.071   3.614  1.00  0.00     0.012 A 
HETATM    6  C9  LIG X 999      -1.959  -1.261   4.011  1.00  0.00     0.001 A 
HETATM    7  C10 LIG X 999      -1.543  -2.280   3.155  1.00  0.00     0.001 A 
HETATM    8  C11 LIG X 999      -1.009  -1.974   1.901  1.00  0.00     0.014 A 
HETATM    9  C12 LIG X 999      -0.872  -0.631   1.484  1.00  0.00     0.003 A 
HETATM   10  C13 LIG X 999      -0.332  -0.280   0.216  1.00  0.00     0.071 A 
ENDROOT
BRANCH   1  11
HETATM   11  O2  LIG X 999       0.302   1.491  -1.369  1.00  0.00    -0.259 OA
BRANCH  11  12
HETATM   12  C3  LIG X 999       1.612   1.189  -1.764  1.00  0.00     0.367 C 
HETATM   13  N1  LIG X 999       2.050   1.513  -3.094  1.00  0.00    -0.336 N 
HETATM   14  C1  LIG X 999       1.110   2.142  -4.025  1.00  0.00     0.154 C 
HETATM   15  C2  LIG X 999       3.423   1.206  -3.505  1.00  0.00     0.154 C 
HETATM   16  O1  LIG X 999       2.412   0.650  -0.948  1.00  0.00    -0.238 OA
ENDBRANCH  11  12
ENDBRANCH   1  11
BRANCH  10  17
HETATM   17  N2  LIG X 999       0.098  -1.283  -0.719  1.00  0.00    -0.396 N 
HETATM   18  H13 LIG X 999       0.461  -2.211  -0.414  1.00  0.00     0.156 HD
HETATM   19  H14 LIG X 999       0.136  -1.078  -1.742  1.00  0.00     0.156 HD
ENDBRANCH  10  17
TORSDOF 3
