REMARK  6 active torsions:
REMARK  status: ('A' for Active; 'I' for Inactive)
REMARK    1  A    between atoms: C3_3  and  C4_4 
REMARK    2  A    between atoms: C4_4  and  C5_5 
REMARK    3  A    between atoms: C5_5  and  S1_6 
REMARK    4  A    between atoms: S1_6  and  C6_7 
REMARK    5  A    between atoms: N3_19  and  C16_20 
REMARK    6  A    between atoms: C16_20  and  C17_21 
ROOT
HETATM    1  C1  LIG X 999      -1.925  -1.670   1.997  1.00  0.00     0.072 C 
HETATM    2  C2  LIG X 999      -2.746  -1.375   0.778  1.00  0.00     0.047 A 
HETATM    3  C3  LIG X 999      -2.630  -1.950  -0.477  1.00  0.00     0.048 A 
HETATM    4  N1  LIG X 999      -3.456  -1.276  -1.300  1.00  0.00    -0.286 N 
HETATM    5  N2  LIG X 999      -4.045  -0.318  -0.602  1.00  0.00    -0.020 NA
HETATM    6  N3  LIG X 999      -3.636  -0.364   0.657  1.00  0.00    -0.271 N 
HETATM    7  H15 LIG X 999      -3.589  -1.430  -2.324  1.00  0.00     0.184 HD
ENDROOT
BRANCH   3   8
HETATM    8  C4  LIG X 999      -1.670  -3.014  -0.930  1.00  0.00     0.071 C 
BRANCH   8   9
HETATM    9  C5  LIG X 999      -0.228  -2.503  -0.982  1.00  0.00     0.085 C 
BRANCH   9  10
HETATM   10  S1  LIG X 999      -0.075  -1.043  -2.072  1.00  0.00    -0.129 SA
BRANCH  10  11
HETATM   11  C6  LIG X 999       1.666  -0.787  -1.691  1.00  0.00     0.011 A 
HETATM   12  C7  LIG X 999       2.614  -1.336  -2.564  1.00  0.00     0.019 A 
HETATM   13  C8  LIG X 999       3.978  -1.167  -2.329  1.00  0.00     0.002 A 
HETATM   14  C9  LIG X 999       4.417  -0.452  -1.215  1.00  0.00     0.012 A 
HETATM   15  C10 LIG X 999       3.489   0.103  -0.322  1.00  0.00    -0.025 A 
HETATM   16  C11 LIG X 999       3.933   0.809   0.806  1.00  0.00     0.012 A 
HETATM   17  C15 LIG X 999       2.096  -0.058  -0.556  1.00  0.00    -0.009 A 
HETATM   18  C12 LIG X 999       3.012   1.344   1.709  1.00  0.00     0.001 A 
HETATM   19  C13 LIG X 999       1.644   1.183   1.491  1.00  0.00     0.001 A 
HETATM   20  C14 LIG X 999       1.183   0.501   0.363  1.00  0.00     0.013 A 
ENDBRANCH  10  11
ENDBRANCH   9  10
ENDBRANCH   8   9
ENDBRANCH   3   8
BRANCH   6  21
HETATM   21  C16 LIG X 999      -3.978   0.647   1.654  1.00  0.00     0.227 C 
BRANCH  21  22
HETATM   22  C17 LIG X 999      -2.890   1.670   1.741  1.00  0.00     0.160 A 
HETATM   23  N4  LIG X 999      -2.300   2.233   0.654  1.00  0.00    -0.137 NA
HETATM   24  N5  LIG X 999      -1.420   3.080   1.155  1.00  0.00    -0.073 N 
HETATM   25  C18 LIG X 999      -0.548   3.870   0.486  1.00  0.00     0.139 A 
HETATM   26  C21 LIG X 999      -1.484   3.036   2.486  1.00  0.00     0.706 A 
HETATM   27  C19 LIG X 999       0.316   4.671   1.245  1.00  0.00     0.037 A 
HETATM   28  C20 LIG X 999       0.236   4.615   2.653  1.00  0.00     0.107 A 
HETATM   29  N6  LIG X 999      -0.669   3.792   3.264  1.00  0.00    -0.200 N 
HETATM   30  H21 LIG X 999      -0.724   3.742   4.306  1.00  0.00     0.183 HD
HETATM   31  N7  LIG X 999      -2.403   2.158   2.911  1.00  0.00    -0.173 N 
HETATM   32  H22 LIG X 999      -2.669   1.908   3.889  1.00  0.00     0.185 HD
ENDBRANCH  21  22
ENDBRANCH   6  21
TORSDOF 6
