REMARK  4 active torsions:
REMARK  status: ('A' for Active; 'I' for Inactive)
REMARK    1  A    between atoms: C5_5  and  C6_6 
REMARK    2  A    between atoms: C7_7  and  C8_8 
REMARK    3  A    between atoms: C11_13  and  C12_14 
REMARK    4  A    between atoms: C13_17  and  N3_18 
ROOT
HETATM    1  N3  LIG X 999      -2.030   3.758  -1.971  1.00  0.00    -0.023 NA
HETATM    2  N4  LIG X 999      -2.196   3.204  -3.058  1.00  0.00    -0.158 NA
HETATM    3  N5  LIG X 999      -2.362   2.651  -4.144  1.00  0.00     0.068 N 
ENDROOT
BRANCH   1   4
HETATM    4  C13 LIG X 999      -1.733   2.995  -0.803  1.00  0.00     0.326 A 
HETATM    5  N2  LIG X 999      -1.538   3.539   0.410  1.00  0.00    -0.099 NA
HETATM    6  N1  LIG X 999      -1.290   2.525   1.224  1.00  0.00    -0.124 NA
HETATM    7  C12 LIG X 999      -1.337   1.404   0.472  1.00  0.00     0.184 A 
HETATM    8  O3  LIG X 999      -1.618   1.690  -0.779  1.00  0.00    -0.255 OA
BRANCH   7   9
HETATM    9  C11 LIG X 999      -1.143   0.001   1.015  1.00  0.00     0.054 C 
HETATM   10  C3  LIG X 999      -0.797  -0.999  -0.144  1.00  0.00     0.030 C 
HETATM   11  C2  LIG X 999      -0.987  -2.436   0.294  1.00  0.00    -0.021 C 
HETATM   12  C4  LIG X 999       0.620  -0.766  -0.711  1.00  0.00     0.027 C 
HETATM   13  C1  LIG X 999      -1.965  -2.759   1.145  1.00  0.00    -0.004 C 
HETATM   14  C15 LIG X 999      -2.787  -1.710   1.774  1.00  0.00    -0.003 C 
HETATM   15  C14 LIG X 999      -2.442  -0.421   1.681  1.00  0.00    -0.008 C 
HETATM   16  C5  LIG X 999       1.692  -0.787   0.393  1.00  0.00     0.066 C 
HETATM   17  C9  LIG X 999       1.368   0.246   1.482  1.00  0.00     0.019 C 
HETATM   18  C10 LIG X 999      -0.017  -0.016   2.087  1.00  0.00     0.024 C 
BRANCH  16  19
HETATM   19  C6  LIG X 999       3.014  -0.506  -0.187  1.00  0.00    -0.090 C 
HETATM   20  C7  LIG X 999       4.097  -0.275  -0.663  1.00  0.00     0.005 C 
BRANCH  20  21
HETATM   21  C8  LIG X 999       5.386   0.000  -1.230  1.00  0.00     0.258 C 
HETATM   22  O1  LIG X 999       6.186   0.765  -0.632  1.00  0.00    -0.637 OA
HETATM   23  O2  LIG X 999       5.750  -0.578  -2.438  1.00  0.00    -0.637 OA
ENDBRANCH  20  21
ENDBRANCH  16  19
ENDBRANCH   7   9
ENDBRANCH   1   4
TORSDOF 4
