REMARK  1 active torsions:
REMARK  status: ('A' for Active; 'I' for Inactive)
REMARK    1  A    between atoms: C7_7  and  N1_8 
ROOT
HETATM    1  N1  LIG X 999       1.830  -2.688   0.461  1.00  0.00    -0.110 NA
HETATM    2  N2  LIG X 999       2.287  -2.903  -0.664  1.00  0.00    -0.167 NA
HETATM    3  N3  LIG X 999       2.743  -3.116  -1.786  1.00  0.00     0.068 N 
ENDROOT
BRANCH   1   4
HETATM    4  C7  LIG X 999       0.589  -1.939   0.690  1.00  0.00     0.153 C 
HETATM    5  C6  LIG X 999      -0.115  -1.519  -0.619  1.00  0.00     0.031 C 
HETATM    6  C5  LIG X 999      -1.421  -0.779  -0.315  1.00  0.00     0.003 C 
HETATM    7  C4  LIG X 999      -1.161   0.459   0.549  1.00  0.00     0.009 C 
HETATM    8  C3  LIG X 999      -0.440   0.092   1.863  1.00  0.00     0.018 C 
HETATM    9  C2  LIG X 999      -0.119   1.356   2.630  1.00  0.00    -0.021 C 
HETATM   10  C8  LIG X 999       0.861  -0.717   1.599  1.00  0.00     0.043 C 
HETATM   11  C1  LIG X 999       1.031   2.007   2.420  1.00  0.00    -0.004 C 
HETATM   12  C10 LIG X 999       2.053   1.451   1.512  1.00  0.00    -0.004 C 
HETATM   13  C9  LIG X 999       1.953   0.193   1.066  1.00  0.00    -0.019 C 
ENDBRANCH   1   4
TORSDOF 1
