REMARK  6 active torsions:
REMARK  status: ('A' for Active; 'I' for Inactive)
REMARK    1  A    between atoms: O1_2  and  C2_3 
REMARK    2  A    between atoms: C2_3  and  C3_5 
REMARK    3  A    between atoms: C6_9  and  N1_10 
REMARK    4  A    between atoms: N1_10  and  C7_11 
REMARK    5  A    between atoms: C7_11  and  N2_13 
REMARK    6  A    between atoms: N2_13  and  C8_14 
ROOT
HETATM    1  C7  LIG X 999      -2.600   1.696   1.198  1.00  0.00     0.377 C 
HETATM    2  S2  LIG X 999      -3.478   2.542   1.978  1.00  0.00    -0.026 SA
ENDROOT
BRANCH   1   3
HETATM    3  N1  LIG X 999      -1.617   2.303   0.315  1.00  0.00     0.020 N 
HETATM    4  H6  LIG X 999      -1.634   3.350   0.367  1.00  0.00     0.293 HD
HETATM    5  H7  LIG X 999      -0.677   2.001   0.645  1.00  0.00     0.293 HD
BRANCH   3   6
HETATM    6  C6  LIG X 999      -1.849   1.927  -1.061  1.00  0.00     0.164 A 
HETATM    7  C3  LIG X 999      -0.899   1.322  -1.904  1.00  0.00     0.114 A 
HETATM    8  S1  LIG X 999      -1.645   1.020  -3.381  1.00  0.00    -0.094 SA
HETATM    9  C4  LIG X 999      -3.142   1.677  -3.000  1.00  0.00     0.053 A 
HETATM   10  C5  LIG X 999      -3.088   2.142  -1.696  1.00  0.00     0.046 A 
BRANCH   7  11
HETATM   11  C2  LIG X 999       0.512   0.989  -1.637  1.00  0.00     0.302 C 
HETATM   12  O2  LIG X 999       1.157   1.582  -0.730  1.00  0.00    -0.259 OA
BRANCH  11  13
HETATM   13  O1  LIG X 999       1.143   0.028  -2.431  1.00  0.00    -0.322 OA
HETATM   14  C1  LIG X 999       2.495  -0.367  -2.228  1.00  0.00     0.213 C 
ENDBRANCH  11  13
ENDBRANCH   7  11
ENDBRANCH   3   6
ENDBRANCH   1   3
BRANCH   1  15
HETATM   15  N2  LIG X 999      -2.803   0.256   1.211  1.00  0.00     0.018 N 
HETATM   16  H8  LIG X 999      -3.360  -0.003   0.364  1.00  0.00     0.293 HD
HETATM   17  H9  LIG X 999      -3.356  -0.047   2.049  1.00  0.00     0.293 HD
BRANCH  15  18
HETATM   18  C8  LIG X 999      -1.548  -0.458   1.239  1.00  0.00     0.141 A 
HETATM   19  C9  LIG X 999      -1.183  -1.300   0.172  1.00  0.00     0.038 A 
HETATM   20  C10 LIG X 999       0.034  -1.984   0.190  1.00  0.00     0.014 A 
HETATM   21  C11 LIG X 999       0.906  -1.844   1.279  1.00  0.00    -0.026 A 
HETATM   22  C12 LIG X 999       2.136  -2.519   1.301  1.00  0.00     0.012 A 
HETATM   23  C16 LIG X 999       0.542  -1.014   2.367  1.00  0.00    -0.024 A 
HETATM   24  C13 LIG X 999       2.997  -2.372   2.392  1.00  0.00     0.001 A 
HETATM   25  C14 LIG X 999       2.638  -1.554   3.466  1.00  0.00     0.001 A 
HETATM   26  C15 LIG X 999       1.415  -0.876   3.457  1.00  0.00     0.012 A 
HETATM   27  C17 LIG X 999      -0.686  -0.336   2.344  1.00  0.00     0.049 A 
ENDBRANCH  15  18
ENDBRANCH   1  15
TORSDOF 6
