REMARK  1 active torsions:
REMARK  status: ('A' for Active; 'I' for Inactive)
REMARK    1  A    between atoms: C11_13  and  N2_14 
ROOT
HETATM    1  N2  LIG X 999       3.442   0.568   0.149  1.00  0.00    -0.053 NA
HETATM    2  N3  LIG X 999       4.383  -0.212   0.004  1.00  0.00    -0.160 NA
HETATM    3  N4  LIG X 999       5.324  -0.991  -0.141  1.00  0.00     0.068 N 
ENDROOT
BRANCH   1   4
HETATM    4  C11 LIG X 999       2.088   0.118   0.063  1.00  0.00     0.175 A 
HETATM    5  C10 LIG X 999       0.970   0.925   0.213  1.00  0.00     0.026 A 
HETATM    6  C5  LIG X 999      -0.088   0.095   0.056  1.00  0.00     0.017 A 
HETATM    7  C9  LIG X 999       0.774   2.282   0.467  1.00  0.00     0.016 A 
HETATM    8  C4  LIG X 999       0.363  -1.161  -0.179  1.00  0.00     0.046 A 
HETATM    9  C6  LIG X 999      -1.410   0.480   0.126  1.00  0.00     0.005 A 
HETATM   10  C3  LIG X 999      -0.582  -2.271  -0.389  1.00  0.00     0.033 A 
HETATM   11  N5  LIG X 999       1.714  -1.171  -0.179  1.00  0.00    -0.337 N 
HETATM   12  C2  LIG X 999      -1.907  -2.002  -0.340  1.00  0.00     0.034 A 
HETATM   13  C1  LIG X 999      -2.412  -0.612  -0.080  1.00  0.00     0.059 A 
HETATM   14  N1  LIG X 999      -3.689  -0.396  -0.041  1.00  0.00    -0.300 NA
HETATM   15  H1  LIG X 999      -4.106   0.543   0.135  1.00  0.00     0.187 HD
HETATM   16  H7  LIG X 999       2.336  -1.996  -0.334  1.00  0.00     0.167 HD
HETATM   17  C7  LIG X 999      -1.656   1.849   0.383  1.00  0.00     0.015 A 
HETATM   18  C8  LIG X 999      -0.563   2.743   0.552  1.00  0.00     0.002 A 
ENDBRANCH   1   4
TORSDOF 1
