REMARK  1 active torsions:
REMARK  status: ('A' for Active; 'I' for Inactive)
REMARK    1  A    between atoms: C2_5  and  C3_6 
ROOT
HETATM    1  C3  LIG X 999      -0.111  -0.209   0.370  1.00  0.00     0.030 A 
HETATM    2  C4  LIG X 999      -0.344  -0.554  -0.971  1.00  0.00     0.017 A 
HETATM    3  C5  LIG X 999       0.709  -0.902  -1.815  1.00  0.00     0.002 A 
HETATM    4  C6  LIG X 999       2.018  -0.908  -1.341  1.00  0.00     0.012 A 
HETATM    5  C7  LIG X 999       2.290  -0.537  -0.018  1.00  0.00    -0.025 A 
HETATM    6  C8  LIG X 999       3.617  -0.518   0.441  1.00  0.00     0.012 A 
HETATM    7  C9  LIG X 999       3.907  -0.111   1.742  1.00  0.00     0.001 A 
HETATM    8  C10 LIG X 999       2.880   0.294   2.593  1.00  0.00     0.001 A 
HETATM    9  C11 LIG X 999       1.553   0.278   2.155  1.00  0.00     0.013 A 
HETATM   10  C12 LIG X 999       1.228  -0.164   0.853  1.00  0.00    -0.011 A 
ENDROOT
BRANCH   1  11
HETATM   11  C2  LIG X 999      -1.297   0.060   1.216  1.00  0.00     0.203 A 
HETATM   12  O1  LIG X 999      -2.398   0.632   0.772  1.00  0.00    -0.255 OA
HETATM   13  C1  LIG X 999      -3.204   0.642   1.803  1.00  0.00     0.262 A 
HETATM   14  N1  LIG X 999      -4.402   1.130   1.783  1.00  0.00    -0.260 NA
HETATM   15  N3  LIG X 999      -2.631   0.081   2.879  1.00  0.00    -0.238 N 
HETATM   16  H1  LIG X 999      -5.007   1.114   2.633  1.00  0.00     0.190 HD
HETATM   17  N2  LIG X 999      -1.419  -0.299   2.514  1.00  0.00    -0.145 NA
HETATM   18  H9  LIG X 999      -3.042  -0.049   3.831  1.00  0.00     0.193 HD
ENDBRANCH   1  11
TORSDOF 1
