REMARK  1 active torsions:
REMARK  status: ('A' for Active; 'I' for Inactive)
REMARK    1  A    between atoms: N1_2  and  C1_3 
ROOT
HETATM    1  C1  LIG X 999       0.139  -3.034  -0.983  1.00  0.00     0.120 C 
HETATM    2  C2  LIG X 999       1.321  -2.400  -0.600  1.00  0.00     0.057 C 
HETATM    3  C3  LIG X 999       1.288  -1.299   0.267  1.00  0.00    -0.045 C 
HETATM    4  C4  LIG X 999       2.564  -0.499   0.373  1.00  0.00     0.049 C 
HETATM    5  C5  LIG X 999       0.046  -0.921   0.871  1.00  0.00     0.008 C 
HETATM    6  C6  LIG X 999      -0.101   0.034   1.932  1.00  0.00    -0.013 C 
HETATM    7  C7  LIG X 999       0.962   0.427   2.781  1.00  0.00     0.013 C 
HETATM    8  C8  LIG X 999       0.779   1.404   3.762  1.00  0.00     0.001 C 
HETATM    9  C9  LIG X 999      -0.473   1.978   3.958  1.00  0.00     0.001 C 
HETATM   10  C10 LIG X 999      -1.563   1.537   3.212  1.00  0.00     0.012 C 
HETATM   11  C11 LIG X 999      -1.397   0.544   2.232  1.00  0.00    -0.025 C 
HETATM   12  C12 LIG X 999      -2.523   0.021   1.594  1.00  0.00     0.014 C 
HETATM   13  C13 LIG X 999      -2.397  -1.036   0.704  1.00  0.00     0.031 C 
HETATM   14  C14 LIG X 999      -1.134  -1.521   0.343  1.00  0.00     0.045 C 
HETATM   15  N2  LIG X 999      -1.053  -2.560  -0.538  1.00  0.00    -0.341 N 
HETATM   16  H12 LIG X 999      -1.931  -3.013  -0.885  1.00  0.00     0.167 HD
ENDROOT
BRANCH   1  17
HETATM   17  N1  LIG X 999       0.165  -4.045  -1.795  1.00  0.00    -0.284 NA
HETATM   18  H1  LIG X 999       1.055  -4.437  -2.178  1.00  0.00     0.188 HD
ENDBRANCH   1  17
TORSDOF 1
