REMARK  3 active torsions:
REMARK  status: ('A' for Active; 'I' for Inactive)
REMARK    1  A    between atoms: N2_3  and  N3_4 
REMARK    2  A    between atoms: C1_5  and  C2_6 
REMARK    3  A    between atoms: C3_8  and  C4_9 
REMARK       I    between atoms: N4_19  and  C14_20 
ROOT
HETATM    1  C2  LIG X 999       2.500   1.739   0.137  1.00  0.00     0.259 A 
HETATM    2  O1  LIG X 999       1.093   1.849  -0.009  1.00  0.00    -0.335 OA
HETATM    3  C3  LIG X 999       0.509   0.947   0.895  1.00  0.00     0.280 A 
HETATM    4  N4  LIG X 999       1.592   0.355   1.647  1.00  0.00    -0.247 N 
HETATM    5  C14 LIG X 999       1.446  -0.493   2.800  1.00  0.00     0.232 C 
HETATM    6  O2  LIG X 999       2.471  -0.981   3.346  1.00  0.00    -0.272 OA
HETATM    7  C15 LIG X 999       0.096  -0.824   3.359  1.00  0.00     0.119 C 
HETATM    8  N5  LIG X 999       2.836   0.793   1.205  1.00  0.00    -0.199 NA
HETATM    9  H15 LIG X 999       3.274   1.326   1.993  1.00  0.00     0.150 HD
ENDROOT
BRANCH   3  10
HETATM   10  C4  LIG X 999      -0.308  -0.081   0.117  1.00  0.00     0.003 A 
HETATM   11  C5  LIG X 999       0.264  -1.330  -0.207  1.00  0.00     0.012 A 
HETATM   12  C6  LIG X 999      -0.456  -2.292  -0.912  1.00  0.00     0.002 A 
HETATM   13  C7  LIG X 999      -1.756  -2.029  -1.330  1.00  0.00     0.012 A 
HETATM   14  C8  LIG X 999      -2.343  -0.785  -1.069  1.00  0.00    -0.025 A 
HETATM   15  C9  LIG X 999      -3.645  -0.522  -1.526  1.00  0.00     0.012 A 
HETATM   16  C13 LIG X 999      -1.619   0.212  -0.358  1.00  0.00    -0.015 A 
HETATM   17  C10 LIG X 999      -4.231   0.723  -1.302  1.00  0.00     0.001 A 
HETATM   18  C11 LIG X 999      -3.523   1.718  -0.630  1.00  0.00     0.001 A 
HETATM   19  C12 LIG X 999      -2.229   1.473  -0.165  1.00  0.00     0.013 A 
ENDBRANCH   3  10
BRANCH   1  20
HETATM   20  C1  LIG X 999       3.105   1.280  -1.152  1.00  0.00     0.164 C 
HETATM   21  N3  LIG X 999       2.748   0.153  -1.677  1.00  0.00    -0.143 NA
BRANCH  21  22
HETATM   22  N2  LIG X 999       3.300  -0.284  -2.888  1.00  0.00    -0.052 NA
HETATM   23  N1  LIG X 999       2.937  -1.389  -3.400  1.00  0.00    -0.184 NA
HETATM   24  H1  LIG X 999       2.222  -1.991  -2.932  1.00  0.00     0.214 HD
ENDBRANCH  21  22
ENDBRANCH   1  20
TORSDOF 3
