REMARK  3 active torsions:
REMARK  status: ('A' for Active; 'I' for Inactive)
REMARK    1  A    between atoms: C6_6  and  C7_7 
REMARK    2  A    between atoms: C7_7  and  C8_9 
REMARK    3  A    between atoms: C8_9  and  N1_10 
ROOT
HETATM    1  N1  LIG X 999      -1.723   4.147   1.631  1.00  0.00    -0.108 NA
HETATM    2  N2  LIG X 999      -0.855   5.019   1.580  1.00  0.00    -0.167 NA
HETATM    3  N3  LIG X 999       0.013   5.889   1.529  1.00  0.00     0.068 N 
ENDROOT
BRANCH   1   4
HETATM    4  C8  LIG X 999      -1.504   2.833   1.038  1.00  0.00     0.272 C 
BRANCH   4   5
HETATM    5  C7  LIG X 999      -0.441   2.061   1.780  1.00  0.00     0.181 C 
HETATM    6  O1  LIG X 999      -0.171   2.381   2.970  1.00  0.00    -0.290 OA
BRANCH   5   7
HETATM    7  C6  LIG X 999       0.256   0.902   1.162  1.00  0.00     0.012 A 
HETATM    8  C5  LIG X 999       1.431   0.395   1.749  1.00  0.00     0.027 A 
HETATM    9  C4  LIG X 999       2.102  -0.699   1.181  1.00  0.00    -0.025 A 
HETATM   10  C3  LIG X 999       3.276  -1.200   1.764  1.00  0.00     0.012 A 
HETATM   11  C11 LIG X 999       1.591  -1.303   0.008  1.00  0.00    -0.026 A 
HETATM   12  C2  LIG X 999       3.936  -2.290   1.190  1.00  0.00     0.001 A 
HETATM   13  C1  LIG X 999       3.430  -2.887   0.032  1.00  0.00     0.001 A 
HETATM   14  C12 LIG X 999       2.262  -2.398  -0.559  1.00  0.00     0.012 A 
HETATM   15  C10 LIG X 999       0.418  -0.804  -0.573  1.00  0.00     0.013 A 
HETATM   16  C9  LIG X 999      -0.243   0.286  -0.002  1.00  0.00     0.016 A 
ENDBRANCH   5   7
ENDBRANCH   4   5
ENDBRANCH   1   4
TORSDOF 3
