REMARK  5 active torsions:
REMARK  status: ('A' for Active; 'I' for Inactive)
REMARK    1  A    between atoms: O1_2  and  C1_3 
REMARK    2  A    between atoms: C1_3  and  O4_19 
REMARK       I    between atoms: N1_4  and  C2_5 
REMARK    3  A    between atoms: C2_5  and  C3_7 
REMARK    4  A    between atoms: C4_8  and  O3_9 
REMARK    5  A    between atoms: O4_19  and  C13_20 
ROOT
HETATM    1  C3  LIG X 999       0.352  -1.577   0.286  1.00  0.00     0.068 A 
HETATM    2  C4  LIG X 999       1.169  -0.431   0.208  1.00  0.00     0.082 A 
HETATM    3  C5  LIG X 999       1.968  -0.064   1.301  1.00  0.00     0.049 A 
HETATM    4  C6  LIG X 999       1.978  -0.842   2.467  1.00  0.00    -0.023 A 
HETATM    5  C7  LIG X 999       2.779  -0.479   3.562  1.00  0.00     0.012 A 
HETATM    6  C8  LIG X 999       2.784  -1.265   4.717  1.00  0.00     0.001 A 
HETATM    7  C9  LIG X 999       1.994  -2.416   4.789  1.00  0.00     0.001 A 
HETATM    8  C10 LIG X 999       1.194  -2.788   3.705  1.00  0.00     0.012 A 
HETATM    9  C11 LIG X 999       1.179  -2.006   2.539  1.00  0.00    -0.025 A 
HETATM   10  C12 LIG X 999       0.377  -2.368   1.447  1.00  0.00     0.032 A 
ENDROOT
BRANCH   1  11
HETATM   11  C2  LIG X 999      -0.509  -1.985  -0.850  1.00  0.00     0.283 C 
HETATM   12  N1  LIG X 999      -1.255  -1.037  -1.627  1.00  0.00    -0.162 NA
HETATM   13  C1  LIG X 999      -1.823   0.041  -1.170  1.00  0.00     0.289 C 
HETATM   14  O2  LIG X 999      -0.562  -3.202  -1.171  1.00  0.00    -0.265 OA
BRANCH  13  15
HETATM   15  O1  LIG X 999      -1.812   0.324   0.194  1.00  0.00    -0.325 OA
HETATM   16  H1  LIG X 999      -2.259   1.160   0.550  1.00  0.00     0.221 HD
ENDBRANCH  13  15
BRANCH  13  17
HETATM   17  O4  LIG X 999      -2.483   0.926  -2.035  1.00  0.00    -0.294 OA
BRANCH  17  18
HETATM   18  C13 LIG X 999      -2.523   0.818  -3.462  1.00  0.00     0.224 C 
HETATM   19 CL1  LIG X 999      -3.257  -0.728  -3.977  1.00  0.00    -0.095 Cl
HETATM   20  C14 LIG X 999      -1.135   0.998  -4.074  1.00  0.00     0.057 C 
ENDBRANCH  17  18
ENDBRANCH  13  17
ENDBRANCH   1  11
BRANCH   2  21
HETATM   21  O3  LIG X 999       1.202   0.333  -0.959  1.00  0.00    -0.360 OA
HETATM   22  H2  LIG X 999       1.783   1.159  -1.039  1.00  0.00     0.217 HD
ENDBRANCH   2  21
TORSDOF 5
