REMARK  7 active torsions:
REMARK  status: ('A' for Active; 'I' for Inactive)
REMARK    1  A    between atoms: O1_2  and  N1_3 
REMARK    2  A    between atoms: C1_4  and  C2_5 
REMARK    3  A    between atoms: C1_4  and  N2_12 
REMARK    4  A    between atoms: C9_13  and  C10_14 
REMARK    5  A    between atoms: C10_14  and  O2_15 
REMARK    6  A    between atoms: O2_15  and  C11_16 
REMARK    7  A    between atoms: C21_26  and  C22_27 
ROOT
HETATM    1  N2  LIG X 999       1.574   1.395  -0.907  1.00  0.00    -0.219 N 
HETATM    2  C9  LIG X 999       0.400   1.468  -0.247  1.00  0.00     0.088 A 
HETATM    3  C21 LIG X 999       0.526   2.510   0.660  1.00  0.00     0.082 A 
HETATM    4  N3  LIG X 999       1.757   3.043   0.520  1.00  0.00    -0.161 NA
HETATM    5  N4  LIG X 999       2.364   2.342  -0.426  1.00  0.00    -0.211 N 
HETATM    6  H23 LIG X 999       3.332   2.536  -0.766  1.00  0.00     0.211 HD
ENDROOT
BRANCH   2   7
HETATM    7  C10 LIG X 999      -0.808   0.602  -0.491  1.00  0.00     0.237 C 
BRANCH   7   8
HETATM    8  O2  LIG X 999      -1.275   0.030   0.731  1.00  0.00    -0.344 OA
BRANCH   8   9
HETATM    9  C11 LIG X 999      -0.582  -0.919   1.504  1.00  0.00     0.080 A 
HETATM   10  C12 LIG X 999       0.571  -1.568   1.022  1.00  0.00     0.037 A 
HETATM   11  C13 LIG X 999       1.246  -2.499   1.813  1.00  0.00     0.004 A 
HETATM   12  C14 LIG X 999       0.783  -2.804   3.092  1.00  0.00     0.012 A 
HETATM   13  C15 LIG X 999      -0.365  -2.178   3.594  1.00  0.00    -0.023 A 
HETATM   14  C16 LIG X 999      -0.834  -2.483   4.881  1.00  0.00     0.012 A 
HETATM   15  C20 LIG X 999      -1.057  -1.229   2.796  1.00  0.00     0.007 A 
HETATM   16  C17 LIG X 999      -1.977  -1.854   5.380  1.00  0.00     0.001 A 
HETATM   17  C18 LIG X 999      -2.660  -0.919   4.601  1.00  0.00     0.001 A 
HETATM   18  C19 LIG X 999      -2.207  -0.605   3.318  1.00  0.00     0.015 A 
ENDBRANCH   8   9
ENDBRANCH   7   8
ENDBRANCH   2   7
BRANCH   1  19
HETATM   19  C1  LIG X 999       1.924   0.524  -1.994  1.00  0.00     0.187 C 
HETATM   20  N1  LIG X 999       2.915  -0.312  -1.876  1.00  0.00    -0.115 NA
BRANCH  20  21
HETATM   21  O1  LIG X 999       3.647  -0.479  -0.717  1.00  0.00    -0.264 OA
HETATM   22  H1  LIG X 999       3.413  -0.004   0.146  1.00  0.00     0.247 HD
ENDBRANCH  20  21
BRANCH  19  23
HETATM   23  C2  LIG X 999       1.175   0.593  -3.276  1.00  0.00     0.014 A 
HETATM   24  C3  LIG X 999       0.375   1.711  -3.577  1.00  0.00     0.016 A 
HETATM   25  C4  LIG X 999      -0.337   1.772  -4.778  1.00  0.00     0.007 A 
HETATM   26  C5  LIG X 999      -0.250   0.726  -5.707  1.00  0.00    -0.062 A 
HETATM   27  C6  LIG X 999      -1.046   0.775  -6.978  1.00  0.00     0.048 C 
HETATM   28  C7  LIG X 999       0.536  -0.395  -5.409  1.00  0.00     0.007 A 
HETATM   29  C8  LIG X 999       1.249  -0.459  -4.208  1.00  0.00     0.016 A 
ENDBRANCH  19  23
ENDBRANCH   1  19
BRANCH   3  30
HETATM   30  C22 LIG X 999      -0.525   3.067   1.573  1.00  0.00     0.059 C 
HETATM   31  C23 LIG X 999      -1.411   4.061   0.834  1.00  0.00     0.011 C 
ENDBRANCH   3  30
TORSDOF 7
