REMARK  4 active torsions:
REMARK  status: ('A' for Active; 'I' for Inactive)
REMARK    1  A    between atoms: C3_3  and  O1_4 
REMARK    2  A    between atoms: O1_4  and  C4_5 
REMARK    3  A    between atoms: C4_5  and  O2_6 
REMARK    4  A    between atoms: C5_8  and  C6_9 
ROOT
HETATM    1  C1  LIG X 999      -1.589  -3.653   1.486  1.00  0.00     0.014 C 
HETATM    2  C2  LIG X 999      -0.584  -3.097   1.852  1.00  0.00    -0.091 C 
HETATM    3  C3  LIG X 999       0.636  -2.420   2.294  1.00  0.00     0.270 C 
ENDROOT
BRANCH   3   4
HETATM    4  O1  LIG X 999       0.555  -1.044   1.952  1.00  0.00    -0.319 OA
BRANCH   4   5
HETATM    5  C4  LIG X 999       1.590  -0.142   2.216  1.00  0.00     0.179 C 
HETATM    6  C5  LIG X 999       1.474   1.139   1.844  1.00  0.00     0.075 C 
BRANCH   5   7
HETATM    7  O2  LIG X 999       2.739  -0.579   2.877  1.00  0.00    -0.341 OA
HETATM    8  H4  LIG X 999       3.509   0.047   3.086  1.00  0.00     0.220 HD
ENDBRANCH   5   7
BRANCH   6   9
HETATM    9  C6  LIG X 999       0.263   1.668   1.178  1.00  0.00    -0.021 A 
HETATM   10  C7  LIG X 999      -0.441   2.690   1.832  1.00  0.00     0.012 A 
HETATM   11  C8  LIG X 999      -1.619   3.204   1.290  1.00  0.00     0.002 A 
HETATM   12  C9  LIG X 999      -2.109   2.715   0.080  1.00  0.00     0.012 A 
HETATM   13  C10 LIG X 999      -1.410   1.718  -0.614  1.00  0.00    -0.025 A 
HETATM   14  C11 LIG X 999      -1.895   1.249  -1.845  1.00  0.00     0.012 A 
HETATM   15  C15 LIG X 999      -0.203   1.192  -0.078  1.00  0.00    -0.015 A 
HETATM   16  C12 LIG X 999      -1.187   0.280  -2.557  1.00  0.00     0.001 A 
HETATM   17  C13 LIG X 999       0.015  -0.220  -2.054  1.00  0.00     0.001 A 
HETATM   18  C14 LIG X 999       0.510   0.234  -0.830  1.00  0.00     0.013 A 
ENDBRANCH   6   9
ENDBRANCH   4   5
ENDBRANCH   3   4
TORSDOF 4
