REMARK  4 active torsions:
REMARK  status: ('A' for Active; 'I' for Inactive)
REMARK    1  A    between atoms: C3_3  and  O1_4 
REMARK    2  A    between atoms: O1_4  and  C4_5 
REMARK    3  A    between atoms: C4_5  and  O2_6 
REMARK    4  A    between atoms: C5_8  and  C6_9 
ROOT
HETATM    1  C1  LIG X 999      -0.736  -3.003  -6.939  1.00  0.00     0.014 C 
HETATM    2  C2  LIG X 999      -0.586  -2.653  -5.796  1.00  0.00    -0.091 C 
HETATM    3  C3  LIG X 999      -0.404  -2.229  -4.407  1.00  0.00     0.266 C 
ENDROOT
BRANCH   3   4
HETATM    4  O1  LIG X 999       0.573  -1.215  -4.365  1.00  0.00    -0.319 OA
BRANCH   4   5
HETATM    5  C4  LIG X 999       0.716  -0.799  -3.028  1.00  0.00     0.314 A 
HETATM    6  O3  LIG X 999       1.161   0.534  -2.949  1.00  0.00    -0.312 OA
HETATM    7  C5  LIG X 999      -0.155   0.280  -2.501  1.00  0.00     0.254 A 
BRANCH   5   8
HETATM    8  O2  LIG X 999       1.432  -1.628  -2.153  1.00  0.00    -0.341 OA
HETATM    9  H4  LIG X 999       2.321  -1.756  -2.573  1.00  0.00     0.215 HD
ENDBRANCH   5   8
BRANCH   7  10
HETATM   10  C6  LIG X 999      -0.271   0.380  -1.008  1.00  0.00    -0.021 A 
HETATM   11  C7  LIG X 999      -0.950  -0.618  -0.295  1.00  0.00     0.011 A 
HETATM   12  C8  LIG X 999      -1.093  -0.524   1.092  1.00  0.00     0.013 A 
HETATM   13  C9  LIG X 999      -0.569   0.579   1.782  1.00  0.00    -0.026 A 
HETATM   14  C10 LIG X 999      -0.707   0.684   3.174  1.00  0.00     0.012 A 
HETATM   15  C14 LIG X 999       0.102   1.600   1.064  1.00  0.00    -0.025 A 
HETATM   16  C11 LIG X 999      -0.184   1.791   3.849  1.00  0.00     0.001 A 
HETATM   17  C12 LIG X 999       0.476   2.799   3.142  1.00  0.00     0.001 A 
HETATM   18  C13 LIG X 999       0.620   2.707   1.754  1.00  0.00     0.012 A 
HETATM   19  C15 LIG X 999       0.240   1.496  -0.328  1.00  0.00     0.022 A 
ENDBRANCH   7  10
ENDBRANCH   4   5
ENDBRANCH   3   4
TORSDOF 4
