REMARK  6 active torsions:
REMARK  status: ('A' for Active; 'I' for Inactive)
REMARK    1  A    between atoms: O1_2  and  C2_3 
REMARK    2  A    between atoms: C2_3  and  C3_5 
REMARK    3  A    between atoms: C6_9  and  N1_10 
REMARK    4  A    between atoms: N1_10  and  C7_11 
REMARK    5  A    between atoms: C7_11  and  N2_13 
REMARK    6  A    between atoms: N2_13  and  C8_14 
ROOT
HETATM    1  C7  LIG X 999       0.668   2.574   0.304  1.00  0.00     0.278 C 
HETATM    2  S2  LIG X 999      -0.856   3.170   0.153  1.00  0.00    -0.033 SA
ENDROOT
BRANCH   1   3
HETATM    3  N1  LIG X 999       1.785   3.449   0.060  1.00  0.00     0.012 N 
HETATM    4  H6  LIG X 999       2.039   3.915   0.962  1.00  0.00     0.293 HD
HETATM    5  H7  LIG X 999       1.532   4.197  -0.625  1.00  0.00     0.293 HD
BRANCH   3   6
HETATM    6  C6  LIG X 999       2.909   2.704  -0.451  1.00  0.00     0.164 A 
HETATM    7  C3  LIG X 999       2.981   2.147  -1.738  1.00  0.00     0.114 A 
HETATM    8  S1  LIG X 999       4.444   1.322  -1.858  1.00  0.00    -0.094 SA
HETATM    9  C4  LIG X 999       4.998   1.656  -0.309  1.00  0.00     0.053 A 
HETATM   10  C5  LIG X 999       4.039   2.421   0.338  1.00  0.00     0.046 A 
BRANCH   7  11
HETATM   11  C2  LIG X 999       1.985   2.210  -2.823  1.00  0.00     0.302 C 
HETATM   12  O2  LIG X 999       2.194   1.572  -3.891  1.00  0.00    -0.259 OA
BRANCH  11  13
HETATM   13  O1  LIG X 999       0.820   2.967  -2.679  1.00  0.00    -0.322 OA
HETATM   14  C1  LIG X 999      -0.192   3.019  -3.676  1.00  0.00     0.213 C 
ENDBRANCH  11  13
ENDBRANCH   7  11
ENDBRANCH   3   6
ENDBRANCH   1   3
BRANCH   1  15
HETATM   15  N2  LIG X 999       0.869   1.343   1.018  1.00  0.00    -0.327 N 
HETATM   16  H8  LIG X 999       1.635   1.310   1.727  1.00  0.00     0.168 HD
BRANCH  15  17
HETATM   17  C8  LIG X 999       0.113   0.145   0.771  1.00  0.00     0.035 A 
HETATM   18  C9  LIG X 999      -0.500  -0.089  -0.473  1.00  0.00     0.030 A 
HETATM   19  C10 LIG X 999      -1.208  -1.271  -0.705  1.00  0.00     0.014 A 
HETATM   20  C11 LIG X 999      -1.304  -2.244   0.299  1.00  0.00    -0.026 A 
HETATM   21  C12 LIG X 999      -2.012  -3.436   0.076  1.00  0.00     0.012 A 
HETATM   22  C16 LIG X 999      -0.674  -2.027   1.548  1.00  0.00    -0.024 A 
HETATM   23  C13 LIG X 999      -2.095  -4.401   1.084  1.00  0.00     0.001 A 
HETATM   24  C14 LIG X 999      -1.473  -4.186   2.316  1.00  0.00     0.001 A 
HETATM   25  C15 LIG X 999      -0.764  -3.005   2.550  1.00  0.00     0.012 A 
HETATM   26  C17 LIG X 999       0.035  -0.837   1.770  1.00  0.00     0.041 A 
ENDBRANCH  15  17
ENDBRANCH   1  15
TORSDOF 6
