REMARK  2 active torsions:
REMARK  status: ('A' for Active; 'I' for Inactive)
REMARK    1  A    between atoms: N1_1  and  C1_2 
REMARK    2  A    between atoms: C2_5  and  C3_6 
ROOT
HETATM    1  C3  LIG X 999      -0.482  -0.395   0.605  1.00  0.00     0.030 A 
HETATM    2  C4  LIG X 999       0.131  -0.564  -0.649  1.00  0.00     0.017 A 
HETATM    3  C5  LIG X 999      -0.505  -1.269  -1.669  1.00  0.00     0.002 A 
HETATM    4  C6  LIG X 999      -1.766  -1.820  -1.462  1.00  0.00     0.012 A 
HETATM    5  C7  LIG X 999      -2.419  -1.648  -0.234  1.00  0.00    -0.025 A 
HETATM    6  C8  LIG X 999      -3.702  -2.186  -0.047  1.00  0.00     0.012 A 
HETATM    7  C9  LIG X 999      -4.379  -1.991   1.156  1.00  0.00     0.001 A 
HETATM    8  C10 LIG X 999      -3.789  -1.247   2.176  1.00  0.00     0.001 A 
HETATM    9  C11 LIG X 999      -2.512  -0.707   2.010  1.00  0.00     0.013 A 
HETATM   10  C12 LIG X 999      -1.790  -0.917   0.813  1.00  0.00    -0.011 A 
ENDROOT
BRANCH   1  11
HETATM   11  C2  LIG X 999       0.298   0.294   1.662  1.00  0.00     0.205 A 
HETATM   12  N3  LIG X 999       1.202   1.266   1.418  1.00  0.00    -0.119 NA
HETATM   13  N2  LIG X 999       1.715   1.610   2.590  1.00  0.00    -0.103 NA
HETATM   14  C1  LIG X 999       1.105   0.828   3.498  1.00  0.00     0.265 A 
HETATM   15  O1  LIG X 999       0.241   0.016   2.944  1.00  0.00    -0.255 OA
BRANCH  14  16
HETATM   16  N1  LIG X 999       1.372   0.878   4.896  1.00  0.00    -0.362 N 
HETATM   17  H1  LIG X 999       2.076   1.549   5.275  1.00  0.00     0.159 HD
HETATM   18  H2  LIG X 999       0.864   0.242   5.550  1.00  0.00     0.159 HD
ENDBRANCH  14  16
ENDBRANCH   1  11
TORSDOF 2
