REMARK  5 active torsions:
REMARK  status: ('A' for Active; 'I' for Inactive)
REMARK    1  A    between atoms: C6_6  and  O1_7 
REMARK    2  A    between atoms: O1_7  and  C7_8 
REMARK    3  A    between atoms: C7_8  and  C8_9 
REMARK    4  A    between atoms: C8_9  and  C9_10 
REMARK    5  A    between atoms: C9_10  and  N1_11 
ROOT
HETATM    1  N1  LIG X 999       5.785  -0.789  -0.627  1.00  0.00    -0.116 NA
HETATM    2  N2  LIG X 999       6.939  -0.379  -0.497  1.00  0.00    -0.168 NA
HETATM    3  N3  LIG X 999       8.092   0.030  -0.368  1.00  0.00     0.068 N 
ENDROOT
BRANCH   1   4
HETATM    4  C9  LIG X 999       4.657   0.039  -0.229  1.00  0.00     0.191 C 
BRANCH   4   5
HETATM    5  C8  LIG X 999       3.351  -0.710  -0.497  1.00  0.00     0.051 C 
BRANCH   5   6
HETATM    6  C7  LIG X 999       2.140   0.128  -0.092  1.00  0.00     0.177 C 
BRANCH   6   7
HETATM    7  O1  LIG X 999       0.948  -0.606  -0.358  1.00  0.00    -0.351 OA
BRANCH   7   8
HETATM    8  C6  LIG X 999      -0.348  -0.134  -0.105  1.00  0.00     0.069 A 
HETATM    9  C5  LIG X 999      -1.430  -0.966  -0.417  1.00  0.00     0.049 A 
HETATM   10  C4  LIG X 999      -2.747  -0.543  -0.185  1.00  0.00    -0.023 A 
HETATM   11  C3  LIG X 999      -3.833  -1.377  -0.498  1.00  0.00     0.012 A 
HETATM   12  C12 LIG X 999      -2.985   0.737   0.370  1.00  0.00    -0.026 A 
HETATM   13  C2  LIG X 999      -5.141  -0.945  -0.262  1.00  0.00     0.001 A 
HETATM   14  C1  LIG X 999      -5.375   0.319   0.286  1.00  0.00     0.001 A 
HETATM   15  C13 LIG X 999      -4.304   1.159   0.602  1.00  0.00     0.012 A 
HETATM   16  C11 LIG X 999      -1.901   1.569   0.682  1.00  0.00     0.015 A 
HETATM   17  C10 LIG X 999      -0.593   1.139   0.447  1.00  0.00     0.037 A 
ENDBRANCH   7   8
ENDBRANCH   6   7
ENDBRANCH   5   6
ENDBRANCH   4   5
ENDBRANCH   1   4
TORSDOF 5
