REMARK  3 active torsions:
REMARK  status: ('A' for Active; 'I' for Inactive)
REMARK    1  A    between atoms: O1_2  and  C1_3 
REMARK    2  A    between atoms: C1_3  and  C3_8 
REMARK    3  A    between atoms: C2_4  and  N1_5 
ROOT
HETATM    1  N1  LIG X 999      -4.470   0.770   0.654  1.00  0.00    -0.082 NA
HETATM    2  N2  LIG X 999      -5.286  -0.020   1.128  1.00  0.00    -0.163 NA
HETATM    3  N3  LIG X 999      -6.102  -0.809   1.601  1.00  0.00     0.068 N 
ENDROOT
BRANCH   1   4
HETATM    4  C2  LIG X 999      -3.069   0.571   0.846  1.00  0.00     0.193 C 
HETATM    5  C1  LIG X 999      -2.172   1.436   0.344  1.00  0.00     0.096 C 
BRANCH   5   6
HETATM    6  O1  LIG X 999      -2.595   2.571  -0.355  1.00  0.00    -0.358 OA
HETATM    7  H1  LIG X 999      -3.570   2.788  -0.519  1.00  0.00     0.217 HD
ENDBRANCH   5   6
BRANCH   5   8
HETATM    8  C3  LIG X 999      -0.712   1.234   0.530  1.00  0.00    -0.001 A 
HETATM    9  C4  LIG X 999       0.131   2.356   0.607  1.00  0.00     0.015 A 
HETATM   10  C5  LIG X 999       1.510   2.204   0.771  1.00  0.00     0.013 A 
HETATM   11  C6  LIG X 999       2.075   0.924   0.852  1.00  0.00    -0.026 A 
HETATM   12  C7  LIG X 999       3.459   0.762   1.016  1.00  0.00     0.012 A 
HETATM   13  C11 LIG X 999       1.241  -0.215   0.760  1.00  0.00    -0.025 A 
HETATM   14  C8  LIG X 999       4.011  -0.520   1.087  1.00  0.00     0.001 A 
HETATM   15  C9  LIG X 999       3.189  -1.646   0.994  1.00  0.00     0.001 A 
HETATM   16  C10 LIG X 999       1.808  -1.497   0.831  1.00  0.00     0.012 A 
HETATM   17  C12 LIG X 999      -0.144  -0.054   0.596  1.00  0.00     0.026 A 
ENDBRANCH   5   8
ENDBRANCH   1   4
TORSDOF 3
