REMARK  5 active torsions:
REMARK  status: ('A' for Active; 'I' for Inactive)
REMARK    1  A    between atoms: O1_2  and  S1_3 
REMARK    2  A    between atoms: S1_3  and  C1_4 
REMARK    3  A    between atoms: S1_3  and  C11_14 
REMARK    4  A    between atoms: C11_14  and  C12_15 
REMARK    5  A    between atoms: C12_15  and  N1_16 
ROOT
HETATM    1  N1  LIG X 999       4.006   0.580  -0.205  1.00  0.00    -0.115 NA
HETATM    2  N2  LIG X 999       4.407   1.539  -0.865  1.00  0.00    -0.168 NA
HETATM    3  N3  LIG X 999       4.807   2.497  -1.524  1.00  0.00     0.068 N 
ENDROOT
BRANCH   1   4
HETATM    4  C12 LIG X 999       3.179  -0.449  -0.820  1.00  0.00     0.201 C 
BRANCH   4   5
HETATM    5  C11 LIG X 999       2.812  -1.517   0.207  1.00  0.00     0.121 C 
BRANCH   5   6
HETATM    6  S1  LIG X 999       1.816  -0.835   1.523  1.00  0.00    -0.056 S 
BRANCH   6   7
HETATM    7  O1  LIG X 999       1.490  -1.976   2.713  1.00  0.00    -0.336 OA
HETATM    8  H1  LIG X 999       0.986  -2.691   2.248  1.00  0.00     0.227 HD
ENDBRANCH   6   7
BRANCH   6   9
HETATM    9  C1  LIG X 999       0.340  -0.095   0.930  1.00  0.00     0.017 A 
HETATM   10  C2  LIG X 999       0.138   1.279   1.093  1.00  0.00     0.021 A 
HETATM   11  C3  LIG X 999      -1.028   1.882   0.612  1.00  0.00     0.013 A 
HETATM   12  C4  LIG X 999      -2.003   1.112  -0.038  1.00  0.00    -0.026 A 
HETATM   13  C5  LIG X 999      -3.178   1.706  -0.526  1.00  0.00     0.012 A 
HETATM   14  C9  LIG X 999      -1.800  -0.280  -0.206  1.00  0.00    -0.025 A 
HETATM   15  C6  LIG X 999      -4.141   0.927  -1.174  1.00  0.00     0.001 A 
HETATM   16  C7  LIG X 999      -3.940  -0.447  -1.340  1.00  0.00     0.001 A 
HETATM   17  C8  LIG X 999      -2.775  -1.051  -0.859  1.00  0.00     0.012 A 
HETATM   18  C10 LIG X 999      -0.626  -0.875   0.281  1.00  0.00     0.032 A 
ENDBRANCH   6   9
ENDBRANCH   5   6
ENDBRANCH   4   5
ENDBRANCH   1   4
TORSDOF 5
