REMARK  3 active torsions:
REMARK  status: ('A' for Active; 'I' for Inactive)
REMARK    1  A    between atoms: C3_3  and  C4_4 
REMARK    2  A    between atoms: C4_4  and  S1_5 
REMARK    3  A    between atoms: S1_5  and  C5_6 
ROOT
HETATM    1  C1  LIG X 999       5.879  -0.538  -0.058  1.00  0.00     0.112 C 
HETATM    2  C2  LIG X 999       4.462  -0.185   0.025  1.00  0.00    -0.110 C 
HETATM    3  C3  LIG X 999       3.294   0.106   0.093  1.00  0.00    -0.097 C 
ENDROOT
BRANCH   3   4
HETATM    4  C4  LIG X 999       1.877   0.459   0.176  1.00  0.00     0.173 C 
BRANCH   4   5
HETATM    5  S1  LIG X 999       1.113   0.265  -1.464  1.00  0.00    -0.117 SA
BRANCH   5   6
HETATM    6  C5  LIG X 999      -0.524   0.753  -0.891  1.00  0.00     0.012 A 
HETATM    7  C6  LIG X 999      -0.862   2.111  -0.952  1.00  0.00     0.019 A 
HETATM    8  C7  LIG X 999      -2.115   2.552  -0.524  1.00  0.00     0.002 A 
HETATM    9  C8  LIG X 999      -3.049   1.642  -0.031  1.00  0.00     0.012 A 
HETATM   10  C9  LIG X 999      -2.737   0.276   0.037  1.00  0.00    -0.025 A 
HETATM   11  C10 LIG X 999      -3.680  -0.638   0.533  1.00  0.00     0.012 A 
HETATM   12  C14 LIG X 999      -1.464  -0.183  -0.397  1.00  0.00    -0.009 A 
HETATM   13  C11 LIG X 999      -3.372  -1.998   0.601  1.00  0.00     0.001 A 
HETATM   14  C12 LIG X 999      -2.125  -2.457   0.177  1.00  0.00     0.001 A 
HETATM   15  C13 LIG X 999      -1.175  -1.560  -0.320  1.00  0.00     0.013 A 
ENDBRANCH   5   6
ENDBRANCH   4   5
ENDBRANCH   3   4
TORSDOF 3
