REMARK  0 active torsions:
REMARK  status: ('A' for Active; 'I' for Inactive)
ROOT
HETATM    1  C1  LIG X 999      -1.158   0.785  -0.018  1.00  0.00     0.000 A 
HETATM    2  C2  LIG X 999      -1.259  -0.610  -0.005  1.00  0.00     0.000 A 
HETATM    3  C3  LIG X 999      -0.102  -1.395   0.014  1.00  0.00     0.000 A 
HETATM    4  C4  LIG X 999       1.158  -0.785   0.018  1.00  0.00     0.000 A 
HETATM    5  C5  LIG X 999       1.259   0.610   0.005  1.00  0.00     0.000 A 
HETATM    6  C6  LIG X 999       0.102   1.395  -0.014  1.00  0.00     0.000 A 
ENDROOT
TORSDOF 0
