REMARK  1 active torsions:
REMARK  status: ('A' for Active; 'I' for Inactive)
REMARK    1  A    between atoms: N1_2  and  C1_3 
ROOT
HETATM    1  C1  LIG X 999      -2.220  -0.162  -1.855  1.00  0.00     0.120 C 
HETATM    2  C2  LIG X 999      -2.141   1.027  -1.137  1.00  0.00     0.057 C 
HETATM    3  C3  LIG X 999      -1.181   1.185  -0.128  1.00  0.00    -0.045 C 
HETATM    4  C4  LIG X 999      -1.374   2.367   0.791  1.00  0.00     0.049 C 
HETATM    5  C5  LIG X 999      -0.190   0.169   0.061  1.00  0.00     0.008 C 
HETATM    6  C6  LIG X 999       0.970   0.290   0.898  1.00  0.00    -0.013 C 
HETATM    7  C7  LIG X 999       1.497   1.532   1.325  1.00  0.00     0.013 C 
HETATM    8  C8  LIG X 999       2.595   1.593   2.187  1.00  0.00     0.001 C 
HETATM    9  C9  LIG X 999       3.226   0.425   2.604  1.00  0.00     0.001 C 
HETATM   10  C10 LIG X 999       2.798  -0.807   2.117  1.00  0.00     0.012 C 
HETATM   11  C11 LIG X 999       1.705  -0.882   1.238  1.00  0.00    -0.025 C 
HETATM   12  C12 LIG X 999       1.381  -2.109   0.657  1.00  0.00     0.014 C 
HETATM   13  C13 LIG X 999       0.377  -2.189  -0.298  1.00  0.00     0.031 C 
HETATM   14  C14 LIG X 999      -0.403  -1.070  -0.612  1.00  0.00     0.045 C 
HETATM   15  N2  LIG X 999      -1.383  -1.191  -1.555  1.00  0.00    -0.341 N 
HETATM   16  H12 LIG X 999      -1.496  -2.098  -2.064  1.00  0.00     0.167 HD
ENDROOT
BRANCH   1  17
HETATM   17  N1  LIG X 999      -3.122  -0.292  -2.777  1.00  0.00    -0.284 NA
HETATM   18  H1  LIG X 999      -3.230  -1.172  -3.330  1.00  0.00     0.188 HD
ENDBRANCH   1  17
TORSDOF 1
