REMARK  7 active torsions:
REMARK  status: ('A' for Active; 'I' for Inactive)
REMARK    1  A    between atoms: O1_2  and  N1_3 
REMARK    2  A    between atoms: C1_4  and  C2_5 
REMARK    3  A    between atoms: C1_4  and  N2_12 
REMARK    4  A    between atoms: C9_15  and  C10_16 
REMARK    5  A    between atoms: C12_18  and  C13_19 
REMARK    6  A    between atoms: C13_19  and  O2_20 
REMARK    7  A    between atoms: O2_20  and  C14_21 
ROOT
HETATM    1  N2  LIG X 999       1.260   2.285   2.209  1.00  0.00    -0.218 N 
HETATM    2  N3  LIG X 999       1.824   3.193   2.990  1.00  0.00     0.011 NA
HETATM    3  N4  LIG X 999       2.413   4.130   2.262  1.00  0.00    -0.162 NA
HETATM    4  C9  LIG X 999       2.205   3.814   0.967  1.00  0.00     0.078 A 
HETATM    5  C12 LIG X 999       1.472   2.643   0.924  1.00  0.00     0.084 A 
ENDROOT
BRANCH   5   6
HETATM    6  C13 LIG X 999       0.981   1.907  -0.291  1.00  0.00     0.236 C 
BRANCH   6   7
HETATM    7  O2  LIG X 999      -0.385   1.542  -0.097  1.00  0.00    -0.344 OA
BRANCH   7   8
HETATM    8  C14 LIG X 999      -1.165   0.814  -1.011  1.00  0.00     0.080 A 
HETATM    9  C15 LIG X 999      -0.640   0.374  -2.241  1.00  0.00     0.037 A 
HETATM   10  C16 LIG X 999      -1.442  -0.327  -3.144  1.00  0.00     0.004 A 
HETATM   11  C17 LIG X 999      -2.776  -0.604  -2.838  1.00  0.00     0.012 A 
HETATM   12  C18 LIG X 999      -3.320  -0.186  -1.615  1.00  0.00    -0.023 A 
HETATM   13  C19 LIG X 999      -4.663  -0.460  -1.304  1.00  0.00     0.012 A 
HETATM   14  C23 LIG X 999      -2.511   0.524  -0.690  1.00  0.00     0.007 A 
HETATM   15  C20 LIG X 999      -5.203  -0.035  -0.089  1.00  0.00     0.001 A 
HETATM   16  C21 LIG X 999      -4.408   0.660   0.826  1.00  0.00     0.001 A 
HETATM   17  C22 LIG X 999      -3.070   0.936   0.534  1.00  0.00     0.015 A 
ENDBRANCH   7   8
ENDBRANCH   6   7
ENDBRANCH   5   6
BRANCH   1  18
HETATM   18  C1  LIG X 999       0.542   1.140   2.704  1.00  0.00     0.184 C 
HETATM   19  N1  LIG X 999      -0.402   1.293   3.585  1.00  0.00    -0.115 NA
BRANCH  19  20
HETATM   20  O1  LIG X 999      -0.770   2.536   4.052  1.00  0.00    -0.264 OA
HETATM   21  H1  LIG X 999      -1.509   2.620   4.740  1.00  0.00     0.247 HD
ENDBRANCH  19  20
BRANCH  18  22
HETATM   22  C2  LIG X 999       0.887  -0.226   2.237  1.00  0.00     0.014 A 
HETATM   23  C3  LIG X 999      -0.066  -1.264   2.280  1.00  0.00     0.016 A 
HETATM   24  C4  LIG X 999       0.265  -2.550   1.839  1.00  0.00     0.007 A 
HETATM   25  C5  LIG X 999       1.548  -2.819   1.338  1.00  0.00    -0.062 A 
HETATM   26  C6  LIG X 999       1.908  -4.210   0.898  1.00  0.00     0.048 C 
HETATM   27  C7  LIG X 999       2.510  -1.795   1.319  1.00  0.00     0.007 A 
HETATM   28  C8  LIG X 999       2.183  -0.511   1.766  1.00  0.00     0.016 A 
ENDBRANCH  18  22
ENDBRANCH   1  18
BRANCH   4  29
HETATM   29  C10 LIG X 999       2.734   4.615  -0.189  1.00  0.00     0.058 C 
HETATM   30  C11 LIG X 999       3.992   3.972  -0.768  1.00  0.00     0.011 C 
ENDBRANCH   4  29
TORSDOF 7
