REMARK  1 active torsions:
REMARK  status: ('A' for Active; 'I' for Inactive)
REMARK    1  A    between atoms: C11_13  and  N2_14 
ROOT
HETATM    1  N2  LIG X 999       3.441   0.570   0.149  1.00  0.00    -0.053 NA
HETATM    2  N3  LIG X 999       4.384  -0.208   0.004  1.00  0.00    -0.160 NA
HETATM    3  N4  LIG X 999       5.326  -0.986  -0.140  1.00  0.00     0.068 N 
ENDROOT
BRANCH   1   4
HETATM    4  C11 LIG X 999       2.088   0.118   0.063  1.00  0.00     0.175 A 
HETATM    5  C10 LIG X 999       0.968   0.923   0.212  1.00  0.00     0.026 A 
HETATM    6  C5  LIG X 999      -0.086   0.089   0.055  1.00  0.00     0.017 A 
HETATM    7  C9  LIG X 999       0.765   2.280   0.467  1.00  0.00     0.016 A 
HETATM    8  C4  LIG X 999       0.365  -1.166  -0.180  1.00  0.00     0.046 A 
HETATM    9  C6  LIG X 999      -1.406   0.471   0.125  1.00  0.00     0.005 A 
HETATM   10  C3  LIG X 999      -0.582  -2.276  -0.390  1.00  0.00     0.033 A 
HETATM   11  N5  LIG X 999       1.717  -1.173  -0.180  1.00  0.00    -0.337 N 
HETATM   12  C2  LIG X 999      -1.908  -2.006  -0.341  1.00  0.00     0.034 A 
HETATM   13  C1  LIG X 999      -2.407  -0.609  -0.079  1.00  0.00     0.059 A 
HETATM   14  N1  LIG X 999      -3.675  -0.352  -0.032  1.00  0.00    -0.300 NA
HETATM   15  H1  LIG X 999      -4.393  -1.097  -0.173  1.00  0.00     0.187 HD
HETATM   16  H7  LIG X 999       2.340  -1.997  -0.334  1.00  0.00     0.167 HD
HETATM   17  C7  LIG X 999      -1.663   1.835   0.380  1.00  0.00     0.015 A 
HETATM   18  C8  LIG X 999      -0.575   2.736   0.551  1.00  0.00     0.002 A 
ENDBRANCH   1   4
TORSDOF 1
