REMARK  3 active torsions:
REMARK  status: ('A' for Active; 'I' for Inactive)
REMARK    1  A    between atoms: C7_9  and  C8_10 
REMARK    2  A    between atoms: C9_13  and  N4_14 
REMARK    3  A    between atoms: N7_23  and  C14_24 
ROOT
HETATM    1  N4  LIG X 999      -3.917   3.722  -2.672  1.00  0.00    -0.023 NA
HETATM    2  N5  LIG X 999      -3.001   4.171  -3.362  1.00  0.00    -0.158 NA
HETATM    3  N6  LIG X 999      -2.087   4.620  -4.052  1.00  0.00     0.068 N 
ENDROOT
BRANCH   1   4
HETATM    4  C9  LIG X 999      -3.648   2.809  -1.610  1.00  0.00     0.326 A 
HETATM    5  N3  LIG X 999      -4.601   2.277  -0.827  1.00  0.00    -0.099 NA
HETATM    6  N2  LIG X 999      -3.968   1.490   0.028  1.00  0.00    -0.119 NA
HETATM    7  C8  LIG X 999      -2.655   1.569  -0.275  1.00  0.00     0.205 A 
HETATM    8  O1  LIG X 999      -2.452   2.389  -1.279  1.00  0.00    -0.252 OA
BRANCH   7   9
HETATM    9  C7  LIG X 999      -1.592   0.867   0.472  1.00  0.00     0.032 A 
HETATM   10  C6  LIG X 999      -0.391   0.393  -0.142  1.00  0.00     0.020 A 
HETATM   11  C1  LIG X 999      -0.033   0.341  -1.598  1.00  0.00     0.060 A 
HETATM   12  C5  LIG X 999       0.564  -0.138   0.707  1.00  0.00     0.019 A 
HETATM   13  N1  LIG X 999      -0.903   0.615  -2.516  1.00  0.00    -0.299 NA
HETATM   14  C2  LIG X 999       1.338  -0.138  -1.988  1.00  0.00     0.034 A 
HETATM   15  H1  LIG X 999      -0.675   0.549  -3.533  1.00  0.00     0.187 HD
HETATM   16  C3  LIG X 999       2.208  -0.599  -1.065  1.00  0.00     0.033 A 
HETATM   17  C4  LIG X 999       1.783  -0.618   0.345  1.00  0.00     0.048 A 
HETATM   18  N7  LIG X 999       2.444  -1.056   1.445  1.00  0.00    -0.324 N 
HETATM   19  C13 LIG X 999       1.610  -0.825   2.496  1.00  0.00     0.193 A 
HETATM   20  C12 LIG X 999       0.426  -0.259   2.051  1.00  0.00     0.032 A 
HETATM   21  O2  LIG X 999       1.918  -1.114   3.821  1.00  0.00    -0.171 OA
HETATM   22  C11 LIG X 999      -0.738   0.154   2.687  1.00  0.00     0.018 A 
HETATM   23  C10 LIG X 999      -1.754   0.718   1.884  1.00  0.00     0.018 A 
BRANCH  18  24
HETATM   24  C14 LIG X 999       3.806  -1.584   1.508  1.00  0.00     0.127 C 
HETATM   25  C15 LIG X 999       4.812  -0.443   1.597  1.00  0.00     0.027 C 
ENDBRANCH  18  24
ENDBRANCH   7   9
ENDBRANCH   1   4
TORSDOF 3
