REMARK  2 active torsions:
REMARK  status: ('A' for Active; 'I' for Inactive)
REMARK    1  A    between atoms: C10_12  and  N3_13 
REMARK       I    between atoms: N3_13  and  C11_14 
REMARK    2  A    between atoms: C11_14  and  C12_16 
ROOT
HETATM    1  C1  LIG X 999       1.789   2.071   4.116  1.00  0.00     0.272 C 
HETATM    2  N1  LIG X 999       1.826   2.035   2.636  1.00  0.00    -0.067 N 
HETATM    3  C2  LIG X 999       2.917   2.920   2.160  1.00  0.00     0.272 C 
HETATM    4  C3  LIG X 999       0.517   2.482   2.063  1.00  0.00     0.276 C 
HETATM    5  C4  LIG X 999       0.145   1.453   1.069  1.00  0.00    -0.024 A 
HETATM    6  C5  LIG X 999      -0.942   1.460   0.194  1.00  0.00     0.021 A 
HETATM    7  C6  LIG X 999      -1.128   0.357  -0.661  1.00  0.00    -0.024 A 
HETATM    8  C7  LIG X 999      -2.209   0.318  -1.551  1.00  0.00     0.037 A 
HETATM    9  C8  LIG X 999      -2.391  -0.783  -2.397  1.00  0.00     0.074 A 
HETATM   10  C9  LIG X 999      -3.516  -0.794  -3.300  1.00  0.00     0.102 C 
HETATM   11  N2  LIG X 999      -4.418  -0.802  -4.025  1.00  0.00    -0.191 NA
HETATM   12  C10 LIG X 999      -1.480  -1.857  -2.375  1.00  0.00     0.082 A 
HETATM   13  C13 LIG X 999      -0.407  -1.834  -1.465  1.00  0.00     0.045 A 
HETATM   14  C14 LIG X 999      -0.217  -0.736  -0.614  1.00  0.00    -0.023 A 
HETATM   15  C15 LIG X 999       0.861  -0.709   0.292  1.00  0.00     0.021 A 
HETATM   16  C16 LIG X 999       1.014   0.406   1.117  1.00  0.00    -0.024 A 
HETATM   17  C17 LIG X 999       2.050   0.637   2.147  1.00  0.00     0.276 C 
ENDROOT
BRANCH  12  18
HETATM   18  N3  LIG X 999      -1.700  -2.984  -3.240  1.00  0.00    -0.210 NA
HETATM   19  C11 LIG X 999      -0.703  -3.888  -3.731  1.00  0.00     0.276 C 
HETATM   20  O1  LIG X 999       0.521  -3.589  -3.673  1.00  0.00    -0.268 OA
BRANCH  19  21
HETATM   21  C12 LIG X 999      -1.126  -5.159  -4.393  1.00  0.00     0.272 C 
HETATM   22 CL1  LIG X 999      -0.740  -5.098  -6.130  1.00  0.00    -0.098 Cl
HETATM   23 CL2  LIG X 999      -0.295  -6.548  -3.648  1.00  0.00    -0.098 Cl
ENDBRANCH  19  21
ENDBRANCH  12  18
TORSDOF 2
