REMARK  3 active torsions:
REMARK  status: ('A' for Active; 'I' for Inactive)
REMARK    1  A    between atoms: C7_9  and  C8_10 
REMARK    2  A    between atoms: C9_13  and  N4_14 
REMARK    3  A    between atoms: N7_23  and  C14_24 
ROOT
HETATM    1  N4  LIG X 999      -3.120  -4.232   1.993  1.00  0.00    -0.023 NA
HETATM    2  N5  LIG X 999      -3.193  -3.527   3.000  1.00  0.00    -0.158 NA
HETATM    3  N6  LIG X 999      -3.267  -2.823   4.005  1.00  0.00     0.068 N 
ENDROOT
BRANCH   1   4
HETATM    4  C9  LIG X 999      -2.387  -3.796   0.850  1.00  0.00     0.326 A 
HETATM    5  N3  LIG X 999      -2.276  -4.514  -0.281  1.00  0.00    -0.099 NA
HETATM    6  N2  LIG X 999      -1.530  -3.785  -1.097  1.00  0.00    -0.119 NA
HETATM    7  C8  LIG X 999      -1.225  -2.652  -0.433  1.00  0.00     0.205 A 
HETATM    8  O1  LIG X 999      -1.743  -2.658   0.772  1.00  0.00    -0.252 OA
BRANCH   7   9
HETATM    9  C7  LIG X 999      -0.368  -1.580  -0.979  1.00  0.00     0.032 A 
HETATM   10  C6  LIG X 999      -0.548  -0.199  -0.659  1.00  0.00     0.020 A 
HETATM   11  C1  LIG X 999      -1.663   0.456   0.103  1.00  0.00     0.060 A 
HETATM   12  C5  LIG X 999       0.405   0.675  -1.152  1.00  0.00     0.019 A 
HETATM   13  N1  LIG X 999      -2.721  -0.205   0.449  1.00  0.00    -0.299 NA
HETATM   14  C2  LIG X 999      -1.583   1.933   0.375  1.00  0.00     0.034 A 
HETATM   15  H1  LIG X 999      -3.518   0.248   0.949  1.00  0.00     0.187 HD
HETATM   16  C3  LIG X 999      -0.579   2.683  -0.125  1.00  0.00     0.033 A 
HETATM   17  C4  LIG X 999       0.446   2.018  -0.946  1.00  0.00     0.048 A 
HETATM   18  N7  LIG X 999       1.522   2.543  -1.583  1.00  0.00    -0.324 N 
HETATM   19  C13 LIG X 999       2.151   1.491  -2.178  1.00  0.00     0.193 A 
HETATM   20  C12 LIG X 999       1.460   0.317  -1.924  1.00  0.00     0.032 A 
HETATM   21  O2  LIG X 999       3.321   1.595  -2.921  1.00  0.00    -0.171 OA
HETATM   22  C11 LIG X 999       1.655  -1.008  -2.292  1.00  0.00     0.018 A 
HETATM   23  C10 LIG X 999       0.727  -1.960  -1.815  1.00  0.00     0.018 A 
BRANCH  18  24
HETATM   24  C14 LIG X 999       1.971   3.934  -1.565  1.00  0.00     0.127 C 
HETATM   25  C15 LIG X 999       2.819   4.200  -0.328  1.00  0.00     0.027 C 
ENDBRANCH  18  24
ENDBRANCH   7   9
ENDBRANCH   1   4
TORSDOF 3
