REMARK  5 active torsions:
REMARK  status: ('A' for Active; 'I' for Inactive)
REMARK    1  A    between atoms: C3_3  and  O1_4 
REMARK    2  A    between atoms: O1_4  and  C4_5 
REMARK    3  A    between atoms: C5_6  and  C6_7 
REMARK    4  A    between atoms: C12_14  and  N1_15 
REMARK    5  A    between atoms: C15_21  and  N3_22 
ROOT
HETATM    1  C1  LIG X 999       4.569  -0.159  -3.684  1.00  0.00     0.014 C 
HETATM    2  C2  LIG X 999       3.456  -0.066  -3.232  1.00  0.00    -0.091 C 
HETATM    3  C3  LIG X 999       2.104   0.047  -2.683  1.00  0.00     0.268 C 
ENDROOT
BRANCH   3   4
HETATM    4  O1  LIG X 999       2.188   0.380  -1.301  1.00  0.00    -0.339 OA
BRANCH   4   5
HETATM    5  C4  LIG X 999       1.086   0.569  -0.450  1.00  0.00     0.085 A 
HETATM    6  C5  LIG X 999       1.320   0.903   0.923  1.00  0.00     0.050 A 
HETATM    7  C7  LIG X 999       0.192   1.083   1.742  1.00  0.00     0.044 A 
HETATM    8  C8  LIG X 999      -1.055   0.944   1.233  1.00  0.00     0.021 A 
HETATM    9  C15 LIG X 999      -0.051   1.421   3.161  1.00  0.00     0.198 A 
HETATM   10  C9  LIG X 999      -1.974   1.164   2.203  1.00  0.00     0.071 A 
HETATM   11  C13 LIG X 999      -1.353   0.624  -0.077  1.00  0.00     0.006 A 
HETATM   12  C10 LIG X 999      -3.334   1.076   1.920  1.00  0.00     0.035 A 
HETATM   13  N2  LIG X 999      -1.329   1.470   3.438  1.00  0.00    -0.225 NA
HETATM   14  C11 LIG X 999      -3.711   0.753   0.597  1.00  0.00     0.032 A 
HETATM   15  C12 LIG X 999      -2.733   0.523  -0.415  1.00  0.00     0.037 A 
HETATM   16  C14 LIG X 999      -0.252   0.432  -0.939  1.00  0.00     0.052 A 
BRANCH   6  17
HETATM   17  C6  LIG X 999       2.684   1.056   1.478  1.00  0.00     0.273 C 
HETATM   18  O2  LIG X 999       3.709   0.898   0.763  1.00  0.00    -0.301 OA
ENDBRANCH   6  17
BRANCH  15  19
HETATM   19  N1  LIG X 999      -3.171   0.198  -1.741  1.00  0.00    -0.398 N 
HETATM   20  H7  LIG X 999      -4.190   0.132  -1.956  1.00  0.00     0.156 HD
HETATM   21  H8  LIG X 999      -2.508   0.019  -2.524  1.00  0.00     0.156 HD
ENDBRANCH  15  19
BRANCH   9  22
HETATM   22  N3  LIG X 999       0.965   1.670   4.134  1.00  0.00    -0.051 NA
HETATM   23  N4  LIG X 999       0.679   1.946   5.299  1.00  0.00    -0.160 NA
HETATM   24  N5  LIG X 999       0.394   2.222   6.464  1.00  0.00     0.068 N 
ENDBRANCH   9  22
ENDBRANCH   4   5
ENDBRANCH   3   4
TORSDOF 5
