REMARK  3 active torsions:
REMARK  status: ('A' for Active; 'I' for Inactive)
REMARK    1  A    between atoms: C6_6  and  C7_7 
REMARK    2  A    between atoms: C7_7  and  N1_8 
REMARK    3  A    between atoms: C8_12  and  N4_13 
ROOT
HETATM    1  N1  LIG X 999       1.396   0.989   0.992  1.00  0.00    -0.065 NA
HETATM    2  N2  LIG X 999       1.135   0.235   1.929  1.00  0.00    -0.164 NA
HETATM    3  N3  LIG X 999       0.873  -0.518   2.866  1.00  0.00     0.068 N 
ENDROOT
BRANCH   1   4
HETATM    4  C7  LIG X 999       1.599   0.461  -0.351  1.00  0.00     0.267 A 
HETATM    5  O1  LIG X 999       2.707  -0.408  -0.417  1.00  0.00    -0.314 OA
HETATM    6  C8  LIG X 999       2.841   0.838  -1.066  1.00  0.00     0.349 A 
BRANCH   4   7
HETATM    7  C6  LIG X 999       0.409  -0.035  -1.117  1.00  0.00     0.007 A 
HETATM    8  C5  LIG X 999      -0.099  -1.321  -0.883  1.00  0.00     0.024 A 
HETATM    9  C4  LIG X 999      -1.228  -1.774  -1.582  1.00  0.00    -0.025 A 
HETATM   10  C3  LIG X 999      -1.739  -3.062  -1.359  1.00  0.00     0.012 A 
HETATM   11  C11 LIG X 999      -1.859  -0.923  -2.522  1.00  0.00    -0.026 A 
HETATM   12  C2  LIG X 999      -2.865  -3.502  -2.062  1.00  0.00     0.001 A 
HETATM   13  C1  LIG X 999      -3.487  -2.662  -2.989  1.00  0.00     0.001 A 
HETATM   14  C12 LIG X 999      -2.989  -1.377  -3.220  1.00  0.00     0.012 A 
HETATM   15  C10 LIG X 999      -1.352   0.366  -2.742  1.00  0.00     0.013 A 
HETATM   16  C9  LIG X 999      -0.227   0.807  -2.040  1.00  0.00     0.013 A 
ENDBRANCH   4   7
BRANCH   6  17
HETATM   17  N4  LIG X 999       3.757   1.692  -0.328  1.00  0.00    -0.077 NA
HETATM   18  N5  LIG X 999       3.963   2.846  -0.701  1.00  0.00    -0.165 NA
HETATM   19  N6  LIG X 999       4.170   4.000  -1.074  1.00  0.00     0.068 N 
ENDBRANCH   6  17
ENDBRANCH   1   4
TORSDOF 3
