REMARK  3 active torsions:
REMARK  status: ('A' for Active; 'I' for Inactive)
REMARK    1  A    between atoms: C5_5  and  N1_6 
REMARK    2  A    between atoms: C6_9  and  N4_10 
REMARK    3  A    between atoms: C8_15  and  N7_16 
ROOT
HETATM    1  N1  LIG X 999       0.427  -0.065   3.166  1.00  0.00    -0.069 NA
HETATM    2  N2  LIG X 999       0.421   0.932   3.889  1.00  0.00    -0.162 NA
HETATM    3  N3  LIG X 999       0.419   1.928   4.612  1.00  0.00     0.068 N 
ENDROOT
BRANCH   1   4
HETATM    4  C5  LIG X 999      -0.022  -0.021   1.801  1.00  0.00     0.137 C 
HETATM    5  C4  LIG X 999       0.700  -0.738   0.820  1.00  0.00     0.011 A 
HETATM    6  C3  LIG X 999       1.758  -1.595   1.190  1.00  0.00     0.015 A 
HETATM    7  C9  LIG X 999       0.368  -0.596  -0.555  1.00  0.00     0.010 A 
HETATM    8  C2  LIG X 999       2.447  -2.330   0.227  1.00  0.00     0.001 A 
HETATM    9  C1  LIG X 999       2.090  -2.233  -1.115  1.00  0.00     0.001 A 
HETATM   10  C10 LIG X 999       1.056  -1.382  -1.506  1.00  0.00     0.015 A 
HETATM   11  C8  LIG X 999      -0.661   0.302  -0.935  1.00  0.00     0.128 C 
HETATM   12  C7  LIG X 999      -1.431   0.932   0.054  1.00  0.00     0.100 C 
HETATM   13  C6  LIG X 999      -1.147   0.749   1.415  1.00  0.00     0.149 C 
HETATM   14 CL1  LIG X 999      -2.782   1.965  -0.421  1.00  0.00    -0.079 Cl
BRANCH  11  15
HETATM   15  N7  LIG X 999      -0.963   0.589  -2.310  1.00  0.00    -0.070 NA
HETATM   16  N8  LIG X 999      -0.084   0.862  -3.129  1.00  0.00    -0.162 NA
HETATM   17  N9  LIG X 999       0.792   1.137  -3.947  1.00  0.00     0.068 N 
ENDBRANCH  11  15
BRANCH  13  18
HETATM   18  N4  LIG X 999      -2.045   1.325   2.376  1.00  0.00    -0.068 NA
HETATM   19  N5  LIG X 999      -2.360   0.738   3.413  1.00  0.00    -0.162 NA
HETATM   20  N6  LIG X 999      -2.679   0.152   4.447  1.00  0.00     0.068 N 
ENDBRANCH  13  18
ENDBRANCH   1   4
TORSDOF 3
