REMARK  3 active torsions:
REMARK  status: ('A' for Active; 'I' for Inactive)
REMARK    1  A    between atoms: C3_3  and  S1_4 
REMARK    2  A    between atoms: S1_4  and  C4_7 
REMARK    3  A    between atoms: C6_9  and  N1_10 
ROOT
HETATM    1  C1  LIG X 999      -3.168  -1.355  -4.907  1.00  0.00     0.013 C 
HETATM    2  C2  LIG X 999      -1.984  -1.309  -4.689  1.00  0.00    -0.102 C 
HETATM    3  C3  LIG X 999      -0.545  -1.249  -4.423  1.00  0.00     0.233 C 
ENDROOT
BRANCH   3   4
HETATM    4  S1  LIG X 999      -0.249  -0.701  -2.750  1.00  0.00     0.160 S 
HETATM    5  O1  LIG X 999       1.233  -0.568  -2.539  1.00  0.00    -0.227 OA
HETATM    6  O2  LIG X 999      -0.773  -1.758  -1.818  1.00  0.00    -0.227 OA
BRANCH   4   7
HETATM    7  C4  LIG X 999      -1.089   0.866  -2.404  1.00  0.00     0.123 C 
HETATM    8  C5  LIG X 999      -0.806   1.944  -3.469  1.00  0.00     0.055 C 
HETATM    9  C6  LIG X 999       0.637   2.511  -3.423  1.00  0.00     0.170 C 
HETATM   10  C7  LIG X 999       1.255   2.526  -2.043  1.00  0.00     0.011 C 
HETATM   11  C8  LIG X 999       0.684   1.965  -0.966  1.00  0.00    -0.050 C 
HETATM   12  C9  LIG X 999       1.439   1.884   0.307  1.00  0.00     0.017 C 
HETATM   13  C13 LIG X 999      -0.750   1.447  -1.016  1.00  0.00     0.060 C 
HETATM   14  C10 LIG X 999       0.955   1.121   1.286  1.00  0.00    -0.024 C 
HETATM   15  C11 LIG X 999      -0.272   0.394   1.173  1.00  0.00    -0.027 C 
HETATM   16  C17 LIG X 999       1.565   0.848   2.607  1.00  0.00     0.276 C 
HETATM   17  C12 LIG X 999      -1.076   0.483   0.111  1.00  0.00    -0.007 C 
HETATM   18  C14 LIG X 999      -0.491  -0.393   2.407  1.00  0.00     0.275 C 
HETATM   19  N4  LIG X 999       0.778  -0.283   3.196  1.00  0.00    -0.067 N 
HETATM   20  C15 LIG X 999       1.550  -1.544   3.083  1.00  0.00     0.272 C 
HETATM   21  C16 LIG X 999       0.484  -0.026   4.624  1.00  0.00     0.272 C 
BRANCH   9  22
HETATM   22  N1  LIG X 999       1.516   1.762  -4.316  1.00  0.00    -0.106 NA
HETATM   23  N2  LIG X 999       1.381   1.818  -5.539  1.00  0.00    -0.167 NA
HETATM   24  N3  LIG X 999       1.246   1.873  -6.760  1.00  0.00     0.068 N 
ENDBRANCH   9  22
ENDBRANCH   4   7
ENDBRANCH   3   4
TORSDOF 3
