REMARK  4 active torsions:
REMARK  status: ('A' for Active; 'I' for Inactive)
REMARK    1  A    between atoms: C3_3  and  O1_4 
REMARK    2  A    between atoms: O1_4  and  C4_5 
REMARK    3  A    between atoms: C4_5  and  O2_6 
REMARK    4  A    between atoms: C5_8  and  C6_9 
ROOT
HETATM    1  C1  LIG X 999      -5.431  -0.908   2.272  1.00  0.00     0.014 C 
HETATM    2  C2  LIG X 999      -4.401  -0.934   1.647  1.00  0.00    -0.091 C 
HETATM    3  C3  LIG X 999      -3.150  -0.966   0.888  1.00  0.00     0.270 C 
ENDROOT
BRANCH   3   4
HETATM    4  O1  LIG X 999      -2.137  -1.579   1.681  1.00  0.00    -0.319 OA
BRANCH   4   5
HETATM    5  C4  LIG X 999      -0.810  -1.792   1.270  1.00  0.00     0.179 C 
HETATM    6  C5  LIG X 999      -0.363  -1.411   0.060  1.00  0.00     0.075 C 
BRANCH   5   7
HETATM    7  O2  LIG X 999       0.062  -2.400   2.169  1.00  0.00    -0.341 OA
HETATM    8  H4  LIG X 999      -0.258  -2.686   3.086  1.00  0.00     0.220 HD
ENDBRANCH   5   7
BRANCH   6   9
HETATM    9  C6  LIG X 999       1.030  -1.639  -0.396  1.00  0.00    -0.021 A 
HETATM   10  C7  LIG X 999       1.580  -2.930  -0.300  1.00  0.00     0.012 A 
HETATM   11  C8  LIG X 999       2.868  -3.196  -0.765  1.00  0.00     0.002 A 
HETATM   12  C9  LIG X 999       3.628  -2.183  -1.345  1.00  0.00     0.012 A 
HETATM   13  C10 LIG X 999       3.106  -0.888  -1.465  1.00  0.00    -0.025 A 
HETATM   14  C11 LIG X 999       3.878   0.127  -2.053  1.00  0.00     0.012 A 
HETATM   15  C15 LIG X 999       1.796  -0.602  -0.991  1.00  0.00    -0.015 A 
HETATM   16  C12 LIG X 999       3.369   1.421  -2.167  1.00  0.00     0.001 A 
HETATM   17  C13 LIG X 999       2.090   1.715  -1.695  1.00  0.00     0.001 A 
HETATM   18  C14 LIG X 999       1.308   0.717  -1.108  1.00  0.00     0.013 A 
ENDBRANCH   6   9
ENDBRANCH   4   5
ENDBRANCH   3   4
TORSDOF 4
