REMARK  14 active torsions:
REMARK  status: ('A' for Active; 'I' for Inactive)
REMARK    1  A    between atoms: C3_3  and  O1_4 
REMARK    2  A    between atoms: O1_4  and  C4_5 
REMARK    3  A    between atoms: C4_5  and  O2_6 
REMARK    4  A    between atoms: C4_5  and  O3_8 
REMARK    5  A    between atoms: C4_5  and  C5_10 
REMARK    6  A    between atoms: C5_10  and  S1_11 
REMARK    7  A    between atoms: C5_10  and  C13_24 
REMARK    8  A    between atoms: S1_11  and  C6_12 
REMARK    9  A    between atoms: C6_12  and  C7_13 
REMARK   10  A    between atoms: C8_14  and  O4_15 
REMARK   11  A    between atoms: C8_14  and  N1_17 
REMARK   12  A    between atoms: N1_17  and  C9_19 
REMARK   13  A    between atoms: C9_19  and  C10_20 
REMARK   14  A    between atoms: C10_20  and  C12_22 
ROOT
HETATM    1  C1  LIG X 999       6.725  -2.246   2.334  1.00  0.00     0.014 C 
HETATM    2  C2  LIG X 999       5.821  -1.467   2.513  1.00  0.00    -0.091 C 
HETATM    3  C3  LIG X 999       4.731  -0.510   2.726  1.00  0.00     0.266 C 
ENDROOT
BRANCH   3   4
HETATM    4  O1  LIG X 999       3.540  -0.996   2.128  1.00  0.00    -0.320 OA
BRANCH   4   5
HETATM    5  C4  LIG X 999       3.226  -0.382   0.875  1.00  0.00     0.296 C 
BRANCH   5   6
HETATM    6  O2  LIG X 999       2.359  -1.243   0.179  1.00  0.00    -0.342 OA
HETATM    7  H4  LIG X 999       2.776  -2.144   0.167  1.00  0.00     0.215 HD
ENDBRANCH   5   6
BRANCH   5   8
HETATM    8  O3  LIG X 999       4.385  -0.165   0.096  1.00  0.00    -0.342 OA
HETATM    9  H5  LIG X 999       4.779  -1.052  -0.107  1.00  0.00     0.215 HD
ENDBRANCH   5   8
BRANCH   5  10
HETATM   10  C5  LIG X 999       2.498   0.978   1.120  1.00  0.00     0.174 C 
BRANCH  10  11
HETATM   11  S1  LIG X 999       0.894   0.739   2.008  1.00  0.00    -0.147 SA
BRANCH  11  12
HETATM   12  C6  LIG X 999      -0.237   0.523   0.584  1.00  0.00     0.106 C 
BRANCH  12  13
HETATM   13  C7  LIG X 999      -1.651   0.398   1.065  1.00  0.00     0.039 C 
HETATM   14  C8  LIG X 999      -2.665   0.182   0.221  1.00  0.00     0.132 C 
BRANCH  14  15
HETATM   15  O4  LIG X 999      -2.397   0.018  -1.141  1.00  0.00    -0.347 OA
HETATM   16  H10 LIG X 999      -3.122  -0.123  -1.832  1.00  0.00     0.219 HD
ENDBRANCH  14  15
BRANCH  14  17
HETATM   17  N1  LIG X 999      -4.013   0.134   0.726  1.00  0.00    -0.371 N 
HETATM   18  H11 LIG X 999      -4.196   0.439   1.710  1.00  0.00     0.161 HD
BRANCH  17  19
HETATM   19  C9  LIG X 999      -5.164  -0.300  -0.064  1.00  0.00     0.127 C 
BRANCH  19  20
HETATM   20  C10 LIG X 999      -5.131  -1.823  -0.307  1.00  0.00     0.013 C 
HETATM   21  C11 LIG X 999      -5.223  -2.583   1.027  1.00  0.00     0.012 C 
BRANCH  20  22
HETATM   22  C12 LIG X 999      -6.278  -2.229  -1.251  1.00  0.00     0.120 C 
HETATM   23 CL1  LIG X 999      -6.111  -3.920  -1.795  1.00  0.00    -0.130 Cl
ENDBRANCH  20  22
ENDBRANCH  19  20
ENDBRANCH  17  19
ENDBRANCH  14  17
ENDBRANCH  12  13
ENDBRANCH  11  12
ENDBRANCH  10  11
BRANCH  10  24
HETATM   24  C13 LIG X 999       2.367   1.927  -0.083  1.00  0.00    -0.025 A 
HETATM   25  C14 LIG X 999       2.372   1.417  -1.401  1.00  0.00     0.009 A 
HETATM   26  C15 LIG X 999       2.257   2.258  -2.504  1.00  0.00     0.002 A 
HETATM   27  C16 LIG X 999       2.118   3.629  -2.333  1.00  0.00     0.012 A 
HETATM   28  C17 LIG X 999       2.068   4.177  -1.047  1.00  0.00    -0.025 A 
HETATM   29  C18 LIG X 999       1.890   5.561  -0.892  1.00  0.00     0.012 A 
HETATM   30  C22 LIG X 999       2.179   3.335   0.095  1.00  0.00    -0.018 A 
HETATM   31  C19 LIG X 999       1.802   6.122   0.381  1.00  0.00     0.001 A 
HETATM   32  C20 LIG X 999       1.891   5.310   1.508  1.00  0.00     0.001 A 
HETATM   33  C21 LIG X 999       2.077   3.934   1.373  1.00  0.00     0.013 A 
ENDBRANCH  10  24
ENDBRANCH   5  10
ENDBRANCH   4   5
ENDBRANCH   3   4
TORSDOF 14
