REMARK  4 active torsions:
REMARK  status: ('A' for Active; 'I' for Inactive)
REMARK    1  A    between atoms: C2_2  and  C3_3 
REMARK    2  A    between atoms: C2_2  and  N1_9 
REMARK    3  A    between atoms: C3_3  and  C4_4 
REMARK       I    between atoms: N1_9  and  C8_10 
REMARK       I    between atoms: C8_10  and  N2_12 
REMARK    4  A    between atoms: N2_12  and  C9_13 
ROOT
HETATM    1  C9  LIG X 999      -0.301   0.498  -1.098  1.00  0.00     0.056 A 
HETATM    2  C10 LIG X 999      -1.380   1.135  -0.467  1.00  0.00     0.003 A 
HETATM    3  C11 LIG X 999      -2.473   1.550  -1.168  1.00  0.00    -0.021 A 
HETATM    4  C12 LIG X 999      -2.570   1.377  -2.546  1.00  0.00     0.022 A 
HETATM    5  C13 LIG X 999      -1.514   0.741  -3.224  1.00  0.00    -0.023 A 
HETATM    6  C14 LIG X 999      -1.584   0.543  -4.611  1.00  0.00     0.012 A 
HETATM    7  C15 LIG X 999      -0.537  -0.088  -5.285  1.00  0.00     0.001 A 
HETATM    8  C16 LIG X 999       0.588  -0.525  -4.585  1.00  0.00     0.001 A 
HETATM    9  C17 LIG X 999       0.677  -0.339  -3.203  1.00  0.00     0.014 A 
HETATM   10  C18 LIG X 999      -0.369   0.290  -2.500  1.00  0.00     0.002 A 
HETATM   11  C19 LIG X 999      -3.475   2.155  -0.265  1.00  0.00     0.276 C 
HETATM   12  N3  LIG X 999      -2.989   1.868   1.120  1.00  0.00    -0.067 N 
HETATM   13  C20 LIG X 999      -3.802   0.789   1.730  1.00  0.00     0.272 C 
HETATM   14  C21 LIG X 999      -3.080   3.078   1.968  1.00  0.00     0.272 C 
HETATM   15  C22 LIG X 999      -1.569   1.418   0.978  1.00  0.00     0.278 C 
ENDROOT
BRANCH   1  16
HETATM   16  N2  LIG X 999       0.810   0.018  -0.329  1.00  0.00    -0.307 N 
HETATM   17  C8  LIG X 999       1.701   0.900   0.365  1.00  0.00     0.321 C 
HETATM   18  N1  LIG X 999       2.761   0.353   1.162  1.00  0.00    -0.338 N 
HETATM   19  O1  LIG X 999       1.566   2.150   0.256  1.00  0.00    -0.247 OA
HETATM   20  H10 LIG X 999       2.820  -0.686   1.262  1.00  0.00     0.164 HD
HETATM   21  H11 LIG X 999       1.042  -1.000  -0.370  1.00  0.00     0.170 HD
BRANCH  18  22
HETATM   22  C2  LIG X 999       3.695   1.181   1.932  1.00  0.00     0.086 C 
HETATM   23  C1  LIG X 999       5.130   0.759   1.612  1.00  0.00     0.032 C 
BRANCH  22  24
HETATM   24  C3  LIG X 999       3.412   1.037   3.436  1.00  0.00     0.071 C 
BRANCH  24  25
HETATM   25  C4  LIG X 999       2.045   1.542   3.784  1.00  0.00    -0.016 A 
HETATM   26  C5  LIG X 999       0.901   0.766   3.927  1.00  0.00     0.015 A 
HETATM   27  C6  LIG X 999      -0.242   1.522   4.212  1.00  0.00     0.008 A 
HETATM   28  C7  LIG X 999      -0.006   2.889   4.276  1.00  0.00     0.050 A 
HETATM   29  S1  LIG X 999       1.627   3.159   3.980  1.00  0.00    -0.106 SA
ENDBRANCH  24  25
ENDBRANCH  22  24
ENDBRANCH  18  22
ENDBRANCH   1  16
TORSDOF 4
