REMARK  7 active torsions:
REMARK  status: ('A' for Active; 'I' for Inactive)
REMARK    1  A    between atoms: O1_2  and  N1_3 
REMARK    2  A    between atoms: C1_4  and  C2_5 
REMARK    3  A    between atoms: C1_4  and  N2_12 
REMARK    4  A    between atoms: C9_15  and  C10_16 
REMARK    5  A    between atoms: C12_18  and  C13_19 
REMARK    6  A    between atoms: C13_19  and  O2_20 
REMARK    7  A    between atoms: O2_20  and  C14_21 
ROOT
HETATM    1  N2  LIG X 999      -2.531  -0.736  -0.753  1.00  0.00    -0.218 N 
HETATM    2  N3  LIG X 999      -3.746  -1.060  -1.169  1.00  0.00     0.011 NA
HETATM    3  N4  LIG X 999      -4.368  -1.804  -0.264  1.00  0.00    -0.162 NA
HETATM    4  C9  LIG X 999      -3.513  -1.970   0.764  1.00  0.00     0.078 A 
HETATM    5  C12 LIG X 999      -2.340  -1.301   0.460  1.00  0.00     0.084 A 
ENDROOT
BRANCH   5   6
HETATM    6  C13 LIG X 999      -1.115  -1.175   1.323  1.00  0.00     0.236 C 
BRANCH   6   7
HETATM    7  O2  LIG X 999       0.054  -1.240   0.510  1.00  0.00    -0.344 OA
BRANCH   7   8
HETATM    8  C14 LIG X 999       1.368  -1.026   0.962  1.00  0.00     0.080 A 
HETATM    9  C15 LIG X 999       1.641  -0.660   2.295  1.00  0.00     0.037 A 
HETATM   10  C16 LIG X 999       2.957  -0.462   2.719  1.00  0.00     0.004 A 
HETATM   11  C17 LIG X 999       4.022  -0.632   1.827  1.00  0.00     0.012 A 
HETATM   12  C18 LIG X 999       3.776  -0.997   0.497  1.00  0.00    -0.023 A 
HETATM   13  C19 LIG X 999       4.843  -1.185  -0.397  1.00  0.00     0.012 A 
HETATM   14  C23 LIG X 999       2.440  -1.186   0.055  1.00  0.00     0.007 A 
HETATM   15  C20 LIG X 999       4.592  -1.554  -1.720  1.00  0.00     0.001 A 
HETATM   16  C21 LIG X 999       3.280  -1.727  -2.166  1.00  0.00     0.001 A 
HETATM   17  C22 LIG X 999       2.208  -1.545  -1.287  1.00  0.00     0.015 A 
ENDBRANCH   7   8
ENDBRANCH   6   7
ENDBRANCH   5   6
BRANCH   1  18
HETATM   18  C1  LIG X 999      -1.619   0.080  -1.513  1.00  0.00     0.184 C 
HETATM   19  N1  LIG X 999      -1.411  -0.173  -2.771  1.00  0.00    -0.115 NA
BRANCH  19  20
HETATM   20  O1  LIG X 999      -2.017  -1.229  -3.409  1.00  0.00    -0.264 OA
HETATM   21  H1  LIG X 999      -1.831  -1.401  -4.388  1.00  0.00     0.247 HD
ENDBRANCH  19  20
BRANCH  18  22
HETATM   22  C2  LIG X 999      -0.929   1.230  -0.883  1.00  0.00     0.014 A 
HETATM   23  C3  LIG X 999       0.351   1.625  -1.319  1.00  0.00     0.016 A 
HETATM   24  C4  LIG X 999       1.010   2.692  -0.704  1.00  0.00     0.007 A 
HETATM   25  C5  LIG X 999       0.406   3.381   0.358  1.00  0.00    -0.062 A 
HETATM   26  C6  LIG X 999       1.093   4.553   0.992  1.00  0.00     0.048 C 
HETATM   27  C7  LIG X 999      -0.880   3.011   0.775  1.00  0.00     0.007 A 
HETATM   28  C8  LIG X 999      -1.542   1.942   0.161  1.00  0.00     0.016 A 
ENDBRANCH  18  22
ENDBRANCH   1  18
BRANCH   4  29
HETATM   29  C10 LIG X 999      -3.851  -2.711   2.025  1.00  0.00     0.058 C 
HETATM   30  C11 LIG X 999      -4.147  -1.740   3.165  1.00  0.00     0.011 C 
ENDBRANCH   4  29
TORSDOF 7
