REMARK  1 active torsions:
REMARK  status: ('A' for Active; 'I' for Inactive)
REMARK    1  A    between atoms: C7_7  and  N1_8 
ROOT
HETATM    1  N1  LIG X 999      -0.912  -2.001  -1.548  1.00  0.00    -0.110 NA
HETATM    2  N2  LIG X 999      -2.127  -2.150  -1.677  1.00  0.00    -0.167 NA
HETATM    3  N3  LIG X 999      -3.341  -2.300  -1.806  1.00  0.00     0.068 N 
ENDROOT
BRANCH   1   4
HETATM    4  C7  LIG X 999      -0.347  -0.712  -1.153  1.00  0.00     0.153 C 
HETATM    5  C6  LIG X 999       1.184  -0.773  -1.243  1.00  0.00     0.031 C 
HETATM    6  C5  LIG X 999       1.802   0.574  -0.856  1.00  0.00     0.003 C 
HETATM    7  C4  LIG X 999       1.390   0.979   0.562  1.00  0.00     0.009 C 
HETATM    8  C3  LIG X 999      -0.145   1.032   0.713  1.00  0.00     0.018 C 
HETATM    9  C2  LIG X 999      -0.499   1.336   2.151  1.00  0.00    -0.021 C 
HETATM   10  C8  LIG X 999      -0.813  -0.300   0.268  1.00  0.00     0.043 C 
HETATM   11  C1  LIG X 999      -0.653   0.346   3.040  1.00  0.00    -0.004 C 
HETATM   12  C10 LIG X 999      -0.581  -1.064   2.611  1.00  0.00    -0.004 C 
HETATM   13  C9  LIG X 999      -0.590  -1.380   1.311  1.00  0.00    -0.019 C 
ENDBRANCH   1   4
TORSDOF 1
