REMARK  6 active torsions:
REMARK  status: ('A' for Active; 'I' for Inactive)
REMARK    1  A    between atoms: O1_2  and  C1_3 
REMARK    2  A    between atoms: C1_3  and  N2_13 
REMARK    3  A    between atoms: N1_4  and  C2_5 
REMARK    4  A    between atoms: C2_5  and  C4_7 
REMARK    5  A    between atoms: C4_7  and  C5_8 
REMARK    6  A    between atoms: N2_13  and  C9_14 
ROOT
HETATM    1  C9  LIG X 999      -0.848   0.630   1.032  1.00  0.00     0.080 A 
HETATM    2  C10 LIG X 999      -0.175   1.850   0.918  1.00  0.00     0.005 A 
HETATM    3  C11 LIG X 999      -0.284   2.624  -0.197  1.00  0.00    -0.021 A 
HETATM    4  C12 LIG X 999      -1.079   2.243  -1.277  1.00  0.00     0.022 A 
HETATM    5  C13 LIG X 999      -1.774   1.021  -1.209  1.00  0.00    -0.023 A 
HETATM    6  C14 LIG X 999      -2.580   0.605  -2.279  1.00  0.00     0.012 A 
HETATM    7  C15 LIG X 999      -3.264  -0.611  -2.212  1.00  0.00     0.001 A 
HETATM    8  C16 LIG X 999      -3.150  -1.422  -1.081  1.00  0.00     0.001 A 
HETATM    9  C17 LIG X 999      -2.354  -1.023  -0.004  1.00  0.00     0.014 A 
HETATM   10  C18 LIG X 999      -1.658   0.200  -0.048  1.00  0.00     0.004 A 
HETATM   11  C19 LIG X 999       0.529   3.851  -0.060  1.00  0.00     0.276 C 
HETATM   12  N3  LIG X 999       1.324   3.668   1.195  1.00  0.00    -0.067 N 
HETATM   13  C20 LIG X 999       1.248   4.878   2.045  1.00  0.00     0.272 C 
HETATM   14  C21 LIG X 999       2.743   3.399   0.861  1.00  0.00     0.272 C 
HETATM   15  C22 LIG X 999       0.732   2.487   1.900  1.00  0.00     0.278 C 
ENDROOT
BRANCH   1  16
HETATM   16  N2  LIG X 999      -0.676  -0.172   2.206  1.00  0.00    -0.206 NA
BRANCH  16  17
HETATM   17  C1  LIG X 999       0.254  -1.257   2.248  1.00  0.00     0.262 C 
HETATM   18  N1  LIG X 999       1.096  -1.424   1.272  1.00  0.00    -0.244 NA
BRANCH  17  19
HETATM   19  O1  LIG X 999       0.240  -2.131   3.332  1.00  0.00    -0.330 OA
HETATM   20  H1  LIG X 999      -0.419  -2.003   4.090  1.00  0.00     0.221 HD
ENDBRANCH  17  19
BRANCH  18  21
HETATM   21  C2  LIG X 999       2.071  -2.511   1.178  1.00  0.00     0.113 C 
HETATM   22  C3  LIG X 999       3.225  -2.277   2.159  1.00  0.00     0.035 C 
BRANCH  21  23
HETATM   23  C4  LIG X 999       2.608  -2.589  -0.260  1.00  0.00     0.073 C 
BRANCH  23  24
HETATM   24  C5  LIG X 999       1.494  -2.731  -1.255  1.00  0.00    -0.016 A 
HETATM   25  S1  LIG X 999       0.636  -4.143  -1.563  1.00  0.00    -0.106 SA
HETATM   26  C6  LIG X 999      -0.426  -3.469  -2.680  1.00  0.00     0.050 A 
HETATM   27  C7  LIG X 999      -0.122  -2.121  -2.814  1.00  0.00     0.008 A 
HETATM   28  C8  LIG X 999       0.943  -1.702  -2.009  1.00  0.00     0.015 A 
ENDBRANCH  23  24
ENDBRANCH  21  23
ENDBRANCH  18  21
ENDBRANCH  16  17
ENDBRANCH   1  16
TORSDOF 6
