REMARK  1 active torsions:
REMARK  status: ('A' for Active; 'I' for Inactive)
REMARK    1  A    between atoms: C2_2  and  N1_3 
ROOT
HETATM    1  N1  LIG X 999       1.090  -5.238   2.409  1.00  0.00    -0.073 NA
HETATM    2  N2  LIG X 999       1.699  -5.871   3.273  1.00  0.00    -0.162 NA
HETATM    3  N3  LIG X 999       2.306  -6.505   4.135  1.00  0.00     0.068 N 
ENDROOT
BRANCH   1   4
HETATM    4  C2  LIG X 999       1.190  -3.812   2.289  1.00  0.00     0.094 A 
HETATM    5  C1  LIG X 999       1.995  -3.051   3.159  1.00  0.00     0.035 A 
HETATM    6  C10 LIG X 999       2.074  -1.663   3.019  1.00  0.00     0.014 A 
HETATM    7  C9  LIG X 999       1.350  -1.013   2.011  1.00  0.00    -0.025 A 
HETATM    8  C4  LIG X 999       0.534  -1.776   1.128  1.00  0.00    -0.023 A 
HETATM    9  C8  LIG X 999       1.426   0.386   1.862  1.00  0.00     0.021 A 
HETATM   10  C3  LIG X 999       0.465  -3.169   1.279  1.00  0.00     0.046 A 
HETATM   11  C5  LIG X 999      -0.193  -1.127   0.111  1.00  0.00     0.021 A 
HETATM   12  C6  LIG X 999      -0.096   0.261   0.001  1.00  0.00    -0.024 A 
HETATM   13  C7  LIG X 999       0.684   0.990   0.846  1.00  0.00    -0.024 A 
HETATM   14  C14 LIG X 999      -0.746   1.139  -0.995  1.00  0.00     0.276 C 
HETATM   15  C11 LIG X 999       0.629   2.425   0.493  1.00  0.00     0.276 C 
HETATM   16  N4  LIG X 999      -0.411   2.538  -0.578  1.00  0.00    -0.067 N 
HETATM   17  C12 LIG X 999       0.104   3.317  -1.727  1.00  0.00     0.272 C 
HETATM   18  C13 LIG X 999      -1.619   3.211  -0.043  1.00  0.00     0.272 C 
ENDBRANCH   1   4
TORSDOF 1
