REMARK  1 active torsions:
REMARK  status: ('A' for Active; 'I' for Inactive)
REMARK    1  A    between atoms: C11_12  and  N2_13 
ROOT
HETATM    1  N1  LIG X 999       0.306  -4.167  -0.098  1.00  0.00    -0.191 NA
HETATM    2  C1  LIG X 999       0.357  -3.011  -0.125  1.00  0.00     0.102 C 
HETATM    3  C2  LIG X 999       0.422  -1.569  -0.159  1.00  0.00     0.071 A 
HETATM    4  C3  LIG X 999       1.681  -0.965  -0.103  1.00  0.00     0.026 A 
HETATM    5  C4  LIG X 999       1.804   0.420  -0.159  1.00  0.00     0.014 A 
HETATM    6  C5  LIG X 999       0.666   1.228  -0.255  1.00  0.00    -0.024 A 
HETATM    7  C6  LIG X 999       0.806   2.625  -0.293  1.00  0.00     0.012 A 
HETATM    8  C7  LIG X 999      -0.320   3.443  -0.363  1.00  0.00     0.001 A 
HETATM    9  C8  LIG X 999      -1.594   2.878  -0.386  1.00  0.00     0.001 A 
HETATM   10  C9  LIG X 999      -1.752   1.490  -0.351  1.00  0.00     0.014 A 
HETATM   11  C10 LIG X 999      -0.626   0.637  -0.304  1.00  0.00     0.002 A 
HETATM   12  C11 LIG X 999      -0.747  -0.781  -0.276  1.00  0.00     0.058 A 
ENDROOT
BRANCH  12  13
HETATM   13  N2  LIG X 999      -2.030  -1.425  -0.385  1.00  0.00    -0.397 N 
HETATM   14  H7  LIG X 999      -2.159  -2.426  -0.118  1.00  0.00     0.156 HD
HETATM   15  H8  LIG X 999      -2.848  -0.966  -0.838  1.00  0.00     0.156 HD
ENDBRANCH  12  13
TORSDOF 1
