REMARK  4 active torsions:
REMARK  status: ('A' for Active; 'I' for Inactive)
REMARK    1  A    between atoms: C3_3  and  C4_4 
REMARK    2  A    between atoms: C4_4  and  C5_5 
REMARK    3  A    between atoms: C5_5  and  N1_6 
REMARK    4  A    between atoms: N4_15  and  C12_16 
ROOT
HETATM    1  C12 LIG X 999       0.555  -1.345   2.843  1.00  0.00     0.059 A 
HETATM    2  C13 LIG X 999       1.707  -2.008   2.391  1.00  0.00     0.032 A 
HETATM    3  C14 LIG X 999       2.278  -3.035   3.147  1.00  0.00     0.014 A 
HETATM    4  C15 LIG X 999       1.711  -3.407   4.374  1.00  0.00    -0.024 A 
HETATM    5  C16 LIG X 999       2.277  -4.437   5.141  1.00  0.00     0.034 A 
HETATM    6  C17 LIG X 999       1.704  -4.797   6.368  1.00  0.00     0.045 A 
HETATM    7  C18 LIG X 999       2.287  -5.855   7.152  1.00  0.00     0.099 C 
HETATM    8  N5  LIG X 999       2.755  -6.705   7.782  1.00  0.00    -0.191 NA
HETATM    9  C19 LIG X 999       0.565  -4.129   6.832  1.00  0.00     0.023 A 
HETATM   10  C20 LIG X 999      -0.006  -3.101   6.075  1.00  0.00     0.014 A 
HETATM   11  C21 LIG X 999       0.559  -2.733   4.845  1.00  0.00    -0.024 A 
HETATM   12  C22 LIG X 999      -0.006  -1.703   4.079  1.00  0.00     0.043 A 
ENDROOT
BRANCH   1  13
HETATM   13  N4  LIG X 999      -0.026  -0.277   2.076  1.00  0.00    -0.243 N 
HETATM   14  C2  LIG X 999      -0.290  -0.239   0.752  1.00  0.00     0.058 A 
HETATM   15  C1  LIG X 999      -0.026  -1.335  -0.239  1.00  0.00     0.072 C 
HETATM   16  C3  LIG X 999      -0.826   1.012   0.493  1.00  0.00     0.082 A 
HETATM   17  N2  LIG X 999      -0.881   1.696   1.654  1.00  0.00    -0.161 NA
HETATM   18  N3  LIG X 999      -0.404   0.886   2.587  1.00  0.00    -0.212 N 
HETATM   19  H20 LIG X 999      -0.313   1.151   3.593  1.00  0.00     0.211 HD
BRANCH  16  20
HETATM   20  C4  LIG X 999      -1.221   1.583  -0.836  1.00  0.00     0.093 C 
BRANCH  20  21
HETATM   21  C5  LIG X 999       0.016   2.025  -1.624  1.00  0.00     0.279 C 
BRANCH  21  22
HETATM   22  N1  LIG X 999      -0.380   2.600  -2.926  1.00  0.00     0.093 N 
HETATM   23  C6  LIG X 999      -0.756   1.565  -3.910  1.00  0.00     0.273 C 
HETATM   24  C7  LIG X 999       0.129   1.724  -5.136  1.00  0.00     0.036 C 
HETATM   25  C8  LIG X 999       0.655   3.141  -5.036  1.00  0.00     0.016 C 
HETATM   26  C9  LIG X 999       2.015   3.307  -5.726  1.00  0.00     0.012 C 
HETATM   27  C10 LIG X 999       0.708   3.394  -3.528  1.00  0.00     0.222 C 
HETATM   28  C11 LIG X 999       0.516   4.877  -3.195  1.00  0.00     0.043 C 
ENDBRANCH  21  22
ENDBRANCH  20  21
ENDBRANCH  16  20
ENDBRANCH   1  13
TORSDOF 4
