REMARK  5 active torsions:
REMARK  status: ('A' for Active; 'I' for Inactive)
REMARK    1  A    between atoms: C3_3  and  O1_4 
REMARK    2  A    between atoms: O1_4  and  C4_5 
REMARK    3  A    between atoms: C5_6  and  C6_7 
REMARK    4  A    between atoms: C6_7  and  O2_8 
REMARK    5  A    between atoms: C17_20  and  N1_21 
ROOT
HETATM    1  C1  LIG X 999      -5.635  -1.736   1.950  1.00  0.00     0.014 C 
HETATM    2  C2  LIG X 999      -4.458  -1.503   1.836  1.00  0.00    -0.091 C 
HETATM    3  C3  LIG X 999      -3.030  -1.221   1.696  1.00  0.00     0.268 C 
ENDROOT
BRANCH   3   4
HETATM    4  O1  LIG X 999      -2.716  -1.056   0.318  1.00  0.00    -0.337 OA
BRANCH   4   5
HETATM    5  C4  LIG X 999      -1.411  -0.780  -0.100  1.00  0.00     0.106 C 
HETATM    6  C5  LIG X 999      -0.528  -1.839  -0.388  1.00  0.00     0.012 C 
HETATM    7  C7  LIG X 999       0.835  -1.549  -0.655  1.00  0.00    -0.014 C 
HETATM    8  C8  LIG X 999       1.786  -2.587  -0.806  1.00  0.00     0.013 C 
HETATM    9  C12 LIG X 999       1.274  -0.194  -0.722  1.00  0.00    -0.012 C 
HETATM   10  C9  LIG X 999       3.144  -2.302  -0.916  1.00  0.00     0.001 C 
HETATM   11  C10 LIG X 999       3.586  -0.989  -0.839  1.00  0.00     0.001 C 
HETATM   12  C11 LIG X 999       2.668   0.052  -0.719  1.00  0.00     0.013 C 
HETATM   13  C13 LIG X 999       0.313   0.863  -0.687  1.00  0.00     0.011 C 
HETATM   14  C14 LIG X 999       0.573   2.212  -1.087  1.00  0.00    -0.045 C 
HETATM   15  C18 LIG X 999      -1.005   0.559  -0.255  1.00  0.00     0.080 C 
HETATM   16  C15 LIG X 999       1.722   2.628  -1.975  1.00  0.00     0.049 C 
HETATM   17  C16 LIG X 999      -0.360   3.210  -0.779  1.00  0.00     0.061 C 
HETATM   18  C17 LIG X 999      -1.593   2.873  -0.217  1.00  0.00     0.165 C 
HETATM   19  N4  LIG X 999      -1.898   1.567  -0.015  1.00  0.00    -0.336 N 
HETATM   20  H15 LIG X 999      -2.860   1.352   0.335  1.00  0.00     0.168 HD
BRANCH   6  21
HETATM   21  C6  LIG X 999      -1.041  -3.268  -0.365  1.00  0.00     0.206 C 
BRANCH  21  22
HETATM   22  O2  LIG X 999      -0.933  -3.825  -1.646  1.00  0.00    -0.396 OA
HETATM   23  H6  LIG X 999      -1.208  -4.775  -1.559  1.00  0.00     0.209 HD
ENDBRANCH  21  22
ENDBRANCH   6  21
BRANCH  18  24
HETATM   24  N1  LIG X 999      -2.576   3.874   0.090  1.00  0.00    -0.054 NA
HETATM   25  N2  LIG X 999      -2.369   5.077  -0.076  1.00  0.00    -0.160 NA
HETATM   26  N3  LIG X 999      -2.164   6.279  -0.241  1.00  0.00     0.068 N 
ENDBRANCH  18  24
ENDBRANCH   4   5
ENDBRANCH   3   4
TORSDOF 5
