REMARK  5 active torsions:
REMARK  status: ('A' for Active; 'I' for Inactive)
REMARK    1  A    between atoms: C3_3  and  C4_4 
REMARK    2  A    between atoms: C4_4  and  S1_5 
REMARK    3  A    between atoms: S1_5  and  C5_6 
REMARK    4  A    between atoms: C6_7  and  N1_8 
REMARK    5  A    between atoms: C10_12  and  N2_13 
ROOT
HETATM    1  C1  LIG X 999       2.599   1.731  -0.186  1.00  0.00     0.112 C 
HETATM    2  C2  LIG X 999       2.988   0.330  -0.030  1.00  0.00    -0.110 C 
HETATM    3  C3  LIG X 999       3.289  -0.831   0.097  1.00  0.00    -0.097 C 
ENDROOT
BRANCH   3   4
HETATM    4  C4  LIG X 999       3.631  -2.248   0.246  1.00  0.00     0.173 C 
BRANCH   4   5
HETATM    5  S1  LIG X 999       2.280  -3.148   1.082  1.00  0.00    -0.115 SA
BRANCH   5   6
HETATM    6  C5  LIG X 999       1.137  -3.068  -0.325  1.00  0.00     0.038 A 
HETATM    7  C6  LIG X 999       1.209  -4.050  -1.337  1.00  0.00     0.043 A 
HETATM    8  C7  LIG X 999       0.359  -3.968  -2.442  1.00  0.00     0.031 A 
HETATM    9  C8  LIG X 999      -0.553  -2.925  -2.572  1.00  0.00     0.017 A 
HETATM   10  C9  LIG X 999      -0.651  -1.925  -1.588  1.00  0.00     0.002 A 
HETATM   11  C10 LIG X 999      -1.571  -0.840  -1.712  1.00  0.00     0.045 A 
HETATM   12  C14 LIG X 999       0.181  -2.022  -0.426  1.00  0.00    -0.004 A 
HETATM   13  C11 LIG X 999      -1.651   0.083  -0.659  1.00  0.00     0.003 A 
HETATM   14  C12 LIG X 999      -0.883  -0.035   0.455  1.00  0.00    -0.021 A 
HETATM   15  C18 LIG X 999      -2.517   1.284  -0.550  1.00  0.00     0.278 C 
HETATM   16  C13 LIG X 999       0.031  -1.069   0.607  1.00  0.00     0.023 A 
HETATM   17  C15 LIG X 999      -1.167   1.055   1.413  1.00  0.00     0.276 C 
HETATM   18  N3  LIG X 999      -2.073   1.997   0.689  1.00  0.00    -0.067 N 
HETATM   19  C16 LIG X 999      -3.236   2.358   1.532  1.00  0.00     0.272 C 
HETATM   20  C17 LIG X 999      -1.337   3.233   0.328  1.00  0.00     0.272 C 
BRANCH   7  21
HETATM   21  N1  LIG X 999       2.138  -5.142  -1.264  1.00  0.00    -0.398 N 
HETATM   22  H6  LIG X 999       2.183  -5.850  -2.030  1.00  0.00     0.156 HD
HETATM   23  H7  LIG X 999       2.784  -5.277  -0.457  1.00  0.00     0.156 HD
ENDBRANCH   7  21
BRANCH  11  24
HETATM   24  N2  LIG X 999      -2.392  -0.651  -2.876  1.00  0.00    -0.398 N 
HETATM   25  H10 LIG X 999      -2.174  -1.086  -3.797  1.00  0.00     0.156 HD
HETATM   26  H11 LIG X 999      -3.184   0.029  -2.865  1.00  0.00     0.156 HD
ENDBRANCH  11  24
ENDBRANCH   5   6
ENDBRANCH   4   5
ENDBRANCH   3   4
TORSDOF 5
