REMARK  4 active torsions:
REMARK  status: ('A' for Active; 'I' for Inactive)
REMARK    1  A    between atoms: C2_2  and  N1_3 
REMARK    2  A    between atoms: C3_6  and  O1_7 
REMARK    3  A    between atoms: O1_7  and  C4_8 
REMARK    4  A    between atoms: C4_8  and  C5_9 
ROOT
HETATM    1  N1  LIG X 999      -4.312   0.889   0.804  1.00  0.00    -0.070 NA
HETATM    2  N2  LIG X 999      -4.838   0.298   1.749  1.00  0.00    -0.162 NA
HETATM    3  N3  LIG X 999      -5.364  -0.291   2.692  1.00  0.00     0.068 N 
ENDROOT
BRANCH   1   4
HETATM    4  C2  LIG X 999      -2.951   0.658   0.412  1.00  0.00     0.127 A 
HETATM    5  C1  LIG X 999      -2.141  -0.269   1.095  1.00  0.00     0.049 A 
HETATM    6  C14 LIG X 999      -0.815  -0.483   0.698  1.00  0.00    -0.023 A 
HETATM    7  C9  LIG X 999      -0.286   0.243  -0.404  1.00  0.00    -0.022 A 
HETATM    8  C13 LIG X 999      -0.004  -1.412   1.379  1.00  0.00     0.021 A 
HETATM    9  C8  LIG X 999      -1.097   1.164  -1.080  1.00  0.00     0.051 A 
HETATM   10  C10 LIG X 999       1.046   0.028  -0.809  1.00  0.00     0.021 A 
HETATM   11  C3  LIG X 999      -2.431   1.375  -0.679  1.00  0.00     0.102 A 
HETATM   12  C11 LIG X 999       1.819  -0.896  -0.104  1.00  0.00    -0.024 A 
HETATM   13  C12 LIG X 999       1.312  -1.591   0.951  1.00  0.00    -0.024 A 
HETATM   14  C18 LIG X 999       3.218  -1.294  -0.365  1.00  0.00     0.276 C 
HETATM   15  C15 LIG X 999       2.325  -2.519   1.496  1.00  0.00     0.276 C 
HETATM   16  N4  LIG X 999       3.592  -2.212   0.758  1.00  0.00    -0.067 N 
HETATM   17  C16 LIG X 999       4.556  -1.541   1.663  1.00  0.00     0.272 C 
HETATM   18  C17 LIG X 999       4.207  -3.454   0.236  1.00  0.00     0.272 C 
BRANCH  11  19
HETATM   19  O1  LIG X 999      -3.275   2.288  -1.337  1.00  0.00    -0.337 OA
BRANCH  19  20
HETATM   20  C4  LIG X 999      -2.926   3.061  -2.485  1.00  0.00     0.269 C 
BRANCH  20  21
HETATM   21  C5  LIG X 999      -2.809   2.199  -3.666  1.00  0.00    -0.080 C 
HETATM   22  C6  LIG X 999      -2.709   1.486  -4.633  1.00  0.00    -0.109 C 
HETATM   23  C7  LIG X 999      -2.586   0.618  -5.804  1.00  0.00     0.112 C 
ENDBRANCH  20  21
ENDBRANCH  19  20
ENDBRANCH  11  19
ENDBRANCH   1   4
TORSDOF 4
