REMARK  10 active torsions:
REMARK  status: ('A' for Active; 'I' for Inactive)
REMARK    1  A    between atoms: O1_2  and  C2_3 
REMARK    2  A    between atoms: C7_8  and  N1_9 
REMARK    3  A    between atoms: C10_14  and  C11_15 
REMARK    4  A    between atoms: C11_15  and  O2_16 
REMARK    5  A    between atoms: O2_16  and  C12_17 
REMARK    6  A    between atoms: C12_17  and  C13_18 
REMARK    7  A    between atoms: C13_18  and  O3_19 
REMARK    8  A    between atoms: O3_19  and  C14_20 
REMARK    9  A    between atoms: C14_20  and  C15_21 
REMARK   10  A    between atoms: C15_21  and  N4_22 
ROOT
HETATM    1  N1  LIG X 999       2.128   1.704   0.418  1.00  0.00    -0.240 N 
HETATM    2  N2  LIG X 999       2.907   2.517   1.118  1.00  0.00    -0.212 N 
HETATM    3  N3  LIG X 999       3.722   3.208   0.335  1.00  0.00    -0.162 NA
HETATM    4  C8  LIG X 999       3.455   2.817  -0.927  1.00  0.00     0.079 A 
HETATM    5  C9  LIG X 999       4.176   3.326  -2.132  1.00  0.00     0.074 C 
HETATM    6  C10 LIG X 999       2.458   1.856  -0.885  1.00  0.00     0.085 A 
HETATM    7  H7  LIG X 999       2.881   2.619   2.157  1.00  0.00     0.211 HD
ENDROOT
BRANCH   1   8
HETATM    8  C7  LIG X 999       1.156   0.822   1.008  1.00  0.00     0.059 A 
HETATM    9  C6  LIG X 999      -0.137   0.711   0.471  1.00  0.00     0.043 A 
HETATM   10  C5  LIG X 999      -1.085  -0.133   1.069  1.00  0.00    -0.024 A 
HETATM   11  C4  LIG X 999      -2.369  -0.266   0.522  1.00  0.00     0.015 A 
HETATM   12  C18 LIG X 999      -0.746  -0.852   2.238  1.00  0.00    -0.023 A 
HETATM   13  C3  LIG X 999      -3.307  -1.110   1.123  1.00  0.00     0.037 A 
HETATM   14  C2  LIG X 999      -2.975  -1.831   2.286  1.00  0.00     0.069 A 
HETATM   15  C19 LIG X 999      -1.697  -1.690   2.840  1.00  0.00     0.049 A 
HETATM   16  C17 LIG X 999       0.541  -0.729   2.779  1.00  0.00     0.014 A 
HETATM   17  C16 LIG X 999       1.482   0.103   2.168  1.00  0.00     0.032 A 
BRANCH  14  18
HETATM   18  O1  LIG X 999      -3.879  -2.700   2.914  1.00  0.00    -0.356 OA
HETATM   19  C1  LIG X 999      -5.193  -2.973   2.438  1.00  0.00     0.210 C 
ENDBRANCH  14  18
ENDBRANCH   1   8
BRANCH   6  20
HETATM   20  C11 LIG X 999       1.881   1.105  -2.053  1.00  0.00     0.229 C 
BRANCH  20  21
HETATM   21  O2  LIG X 999       1.878  -0.279  -1.772  1.00  0.00    -0.383 OA
BRANCH  21  22
HETATM   22  C12 LIG X 999       1.130  -0.958  -2.760  1.00  0.00     0.194 C 
BRANCH  22  23
HETATM   23  C13 LIG X 999       1.375  -2.461  -2.646  1.00  0.00     0.193 C 
BRANCH  23  24
HETATM   24  O3  LIG X 999       1.017  -2.938  -1.362  1.00  0.00    -0.387 OA
BRANCH  24  25
HETATM   25  C14 LIG X 999      -0.303  -3.443  -1.368  1.00  0.00     0.197 C 
BRANCH  25  26
HETATM   26  C15 LIG X 999      -0.620  -4.022   0.006  1.00  0.00     0.292 C 
BRANCH  26  27
HETATM   27  N4  LIG X 999      -1.985  -4.539   0.040  1.00  0.00     0.080 N 
HETATM   28  H21 LIG X 999      -2.148  -4.944   0.990  1.00  0.00     0.312 HD
HETATM   29  H22 LIG X 999      -2.645  -3.733  -0.054  1.00  0.00     0.312 HD
ENDBRANCH  26  27
ENDBRANCH  25  26
ENDBRANCH  24  25
ENDBRANCH  23  24
ENDBRANCH  22  23
ENDBRANCH  21  22
ENDBRANCH  20  21
ENDBRANCH   6  20
TORSDOF 10
