REMARK  3 active torsions:
REMARK  status: ('A' for Active; 'I' for Inactive)
REMARK    1  A    between atoms: O1_2  and  C1_3 
REMARK    2  A    between atoms: C1_3  and  C3_8 
REMARK    3  A    between atoms: C2_4  and  N1_5 
ROOT
HETATM    1  N1  LIG X 999       1.133   4.539   2.448  1.00  0.00    -0.082 NA
HETATM    2  N2  LIG X 999       0.948   5.736   2.664  1.00  0.00    -0.163 NA
HETATM    3  N3  LIG X 999       0.763   6.933   2.880  1.00  0.00     0.068 N 
ENDROOT
BRANCH   1   4
HETATM    4  C2  LIG X 999       0.198   3.787   1.675  1.00  0.00     0.193 C 
HETATM    5  C1  LIG X 999       0.400   2.483   1.422  1.00  0.00     0.096 C 
BRANCH   5   6
HETATM    6  O1  LIG X 999       1.550   1.838   1.890  1.00  0.00    -0.358 OA
HETATM    7  H1  LIG X 999       2.265   2.308   2.432  1.00  0.00     0.217 HD
ENDBRANCH   5   6
BRANCH   5   8
HETATM    8  C3  LIG X 999      -0.570   1.688   0.625  1.00  0.00    -0.001 A 
HETATM    9  C4  LIG X 999      -1.952   1.961   0.654  1.00  0.00     0.015 A 
HETATM   10  C5  LIG X 999      -2.847   1.191  -0.093  1.00  0.00     0.013 A 
HETATM   11  C6  LIG X 999      -2.380   0.128  -0.877  1.00  0.00    -0.026 A 
HETATM   12  C7  LIG X 999      -3.272  -0.651  -1.631  1.00  0.00     0.012 A 
HETATM   13  C11 LIG X 999      -0.996  -0.167  -0.904  1.00  0.00    -0.025 A 
HETATM   14  C8  LIG X 999      -2.794  -1.712  -2.406  1.00  0.00     0.001 A 
HETATM   15  C9  LIG X 999      -1.427  -2.003  -2.433  1.00  0.00     0.001 A 
HETATM   16  C10 LIG X 999      -0.530  -1.235  -1.686  1.00  0.00     0.012 A 
HETATM   17  C12 LIG X 999      -0.104   0.611  -0.150  1.00  0.00     0.026 A 
ENDBRANCH   5   8
ENDBRANCH   1   4
TORSDOF 3
