REMARK  2 active torsions:
REMARK  status: ('A' for Active; 'I' for Inactive)
REMARK    1  A    between atoms: O1_2  and  C2_3 
REMARK    2  A    between atoms: C11_12  and  N1_13 
ROOT
HETATM    1  C2  LIG X 999       0.716   1.222   3.183  1.00  0.00     0.095 A 
HETATM    2  C3  LIG X 999       0.931   0.076   2.391  1.00  0.00     0.051 A 
HETATM    3  C4  LIG X 999       0.372  -0.020   1.110  1.00  0.00    -0.023 A 
HETATM    4  C5  LIG X 999       0.588  -1.165   0.317  1.00  0.00     0.021 A 
HETATM    5  C6  LIG X 999       0.009  -1.219  -0.951  1.00  0.00    -0.024 A 
HETATM    6  C7  LIG X 999      -0.748  -0.196  -1.434  1.00  0.00    -0.024 A 
HETATM    7  C8  LIG X 999      -0.981   0.958  -0.684  1.00  0.00     0.021 A 
HETATM    8  C9  LIG X 999      -0.419   1.049   0.605  1.00  0.00    -0.023 A 
HETATM    9  C10 LIG X 999      -0.629   2.186   1.395  1.00  0.00     0.044 A 
HETATM   10  C11 LIG X 999      -0.068   2.278   2.677  1.00  0.00     0.060 A 
HETATM   11  C12 LIG X 999      -1.214  -0.496  -2.804  1.00  0.00     0.276 C 
HETATM   12  N2  LIG X 999      -0.795  -1.909  -3.073  1.00  0.00    -0.067 N 
HETATM   13  C13 LIG X 999      -0.100  -2.009  -4.376  1.00  0.00     0.272 C 
HETATM   14  C14 LIG X 999      -1.983  -2.795  -3.091  1.00  0.00     0.272 C 
HETATM   15  C15 LIG X 999       0.120  -2.301  -1.954  1.00  0.00     0.276 C 
ENDROOT
BRANCH  10  16
HETATM   16  N1  LIG X 999      -0.301   3.453   3.463  1.00  0.00    -0.397 N 
HETATM   17  H8  LIG X 999      -0.882   4.237   3.090  1.00  0.00     0.156 HD
HETATM   18  H9  LIG X 999       0.100   3.557   4.421  1.00  0.00     0.156 HD
ENDBRANCH  10  16
BRANCH   1  19
HETATM   19  O1  LIG X 999       1.264   1.344   4.471  1.00  0.00    -0.354 OA
HETATM   20  C1  LIG X 999       2.073   0.357   5.103  1.00  0.00     0.210 C 
ENDBRANCH   1  19
TORSDOF 2
