REMARK  7 active torsions:
REMARK  status: ('A' for Active; 'I' for Inactive)
REMARK    1  A    between atoms: C2_2  and  C4_4 
REMARK    2  A    between atoms: C4_4  and  C5_5 
REMARK       I    between atoms: C5_5  and  N1_7 
REMARK    3  A    between atoms: N1_7  and  C6_8 
REMARK    4  A    between atoms: C6_8  and  C7_9 
REMARK    5  A    between atoms: C7_9  and  C8_10 
REMARK    6  A    between atoms: C8_10  and  O2_11 
REMARK    7  A    between atoms: O2_11  and  C9_12 
ROOT
HETATM    1  C8  LIG X 999       0.823   0.256  -1.015  1.00  0.00     0.177 C 
ENDROOT
BRANCH   1   2
HETATM    2  C7  LIG X 999      -0.281   0.849  -1.891  1.00  0.00     0.046 C 
BRANCH   2   3
HETATM    3  C6  LIG X 999       0.141   2.186  -2.511  1.00  0.00     0.124 C 
BRANCH   3   4
HETATM    4  N1  LIG X 999       0.226   3.231  -1.492  1.00  0.00    -0.361 N 
HETATM    5  C5  LIG X 999      -0.937   3.883  -0.959  1.00  0.00     0.217 C 
HETATM    6  O1  LIG X 999      -2.084   3.587  -1.390  1.00  0.00    -0.274 OA
HETATM    7  H10 LIG X 999       1.173   3.541  -1.177  1.00  0.00     0.162 HD
BRANCH   5   8
HETATM    8  C4  LIG X 999      -0.796   4.918   0.123  1.00  0.00     0.106 C 
BRANCH   8   9
HETATM    9  C2  LIG X 999      -0.990   4.351   1.546  1.00  0.00    -0.014 C 
HETATM   10  C1  LIG X 999       0.032   3.255   1.878  1.00  0.00     0.010 C 
HETATM   11  C3  LIG X 999      -2.421   3.846   1.777  1.00  0.00     0.010 C 
ENDBRANCH   8   9
ENDBRANCH   5   8
ENDBRANCH   3   4
ENDBRANCH   2   3
ENDBRANCH   1   2
BRANCH   1  12
HETATM   12  O2  LIG X 999       0.352  -0.945  -0.410  1.00  0.00    -0.351 OA
BRANCH  12  13
HETATM   13  C9  LIG X 999       1.099  -1.732   0.479  1.00  0.00     0.069 A 
HETATM   14  C10 LIG X 999       0.502  -2.883   1.005  1.00  0.00     0.037 A 
HETATM   15  C11 LIG X 999       1.196  -3.704   1.898  1.00  0.00     0.015 A 
HETATM   16  C12 LIG X 999       2.505  -3.381   2.279  1.00  0.00    -0.026 A 
HETATM   17  C13 LIG X 999       3.212  -4.197   3.175  1.00  0.00     0.012 A 
HETATM   18  C17 LIG X 999       3.121  -2.219   1.754  1.00  0.00    -0.023 A 
HETATM   19  C14 LIG X 999       4.518  -3.864   3.548  1.00  0.00     0.001 A 
HETATM   20  C15 LIG X 999       5.126  -2.718   3.030  1.00  0.00     0.001 A 
HETATM   21  C16 LIG X 999       4.433  -1.896   2.136  1.00  0.00     0.012 A 
HETATM   22  C18 LIG X 999       2.415  -1.402   0.857  1.00  0.00     0.049 A 
ENDBRANCH  12  13
ENDBRANCH   1  12
TORSDOF 7
