REMARK  1 active torsions:
REMARK  status: ('A' for Active; 'I' for Inactive)
REMARK    1  A    between atoms: C10_11  and  N2_12 
ROOT
HETATM    1  C1  LIG X 999      -0.385   3.255  -0.327  1.00  0.00     0.272 C 
HETATM    2  N1  LIG X 999       0.013   2.312   0.745  1.00  0.00    -0.067 N 
HETATM    3  C2  LIG X 999       0.600   3.078   1.868  1.00  0.00     0.272 C 
HETATM    4  C3  LIG X 999      -1.177   1.528   1.205  1.00  0.00     0.276 C 
HETATM    5  C4  LIG X 999      -0.967   0.154   0.700  1.00  0.00    -0.024 A 
HETATM    6  C5  LIG X 999      -1.837  -0.929   0.786  1.00  0.00     0.021 A 
HETATM    7  C6  LIG X 999      -1.427  -2.172   0.263  1.00  0.00    -0.023 A 
HETATM    8  C7  LIG X 999      -2.285  -3.276   0.347  1.00  0.00     0.012 A 
HETATM    9  C8  LIG X 999      -1.889  -4.512  -0.155  1.00  0.00     0.003 A 
HETATM   10  C9  LIG X 999      -0.640  -4.662  -0.754  1.00  0.00     0.030 A 
HETATM   11  C10 LIG X 999       0.244  -3.577  -0.866  1.00  0.00     0.036 A 
HETATM   12  C11 LIG X 999      -0.138  -2.310  -0.345  1.00  0.00     0.001 A 
HETATM   13  C12 LIG X 999       0.715  -1.178  -0.388  1.00  0.00     0.024 A 
HETATM   14  C13 LIG X 999       0.263   0.033   0.137  1.00  0.00    -0.023 A 
HETATM   15  C14 LIG X 999       0.996   1.316   0.213  1.00  0.00     0.276 C 
ENDROOT
BRANCH  11  16
HETATM   16  N2  LIG X 999       1.504  -3.797  -1.521  1.00  0.00    -0.398 N 
HETATM   17  H13 LIG X 999       1.778  -4.759  -1.820  1.00  0.00     0.156 HD
HETATM   18  H14 LIG X 999       2.154  -3.029  -1.788  1.00  0.00     0.156 HD
ENDBRANCH  11  16
TORSDOF 1
