REMARK  12 active torsions:
REMARK  status: ('A' for Active; 'I' for Inactive)
REMARK    1  A    between atoms: C2_2  and  O1_3 
REMARK    2  A    between atoms: O1_3  and  C3_4 
REMARK    3  A    between atoms: C3_4  and  C5_6 
REMARK    4  A    between atoms: C5_6  and  O2_7 
REMARK    5  A    between atoms: O2_7  and  C6_8 
REMARK    6  A    between atoms: C6_8  and  C7_9 
REMARK    7  A    between atoms: C12_14  and  N1_15 
REMARK    8  A    between atoms: C14_17  and  C15_18 
REMARK    9  A    between atoms: C15_18  and  C16_19 
REMARK   10  A    between atoms: C16_19  and  N2_20 
REMARK   11  A    between atoms: N2_20  and  S1_21 
REMARK   12  A    between atoms: S1_21  and  C17_24 
ROOT
HETATM    1  N1  LIG X 999       2.010  -2.153   1.069  1.00  0.00    -0.249 N 
HETATM    2  C13 LIG X 999       1.506  -1.030   0.520  1.00  0.00     0.140 A 
HETATM    3  C14 LIG X 999       0.477  -1.431  -0.304  1.00  0.00     0.042 A 
HETATM    4  N3  LIG X 999       0.372  -2.769  -0.205  1.00  0.00    -0.286 N 
HETATM    5  N4  LIG X 999       1.304  -3.188   0.637  1.00  0.00    -0.015 NA
HETATM    6  H31 LIG X 999      -0.327  -3.385  -0.675  1.00  0.00     0.184 HD
ENDROOT
BRANCH   3   7
HETATM    7  C15 LIG X 999      -0.448  -0.546  -1.081  1.00  0.00     0.075 C 
BRANCH   7   8
HETATM    8  C16 LIG X 999      -1.506   0.095  -0.178  1.00  0.00     0.110 C 
BRANCH   8   9
HETATM    9  N2  LIG X 999      -2.458  -0.913   0.300  1.00  0.00    -0.215 NA
HETATM   10  H23 LIG X 999      -1.967  -1.526   0.991  1.00  0.00     0.139 HD
BRANCH   9  11
HETATM   11  S1  LIG X 999      -3.746  -0.134   1.167  1.00  0.00     0.241 S 
HETATM   12  O3  LIG X 999      -4.668  -1.178   1.732  1.00  0.00    -0.206 OA
HETATM   13  O4  LIG X 999      -3.181   0.671   2.306  1.00  0.00    -0.206 OA
BRANCH  11  14
HETATM   14  C17 LIG X 999      -4.660   0.907   0.078  1.00  0.00     0.075 A 
HETATM   15  C18 LIG X 999      -4.537   2.301   0.154  1.00  0.00     0.026 A 
HETATM   16  C19 LIG X 999      -5.242   3.122  -0.730  1.00  0.00     0.014 A 
HETATM   17  C20 LIG X 999      -6.075   2.555  -1.706  1.00  0.00    -0.026 A 
HETATM   18  C21 LIG X 999      -6.786   3.370  -2.602  1.00  0.00     0.012 A 
HETATM   19  C25 LIG X 999      -6.198   1.147  -1.790  1.00  0.00    -0.025 A 
HETATM   20  C22 LIG X 999      -7.610   2.792  -3.572  1.00  0.00     0.001 A 
HETATM   21  C23 LIG X 999      -7.731   1.402  -3.656  1.00  0.00     0.001 A 
HETATM   22  C24 LIG X 999      -7.028   0.580  -2.770  1.00  0.00     0.012 A 
HETATM   23  C26 LIG X 999      -5.486   0.333  -0.897  1.00  0.00     0.037 A 
ENDBRANCH  11  14
ENDBRANCH   9  11
ENDBRANCH   8   9
ENDBRANCH   7   8
ENDBRANCH   3   7
BRANCH   1  24
HETATM   24  C12 LIG X 999       3.048  -2.243   2.057  1.00  0.00     0.062 A 
HETATM   25  C7  LIG X 999       4.322  -1.650   1.859  1.00  0.00    -0.006 A 
HETATM   26  C8  LIG X 999       5.280  -1.725   2.885  1.00  0.00     0.011 A 
HETATM   27  C9  LIG X 999       5.002  -2.414   4.068  1.00  0.00     0.001 A 
HETATM   28  C10 LIG X 999       3.764  -3.033   4.242  1.00  0.00     0.002 A 
HETATM   29  C11 LIG X 999       2.794  -2.951   3.242  1.00  0.00     0.032 A 
BRANCH  25  30
HETATM   30  C6  LIG X 999       4.682  -0.939   0.581  1.00  0.00     0.208 C 
BRANCH  30  31
HETATM   31  O2  LIG X 999       4.329   0.422   0.698  1.00  0.00    -0.384 OA
BRANCH  31  32
HETATM   32  C5  LIG X 999       4.552   1.079  -0.534  1.00  0.00     0.199 C 
BRANCH  32  33
HETATM   33  C3  LIG X 999       4.089   2.537  -0.439  1.00  0.00     0.141 C 
HETATM   34  C4  LIG X 999       4.910   3.302   0.604  1.00  0.00     0.042 C 
BRANCH  33  35
HETATM   35  O1  LIG X 999       2.718   2.556  -0.072  1.00  0.00    -0.385 OA
BRANCH  35  36
HETATM   36  C2  LIG X 999       2.018   3.546  -0.795  1.00  0.00     0.163 C 
HETATM   37  C1  LIG X 999       0.586   3.615  -0.288  1.00  0.00     0.033 C 
ENDBRANCH  35  36
ENDBRANCH  33  35
ENDBRANCH  32  33
ENDBRANCH  31  32
ENDBRANCH  30  31
ENDBRANCH  25  30
ENDBRANCH   1  24
TORSDOF 12
