REMARK  2 active torsions:
REMARK  status: ('A' for Active; 'I' for Inactive)
REMARK    1  A    between atoms: C10_10  and  N1_11 
REMARK    2  A    between atoms: C13_18  and  N4_19 
ROOT
HETATM    1  N1  LIG X 999       4.675   0.412  -1.101  1.00  0.00    -0.066 NA
HETATM    2  N2  LIG X 999       5.619   0.379  -0.309  1.00  0.00    -0.162 NA
HETATM    3  N3  LIG X 999       6.562   0.346   0.480  1.00  0.00     0.068 N 
ENDROOT
BRANCH   1   4
HETATM    4  C10 LIG X 999       3.308   0.427  -0.665  1.00  0.00     0.169 A 
HETATM    5  C9  LIG X 999       2.962   0.402   0.694  1.00  0.00     0.055 A 
HETATM    6  C8  LIG X 999       1.614   0.418   1.065  1.00  0.00     0.001 A 
HETATM    7  C7  LIG X 999       1.235   0.378   2.410  1.00  0.00     0.015 A 
HETATM    8  C12 LIG X 999       0.632   0.458   0.054  1.00  0.00     0.101 A 
HETATM    9  C6  LIG X 999      -0.115   0.399   2.762  1.00  0.00     0.016 A 
HETATM   10  C5  LIG X 999      -1.119   0.479   1.775  1.00  0.00     0.009 A 
HETATM   11  C4  LIG X 999      -0.735   0.473   0.403  1.00  0.00     0.011 A 
HETATM   12  C13 LIG X 999      -2.502   0.519   2.108  1.00  0.00     0.104 A 
HETATM   13  C3  LIG X 999      -1.726   0.463  -0.595  1.00  0.00     0.015 A 
HETATM   14  C2  LIG X 999      -3.075   0.441  -0.250  1.00  0.00     0.003 A 
HETATM   15  C1  LIG X 999      -3.459   0.463   1.088  1.00  0.00     0.035 A 
HETATM   16  O2  LIG X 999       1.004   0.478  -1.225  1.00  0.00    -0.272 OA
HETATM   17  C11 LIG X 999       2.276   0.464  -1.613  1.00  0.00     0.320 A 
HETATM   18  O1  LIG X 999       2.546   0.486  -2.842  1.00  0.00    -0.257 OA
BRANCH  12  19
HETATM   19  N4  LIG X 999      -2.982   0.621   3.457  1.00  0.00    -0.072 NA
HETATM   20  N5  LIG X 999      -2.506   1.423   4.262  1.00  0.00    -0.162 NA
HETATM   21  N6  LIG X 999      -2.034   2.224   5.066  1.00  0.00     0.068 N 
ENDBRANCH  12  19
ENDBRANCH   1   4
TORSDOF 2
