REMARK  5 active torsions:
REMARK  status: ('A' for Active; 'I' for Inactive)
REMARK    1  A    between atoms: C3_3  and  N1_4 
REMARK    2  A    between atoms: N1_4  and  C6_7 
REMARK    3  A    between atoms: C6_7  and  C7_8 
REMARK    4  A    between atoms: C9_10  and  C10_11 
REMARK    5  A    between atoms: C11_14  and  N4_15 
ROOT
HETATM    1  C1  LIG X 999       3.781  -3.383  -1.365  1.00  0.00     0.013 C 
HETATM    2  C2  LIG X 999       2.952  -2.723  -0.791  1.00  0.00    -0.089 C 
HETATM    3  C3  LIG X 999       1.937  -1.911  -0.089  1.00  0.00     0.329 C 
ENDROOT
BRANCH   3   4
HETATM    4  N1  LIG X 999       0.552  -2.470  -0.182  1.00  0.00    -0.061 N 
HETATM    5  C4  LIG X 999       0.526  -3.854   0.359  1.00  0.00     0.273 C 
HETATM    6  C5  LIG X 999       0.100  -2.507  -1.596  1.00  0.00     0.273 C 
BRANCH   4   7
HETATM    7  C6  LIG X 999      -0.392  -1.652   0.645  1.00  0.00     0.275 C 
BRANCH   7   8
HETATM    8  C7  LIG X 999      -0.521  -0.201   0.216  1.00  0.00    -0.035 C 
HETATM    9  C8  LIG X 999       0.285   0.742   0.738  1.00  0.00     0.001 C 
HETATM   10  C9  LIG X 999       0.273   2.167   0.222  1.00  0.00     0.054 C 
HETATM   11  C12 LIG X 999       1.226   2.245  -1.005  1.00  0.00     0.023 C 
HETATM   12  C16 LIG X 999      -1.183   2.563  -0.200  1.00  0.00     0.028 C 
HETATM   13  C13 LIG X 999       1.163   3.606  -1.712  1.00  0.00     0.002 C 
HETATM   14  C14 LIG X 999      -0.267   3.934  -2.145  1.00  0.00     0.001 C 
HETATM   15  C15 LIG X 999      -1.221   3.914  -0.945  1.00  0.00     0.010 C 
HETATM   16  C17 LIG X 999      -1.835   1.467  -1.014  1.00  0.00    -0.020 C 
HETATM   17  C18 LIG X 999      -1.560   0.184  -0.768  1.00  0.00     0.005 C 
BRANCH  10  18
HETATM   18  C10 LIG X 999       0.766   3.067   1.340  1.00  0.00     0.184 A 
HETATM   19  N2  LIG X 999       0.008   3.477   2.379  1.00  0.00    -0.124 NA
HETATM   20  N3  LIG X 999       0.793   4.204   3.158  1.00  0.00    -0.099 NA
HETATM   21  C11 LIG X 999       2.000   4.200   2.567  1.00  0.00     0.326 A 
HETATM   22  O1  LIG X 999       1.999   3.504   1.457  1.00  0.00    -0.255 OA
BRANCH  21  23
HETATM   23  N4  LIG X 999       3.139   4.876   3.095  1.00  0.00    -0.023 NA
HETATM   24  N5  LIG X 999       4.220   4.840   2.507  1.00  0.00    -0.158 NA
HETATM   25  N6  LIG X 999       5.300   4.804   1.920  1.00  0.00     0.068 N 
ENDBRANCH  21  23
ENDBRANCH  10  18
ENDBRANCH   7   8
ENDBRANCH   4   7
ENDBRANCH   3   4
TORSDOF 5
