REMARK  2 active torsions:
REMARK  status: ('A' for Active; 'I' for Inactive)
REMARK    1  A    between atoms: C2_3  and  C3_5 
REMARK    2  A    between atoms: C4_6  and  C5_7 
ROOT
HETATM    1  N1  LIG X 999       0.479  -5.546   2.264  1.00  0.00    -0.187 NA
HETATM    2  C1  LIG X 999       0.394  -5.127   1.188  1.00  0.00     0.152 C 
HETATM    3  C2  LIG X 999       0.289  -4.607  -0.145  1.00  0.00     0.305 C 
HETATM    4  O1  LIG X 999       0.540  -5.348  -1.131  1.00  0.00    -0.266 OA
ENDROOT
BRANCH   3   5
HETATM    5  C3  LIG X 999      -0.104  -3.243  -0.355  1.00  0.00    -0.007 C 
HETATM    6  C4  LIG X 999      -0.433  -2.096  -0.531  1.00  0.00    -0.058 C 
BRANCH   6   7
HETATM    7  C5  LIG X 999      -0.827  -0.728  -0.740  1.00  0.00     0.019 A 
HETATM    8  C6  LIG X 999      -0.929  -0.220  -2.041  1.00  0.00     0.021 A 
HETATM    9  C7  LIG X 999      -1.311   1.108  -2.251  1.00  0.00     0.013 A 
HETATM   10  C8  LIG X 999      -1.594   1.942  -1.159  1.00  0.00    -0.026 A 
HETATM   11  C9  LIG X 999      -1.978   3.277  -1.357  1.00  0.00     0.012 A 
HETATM   12  C13 LIG X 999      -1.490   1.431   0.159  1.00  0.00    -0.025 A 
HETATM   13  C10 LIG X 999      -2.257   4.098  -0.260  1.00  0.00     0.001 A 
HETATM   14  C11 LIG X 999      -2.155   3.594   1.039  1.00  0.00     0.001 A 
HETATM   15  C12 LIG X 999      -1.774   2.265   1.251  1.00  0.00     0.012 A 
HETATM   16  C14 LIG X 999      -1.107   0.096   0.359  1.00  0.00     0.032 A 
ENDBRANCH   6   7
ENDBRANCH   3   5
TORSDOF 2
