REMARK  6 active torsions:
REMARK  status: ('A' for Active; 'I' for Inactive)
REMARK    1  A    between atoms: O1_2  and  C1_3 
REMARK    2  A    between atoms: C1_3  and  C4_6 
REMARK    3  A    between atoms: C4_6  and  O2_7 
REMARK    4  A    between atoms: C4_6  and  O3_9 
REMARK    5  A    between atoms: O3_9  and  C5_10 
REMARK    6  A    between atoms: C10_15  and  N1_16 
ROOT
HETATM    1  N1  LIG X 999      -2.994   5.218  -0.767  1.00  0.00    -0.073 NA
HETATM    2  N2  LIG X 999      -3.918   5.485  -1.536  1.00  0.00    -0.162 NA
HETATM    3  N3  LIG X 999      -4.841   5.754  -2.304  1.00  0.00     0.068 N 
ENDROOT
BRANCH   1   4
HETATM    4  C10 LIG X 999      -2.333   3.945  -0.775  1.00  0.00     0.094 A 
HETATM    5  C9  LIG X 999      -1.290   3.721   0.133  1.00  0.00     0.046 A 
HETATM    6  C8  LIG X 999      -0.619   2.489   0.157  1.00  0.00    -0.024 A 
HETATM    7  C7  LIG X 999       0.425   2.262   1.064  1.00  0.00     0.015 A 
HETATM    8  C13 LIG X 999      -0.999   1.465  -0.742  1.00  0.00    -0.023 A 
HETATM    9  C6  LIG X 999       1.087   1.032   1.080  1.00  0.00     0.038 A 
HETATM   10  C5  LIG X 999       0.722   0.011   0.195  1.00  0.00     0.073 A 
HETATM   11  C14 LIG X 999      -0.328   0.232  -0.719  1.00  0.00     0.049 A 
HETATM   12  C12 LIG X 999      -2.044   1.693  -1.650  1.00  0.00     0.014 A 
HETATM   13  C11 LIG X 999      -2.707   2.923  -1.667  1.00  0.00     0.035 A 
BRANCH  10  14
HETATM   14  O3  LIG X 999       1.425  -1.202   0.259  1.00  0.00    -0.314 OA
BRANCH  14  15
HETATM   15  C4  LIG X 999       1.219  -2.319  -0.604  1.00  0.00     0.321 C 
BRANCH  15  16
HETATM   16  C1  LIG X 999       2.075  -3.479  -0.144  1.00  0.00     0.094 C 
HETATM   17  C2  LIG X 999       3.415  -3.420  -0.068  1.00  0.00     0.006 C 
HETATM   18  C3  LIG X 999       4.232  -2.213  -0.421  1.00  0.00     0.038 C 
BRANCH  16  19
HETATM   19  O1  LIG X 999       1.455  -4.675   0.217  1.00  0.00    -0.360 OA
HETATM   20  H1  LIG X 999       0.450  -4.788   0.179  1.00  0.00     0.217 HD
ENDBRANCH  16  19
ENDBRANCH  15  16
BRANCH  15  21
HETATM   21  O2  LIG X 999       1.543  -1.968  -1.924  1.00  0.00    -0.365 OA
HETATM   22  H7  LIG X 999       1.167  -2.679  -2.507  1.00  0.00     0.213 HD
ENDBRANCH  15  21
ENDBRANCH  14  15
ENDBRANCH  10  14
ENDBRANCH   1   4
TORSDOF 6
