REMARK  8 active torsions:
REMARK  status: ('A' for Active; 'I' for Inactive)
REMARK    1  A    between atoms: C6_6  and  O1_7 
REMARK    2  A    between atoms: O1_7  and  C7_8 
REMARK    3  A    between atoms: C7_8  and  C8_9 
REMARK    4  A    between atoms: C13_14  and  N1_15 
REMARK    5  A    between atoms: C15_17  and  C16_18 
REMARK    6  A    between atoms: C16_18  and  C17_19 
REMARK    7  A    between atoms: C17_19  and  S1_20 
REMARK    8  A    between atoms: S1_20  and  C18_21 
ROOT
HETATM    1  N1  LIG X 999       0.086  -1.200   2.088  1.00  0.00    -0.247 N 
HETATM    2  C14 LIG X 999       0.866  -0.755   3.090  1.00  0.00     0.143 A 
HETATM    3  C15 LIG X 999       0.529   0.567   3.279  1.00  0.00     0.070 A 
HETATM    4  N2  LIG X 999      -0.470   0.877   2.429  1.00  0.00    -0.163 NA
HETATM    5  N3  LIG X 999      -0.715  -0.214   1.717  1.00  0.00     0.009 NA
ENDROOT
BRANCH   1   6
HETATM    6  C13 LIG X 999       0.054  -2.529   1.543  1.00  0.00     0.062 A 
HETATM    7  C8  LIG X 999      -0.054  -2.757   0.147  1.00  0.00    -0.006 A 
HETATM    8  C9  LIG X 999      -0.145  -4.076  -0.330  1.00  0.00     0.012 A 
HETATM    9  C10 LIG X 999      -0.089  -5.156   0.553  1.00  0.00     0.001 A 
HETATM   10  C11 LIG X 999       0.054  -4.933   1.922  1.00  0.00     0.002 A 
HETATM   11  C12 LIG X 999       0.125  -3.630   2.415  1.00  0.00     0.032 A 
BRANCH   7  12
HETATM   12  C7  LIG X 999      -0.043  -1.629  -0.852  1.00  0.00     0.209 C 
BRANCH  12  13
HETATM   13  O1  LIG X 999      -1.365  -1.190  -1.089  1.00  0.00    -0.381 OA
BRANCH  13  14
HETATM   14  C6  LIG X 999      -1.369  -0.067  -1.957  1.00  0.00     0.122 C 
HETATM   15  C5  LIG X 999      -2.586  -0.178  -2.888  1.00  0.00     0.032 C 
HETATM   16  C4  LIG X 999      -2.697   1.048  -3.803  1.00  0.00     0.003 C 
HETATM   17  C3  LIG X 999      -2.776   2.341  -2.982  1.00  0.00     0.004 C 
HETATM   18  C2  LIG X 999      -1.567   2.470  -2.035  1.00  0.00    -0.016 C 
HETATM   19  C1  LIG X 999      -1.682   3.744  -1.189  1.00  0.00     0.010 C 
HETATM   20  C28 LIG X 999      -1.453   1.230  -1.128  1.00  0.00     0.036 C 
ENDBRANCH  13  14
ENDBRANCH  12  13
ENDBRANCH   7  12
ENDBRANCH   1   6
BRANCH   3  21
HETATM   21  C16 LIG X 999       1.057   1.481   4.342  1.00  0.00     0.073 C 
BRANCH  21  22
HETATM   22  C17 LIG X 999       1.431   2.863   3.791  1.00  0.00     0.085 C 
BRANCH  22  23
HETATM   23  S1  LIG X 999       3.162   2.933   3.196  1.00  0.00    -0.129 SA
BRANCH  23  24
HETATM   24  C18 LIG X 999       2.832   2.348   1.520  1.00  0.00     0.011 A 
HETATM   25  C19 LIG X 999       2.285   3.254   0.601  1.00  0.00     0.019 A 
HETATM   26  C20 LIG X 999       2.055   2.874  -0.721  1.00  0.00     0.002 A 
HETATM   27  C21 LIG X 999       2.382   1.589  -1.151  1.00  0.00     0.012 A 
HETATM   28  C22 LIG X 999       2.953   0.671  -0.258  1.00  0.00    -0.025 A 
HETATM   29  C23 LIG X 999       3.302  -0.616  -0.700  1.00  0.00     0.012 A 
HETATM   30  C27 LIG X 999       3.181   1.043   1.094  1.00  0.00    -0.009 A 
HETATM   31  C24 LIG X 999       3.858  -1.537   0.188  1.00  0.00     0.001 A 
HETATM   32  C25 LIG X 999       4.091  -1.178   1.516  1.00  0.00     0.001 A 
HETATM   33  C26 LIG X 999       3.766   0.104   1.968  1.00  0.00     0.013 A 
ENDBRANCH  23  24
ENDBRANCH  22  23
ENDBRANCH  21  22
ENDBRANCH   3  21
TORSDOF 8
