REMARK  2 active torsions:
REMARK  status: ('A' for Active; 'I' for Inactive)
REMARK    1  A    between atoms: C4_4  and  O1_5 
REMARK    2  A    between atoms: C10_11  and  N1_12 
ROOT
HETATM    1  N1  LIG X 999       1.859  -0.629  -2.131  1.00  0.00    -0.072 NA
HETATM    2  N2  LIG X 999       2.601  -1.457  -2.663  1.00  0.00    -0.162 NA
HETATM    3  N3  LIG X 999       3.343  -2.282  -3.194  1.00  0.00     0.068 N 
ENDROOT
BRANCH   1   4
HETATM    4  C10 LIG X 999       0.934  -0.980  -1.089  1.00  0.00     0.101 C 
HETATM    5  C9  LIG X 999       0.172   0.066  -0.520  1.00  0.00     0.007 C 
HETATM    6  C8  LIG X 999      -1.020  -0.050   0.168  1.00  0.00    -0.022 C 
HETATM    7  C12 LIG X 999       0.640   1.474  -0.430  1.00  0.00     0.278 C 
HETATM    8  C7  LIG X 999      -1.946  -1.089   0.015  1.00  0.00     0.012 C 
HETATM    9  C15 LIG X 999      -1.304   1.202   0.916  1.00  0.00     0.276 C 
HETATM   10  C6  LIG X 999      -2.548  -1.760   1.089  1.00  0.00     0.037 C 
HETATM   11  C4  LIG X 999      -1.989  -1.929   2.373  1.00  0.00     0.068 C 
HETATM   12  C3  LIG X 999      -0.602  -1.821   2.652  1.00  0.00     0.037 C 
HETATM   13  C2  LIG X 999       0.427  -1.969   1.712  1.00  0.00     0.003 C 
HETATM   14  C1  LIG X 999       0.307  -2.748   0.555  1.00  0.00     0.002 C 
HETATM   15  C11 LIG X 999       0.803  -2.333  -0.688  1.00  0.00     0.035 C 
HETATM   16  N4  LIG X 999      -0.128   2.092   0.689  1.00  0.00    -0.067 N 
HETATM   17  C13 LIG X 999      -0.560   3.463   0.336  1.00  0.00     0.272 C 
HETATM   18  C14 LIG X 999       0.709   2.147   1.912  1.00  0.00     0.272 C 
BRANCH  11  19
HETATM   19  O1  LIG X 999      -2.898  -2.222   3.403  1.00  0.00    -0.356 OA
HETATM   20  C5  LIG X 999      -2.538  -2.462   4.760  1.00  0.00     0.210 C 
ENDBRANCH  11  19
ENDBRANCH   1   4
TORSDOF 2
