REMARK  3 active torsions:
REMARK  status: ('A' for Active; 'I' for Inactive)
REMARK    1  A    between atoms: C1_2  and  C2_4 
REMARK       I    between atoms: N1_6  and  C4_7 
REMARK    2  A    between atoms: C4_7  and  C5_9 
REMARK    3  A    between atoms: C6_10  and  C7_11 
ROOT
HETATM    1  C5  LIG X 999      -0.446  -1.618   1.972  1.00  0.00     0.000 C 
HETATM    2  C6  LIG X 999      -1.331  -0.948   1.504  1.00  0.00    -0.057 C 
ENDROOT
BRANCH   1   3
HETATM    3  C4  LIG X 999       0.619  -2.414   2.523  1.00  0.00     0.300 C 
HETATM    4  N1  LIG X 999       1.943  -2.349   1.973  1.00  0.00    -0.317 N 
HETATM    5  C3  LIG X 999       2.341  -1.523   0.870  1.00  0.00     0.172 C 
HETATM    6  C17 LIG X 999       3.066  -3.127   2.449  1.00  0.00     0.298 C 
HETATM    7  C2  LIG X 999       3.842  -1.763   0.793  1.00  0.00     0.242 C 
HETATM    8  O4  LIG X 999       4.172  -2.870   1.610  1.00  0.00    -0.354 OA
HETATM    9  O3  LIG X 999       0.375  -3.173   3.498  1.00  0.00    -0.258 OA
BRANCH   7  10
HETATM   10  C1  LIG X 999       4.285  -2.022  -0.616  1.00  0.00     0.204 C 
HETATM   11  O1  LIG X 999       4.771  -1.088  -1.308  1.00  0.00    -0.646 OA
HETATM   12  O2  LIG X 999       4.114  -3.279  -1.183  1.00  0.00    -0.646 OA
ENDBRANCH   7  10
ENDBRANCH   1   3
BRANCH   2  13
HETATM   13  C7  LIG X 999      -2.384  -0.145   0.940  1.00  0.00     0.019 A 
HETATM   14  C8  LIG X 999      -3.674  -0.200   1.483  1.00  0.00     0.021 A 
HETATM   15  C9  LIG X 999      -4.701   0.578   0.940  1.00  0.00     0.013 A 
HETATM   16  C10 LIG X 999      -4.445   1.419  -0.154  1.00  0.00    -0.026 A 
HETATM   17  C11 LIG X 999      -5.468   2.204  -0.708  1.00  0.00     0.012 A 
HETATM   18  C15 LIG X 999      -3.141   1.476  -0.705  1.00  0.00    -0.025 A 
HETATM   19  C12 LIG X 999      -5.201   3.038  -1.797  1.00  0.00     0.001 A 
HETATM   20  C13 LIG X 999      -3.915   3.094  -2.341  1.00  0.00     0.001 A 
HETATM   21  C14 LIG X 999      -2.887   2.317  -1.799  1.00  0.00     0.012 A 
HETATM   22  C16 LIG X 999      -2.118   0.691  -0.152  1.00  0.00     0.032 A 
ENDBRANCH   2  13
TORSDOF 3
