REMARK  8 active torsions:
REMARK  status: ('A' for Active; 'I' for Inactive)
REMARK    1  A    between atoms: O1_2  and  C2_3 
REMARK    2  A    between atoms: C5_8  and  C6_9 
REMARK    3  A    between atoms: C6_9  and  C7_10 
REMARK    4  A    between atoms: N3_12  and  C9_13 
REMARK    5  A    between atoms: C9_13  and  C10_14 
REMARK    6  A    between atoms: C10_14  and  C11_15 
REMARK    7  A    between atoms: C11_15  and  O2_16 
REMARK    8  A    between atoms: O2_16  and  C12_17 
ROOT
HETATM    1  C7  LIG X 999       3.068  -2.085  -3.123  1.00  0.00     0.079 A 
HETATM    2  C8  LIG X 999       3.311  -0.726  -3.125  1.00  0.00     0.141 A 
HETATM    3  N3  LIG X 999       2.434  -0.188  -3.992  1.00  0.00    -0.285 N 
HETATM    4  N4  LIG X 999       1.716  -1.175  -4.504  1.00  0.00    -0.218 N 
HETATM    5  N5  LIG X 999       2.064  -2.343  -3.985  1.00  0.00    -0.162 NA
HETATM    6  H23 LIG X 999       0.922  -1.048  -5.170  1.00  0.00     0.210 HD
ENDROOT
BRANCH   3   7
HETATM    7  C9  LIG X 999       2.103   1.232  -4.117  1.00  0.00     0.152 C 
BRANCH   7   8
HETATM    8  C10 LIG X 999       1.649   1.820  -2.768  1.00  0.00     0.048 C 
BRANCH   8   9
HETATM    9  C11 LIG X 999       0.500   1.031  -2.135  1.00  0.00     0.177 C 
BRANCH   9  10
HETATM   10  O2  LIG X 999       0.262   1.515  -0.814  1.00  0.00    -0.351 OA
BRANCH  10  11
HETATM   11  C12 LIG X 999      -0.598   0.893   0.104  1.00  0.00     0.069 A 
HETATM   12  C13 LIG X 999      -1.407  -0.205  -0.248  1.00  0.00     0.037 A 
HETATM   13  C14 LIG X 999      -2.237  -0.807   0.702  1.00  0.00     0.015 A 
HETATM   14  C15 LIG X 999      -2.277  -0.318   2.017  1.00  0.00    -0.026 A 
HETATM   15  C16 LIG X 999      -3.116  -0.909   2.976  1.00  0.00     0.012 A 
HETATM   16  C20 LIG X 999      -1.467   0.786   2.378  1.00  0.00    -0.023 A 
HETATM   17  C17 LIG X 999      -3.151  -0.409   4.282  1.00  0.00     0.001 A 
HETATM   18  C18 LIG X 999      -2.348   0.675   4.641  1.00  0.00     0.001 A 
HETATM   19  C19 LIG X 999      -1.506   1.272   3.695  1.00  0.00     0.012 A 
HETATM   20  C21 LIG X 999      -0.635   1.383   1.416  1.00  0.00     0.049 A 
ENDBRANCH  10  11
ENDBRANCH   9  10
ENDBRANCH   8   9
ENDBRANCH   7   8
ENDBRANCH   3   7
BRANCH   1  21
HETATM   21  C6  LIG X 999       3.569  -3.060  -2.104  1.00  0.00     0.126 C 
BRANCH  21  22
HETATM   22  C5  LIG X 999       2.972  -2.731  -0.761  1.00  0.00     0.090 A 
HETATM   23  C2  LIG X 999       1.621  -3.002  -0.469  1.00  0.00     0.167 A 
HETATM   24  N1  LIG X 999       1.106  -2.591   0.729  1.00  0.00    -0.344 N 
HETATM   25  C3  LIG X 999       1.874  -1.930   1.636  1.00  0.00     0.109 A 
HETATM   26  H4  LIG X 999       0.107  -2.762   0.968  1.00  0.00     0.167 HD
HETATM   27  C4  LIG X 999       3.210  -1.664   1.344  1.00  0.00     0.134 A 
HETATM   28  N2  LIG X 999       3.725  -2.062   0.153  1.00  0.00    -0.259 NA
BRANCH  23  29
HETATM   29  O1  LIG X 999       0.835  -3.686  -1.410  1.00  0.00    -0.339 OA
HETATM   30  C1  LIG X 999      -0.528  -4.042  -1.208  1.00  0.00     0.211 C 
ENDBRANCH  23  29
ENDBRANCH  21  22
ENDBRANCH   1  21
TORSDOF 8
