REMARK  3 active torsions:
REMARK  status: ('A' for Active; 'I' for Inactive)
REMARK    1  A    between atoms: C3_3  and  O1_4 
REMARK    2  A    between atoms: O1_4  and  C4_5 
REMARK    3  A    between atoms: C13_14  and  C14_15 
ROOT
HETATM    1  C1  LIG X 999       3.878   1.584   1.029  1.00  0.00     0.014 C 
HETATM    2  C2  LIG X 999       3.643   0.681   0.265  1.00  0.00    -0.091 C 
HETATM    3  C3  LIG X 999       3.353  -0.416  -0.664  1.00  0.00     0.268 C 
ENDROOT
BRANCH   3   4
HETATM    4  O1  LIG X 999       2.303  -1.237  -0.154  1.00  0.00    -0.339 OA
BRANCH   4   5
HETATM    5  C4  LIG X 999       0.946  -0.873  -0.062  1.00  0.00     0.084 A 
HETATM    6  C5  LIG X 999       0.478   0.372  -0.529  1.00  0.00     0.050 A 
HETATM    7  C6  LIG X 999      -0.877   0.711  -0.425  1.00  0.00    -0.023 A 
HETATM    8  C7  LIG X 999      -1.341   1.953  -0.889  1.00  0.00     0.012 A 
HETATM    9  C11 LIG X 999      -1.787  -0.204   0.151  1.00  0.00    -0.025 A 
HETATM   10  C8  LIG X 999      -2.696   2.281  -0.780  1.00  0.00     0.001 A 
HETATM   11  C9  LIG X 999      -3.595   1.377  -0.211  1.00  0.00     0.001 A 
HETATM   12  C10 LIG X 999      -3.145   0.137   0.254  1.00  0.00     0.012 A 
HETATM   13  C12 LIG X 999      -1.326  -1.443   0.613  1.00  0.00     0.029 A 
HETATM   14  C13 LIG X 999       0.035  -1.786   0.511  1.00  0.00     0.036 A 
BRANCH  14  15
HETATM   15  C14 LIG X 999       0.507  -3.098   1.005  1.00  0.00     0.272 C 
HETATM   16  O2  LIG X 999      -0.292  -3.925   1.520  1.00  0.00    -0.301 OA
ENDBRANCH  14  15
ENDBRANCH   4   5
ENDBRANCH   3   4
TORSDOF 3
