REMARK  5 active torsions:
REMARK  status: ('A' for Active; 'I' for Inactive)
REMARK    1  A    between atoms: C3_3  and  C4_4 
REMARK    2  A    between atoms: C4_4  and  S1_5 
REMARK    3  A    between atoms: S1_5  and  C5_6 
REMARK    4  A    between atoms: C6_7  and  N1_8 
REMARK    5  A    between atoms: C10_12  and  N2_13 
ROOT
HETATM    1  C1  LIG X 999       5.111  -4.509  -0.812  1.00  0.00     0.112 C 
HETATM    2  C2  LIG X 999       4.503  -3.268  -0.334  1.00  0.00    -0.110 C 
HETATM    3  C3  LIG X 999       3.995  -2.249   0.062  1.00  0.00    -0.097 C 
ENDROOT
BRANCH   3   4
HETATM    4  C4  LIG X 999       3.369  -1.016   0.543  1.00  0.00     0.173 C 
BRANCH   4   5
HETATM    5  S1  LIG X 999       2.157  -1.384   1.857  1.00  0.00    -0.115 SA
BRANCH   5   6
HETATM    6  C5  LIG X 999       0.913  -2.082   0.738  1.00  0.00     0.038 A 
HETATM    7  C6  LIG X 999       0.854  -3.481   0.548  1.00  0.00     0.043 A 
HETATM    8  C7  LIG X 999      -0.090  -4.022  -0.327  1.00  0.00     0.031 A 
HETATM    9  C8  LIG X 999      -0.981  -3.206  -1.017  1.00  0.00     0.017 A 
HETATM   10  C9  LIG X 999      -0.956  -1.809  -0.854  1.00  0.00     0.002 A 
HETATM   11  C10 LIG X 999      -1.863  -0.958  -1.556  1.00  0.00     0.045 A 
HETATM   12  C14 LIG X 999      -0.009  -1.241   0.059  1.00  0.00    -0.004 A 
HETATM   13  C11 LIG X 999      -1.831   0.416  -1.275  1.00  0.00     0.003 A 
HETATM   14  C12 LIG X 999      -0.936   0.947  -0.402  1.00  0.00    -0.021 A 
HETATM   15  C18 LIG X 999      -2.651   1.498  -1.877  1.00  0.00     0.278 C 
HETATM   16  C13 LIG X 999      -0.010   0.157   0.268  1.00  0.00     0.023 A 
HETATM   17  C15 LIG X 999      -1.066   2.418  -0.338  1.00  0.00     0.276 C 
HETATM   18  N3  LIG X 999      -2.278   2.751  -1.147  1.00  0.00    -0.067 N 
HETATM   19  C16 LIG X 999      -3.385   3.168  -0.254  1.00  0.00     0.272 C 
HETATM   20  C17 LIG X 999      -1.988   3.847  -2.100  1.00  0.00     0.272 C 
BRANCH   7  21
HETATM   21  N1  LIG X 999       1.731  -4.376   1.249  1.00  0.00    -0.398 N 
HETATM   22  H6  LIG X 999       2.424  -4.045   1.954  1.00  0.00     0.156 HD
HETATM   23  H7  LIG X 999       1.683  -5.405   1.079  1.00  0.00     0.156 HD
ENDBRANCH   7  21
BRANCH  11  24
HETATM   24  N2  LIG X 999      -2.777  -1.452  -2.549  1.00  0.00    -0.398 N 
HETATM   25  H10 LIG X 999      -3.528  -0.840  -2.936  1.00  0.00     0.156 HD
HETATM   26  H11 LIG X 999      -2.659  -2.377  -3.013  1.00  0.00     0.156 HD
ENDBRANCH  11  24
ENDBRANCH   5   6
ENDBRANCH   4   5
ENDBRANCH   3   4
TORSDOF 5
