REMARK  3 active torsions:
REMARK  status: ('A' for Active; 'I' for Inactive)
REMARK    1  A    between atoms: C7_9  and  C8_10 
REMARK    2  A    between atoms: C9_13  and  N4_14 
REMARK    3  A    between atoms: N7_23  and  C14_24 
ROOT
HETATM    1  N4  LIG X 999      -2.456   2.329   4.733  1.00  0.00    -0.023 NA
HETATM    2  N5  LIG X 999      -3.390   3.079   5.018  1.00  0.00    -0.158 NA
HETATM    3  N6  LIG X 999      -4.322   3.829   5.303  1.00  0.00     0.068 N 
ENDROOT
BRANCH   1   4
HETATM    4  C9  LIG X 999      -2.053   2.138   3.377  1.00  0.00     0.326 A 
HETATM    5  N3  LIG X 999      -2.631   2.740   2.321  1.00  0.00    -0.099 NA
HETATM    6  N2  LIG X 999      -1.974   2.308   1.256  1.00  0.00    -0.119 NA
HETATM    7  C8  LIG X 999      -1.031   1.456   1.706  1.00  0.00     0.205 A 
HETATM    8  O1  LIG X 999      -1.068   1.356   3.014  1.00  0.00    -0.252 OA
BRANCH   7   9
HETATM    9  C7  LIG X 999      -0.034   0.779   0.856  1.00  0.00     0.032 A 
HETATM   10  C6  LIG X 999      -0.333   0.254  -0.440  1.00  0.00     0.020 A 
HETATM   11  C1  LIG X 999      -1.665   0.115  -1.115  1.00  0.00     0.060 A 
HETATM   12  C5  LIG X 999       0.736  -0.245  -1.162  1.00  0.00     0.019 A 
HETATM   13  N1  LIG X 999      -2.768   0.347  -0.480  1.00  0.00    -0.299 NA
HETATM   14  C2  LIG X 999      -1.709  -0.408  -2.525  1.00  0.00     0.034 A 
HETATM   15  H1  LIG X 999      -3.703   0.219  -0.928  1.00  0.00     0.187 HD
HETATM   16  C3  LIG X 999      -0.591  -0.831  -3.150  1.00  0.00     0.033 A 
HETATM   17  C4  LIG X 999       0.685  -0.764  -2.417  1.00  0.00     0.048 A 
HETATM   18  N7  LIG X 999       1.926  -1.157  -2.797  1.00  0.00    -0.324 N 
HETATM   19  C13 LIG X 999       2.747  -0.858  -1.752  1.00  0.00     0.193 A 
HETATM   20  C12 LIG X 999       2.016  -0.295  -0.718  1.00  0.00     0.032 A 
HETATM   21  O2  LIG X 999       4.118  -1.085  -1.741  1.00  0.00    -0.171 OA
HETATM   22  C11 LIG X 999       2.348   0.166   0.550  1.00  0.00     0.018 A 
HETATM   23  C10 LIG X 999       1.307   0.703   1.341  1.00  0.00     0.018 A 
BRANCH  18  24
HETATM   24  C14 LIG X 999       2.323  -1.708  -4.092  1.00  0.00     0.127 C 
HETATM   25  C15 LIG X 999       2.587  -0.584  -5.086  1.00  0.00     0.027 C 
ENDBRANCH  18  24
ENDBRANCH   7   9
ENDBRANCH   1   4
TORSDOF 3
