REMARK  12 active torsions:
REMARK  status: ('A' for Active; 'I' for Inactive)
REMARK    1  A    between atoms: C2_2  and  C3_3 
REMARK    2  A    between atoms: C3_3  and  C4_4 
REMARK    3  A    between atoms: C4_4  and  C5_5 
REMARK    4  A    between atoms: C4_4  and  O1_8 
REMARK    5  A    between atoms: C5_5  and  C6_6 
REMARK    6  A    between atoms: O1_8  and  C8_9 
REMARK    7  A    between atoms: C8_9  and  C9_10 
REMARK    8  A    between atoms: C14_15  and  N1_16 
REMARK    9  A    between atoms: C15_19  and  C16_20 
REMARK   10  A    between atoms: C18_22  and  C19_23 
REMARK   11  A    between atoms: C19_23  and  O2_24 
REMARK   12  A    between atoms: O2_24  and  C20_25 
ROOT
HETATM    1  N1  LIG X 999      -2.001   2.746  -1.088  1.00  0.00    -0.240 N 
HETATM    2  N2  LIG X 999      -3.311   2.651  -0.928  1.00  0.00    -0.212 N 
HETATM    3  N3  LIG X 999      -3.632   2.521   0.351  1.00  0.00    -0.161 NA
HETATM    4  C15 LIG X 999      -2.470   2.546   1.039  1.00  0.00     0.082 A 
HETATM    5  C18 LIG X 999      -1.432   2.694   0.132  1.00  0.00     0.086 A 
HETATM    6  H20 LIG X 999      -4.009   2.688  -1.703  1.00  0.00     0.211 HD
ENDROOT
BRANCH   1   7
HETATM    7  C14 LIG X 999      -1.347   2.965  -2.346  1.00  0.00     0.066 A 
HETATM    8  C9  LIG X 999      -1.264   1.943  -3.318  1.00  0.00    -0.006 A 
HETATM    9  C10 LIG X 999      -0.585   2.200  -4.525  1.00  0.00     0.012 A 
HETATM   10  C11 LIG X 999      -0.007   3.449  -4.764  1.00  0.00     0.001 A 
HETATM   11  C12 LIG X 999      -0.095   4.455  -3.802  1.00  0.00     0.002 A 
HETATM   12  C13 LIG X 999      -0.760   4.215  -2.599  1.00  0.00     0.032 A 
BRANCH   8  13
HETATM   13  C8  LIG X 999      -1.860   0.579  -3.079  1.00  0.00     0.209 C 
BRANCH  13  14
HETATM   14  O1  LIG X 999      -1.250  -0.014  -1.948  1.00  0.00    -0.381 OA
BRANCH  14  15
HETATM   15  C4  LIG X 999      -1.381  -1.428  -1.972  1.00  0.00     0.125 C 
BRANCH  15  16
HETATM   16  C3  LIG X 999      -0.021  -2.032  -2.382  1.00  0.00     0.058 C 
BRANCH  16  17
HETATM   17  C2  LIG X 999      -0.090  -3.522  -2.606  1.00  0.00    -0.034 C 
HETATM   18  C1  LIG X 999      -0.729  -4.046  -3.657  1.00  0.00     0.007 C 
ENDBRANCH  16  17
ENDBRANCH  15  16
BRANCH  15  19
HETATM   19  C5  LIG X 999      -1.801  -1.918  -0.574  1.00  0.00     0.032 C 
BRANCH  19  20
HETATM   20  C6  LIG X 999      -3.187  -1.394  -0.180  1.00  0.00    -0.002 C 
HETATM   21  C7  LIG X 999      -3.696  -2.089   1.082  1.00  0.00     0.005 C 
ENDBRANCH  19  20
ENDBRANCH  15  19
ENDBRANCH  14  15
ENDBRANCH  13  14
ENDBRANCH   8  13
ENDBRANCH   1   7
BRANCH   5  22
HETATM   22  C19 LIG X 999       0.041   2.624   0.409  1.00  0.00     0.237 C 
BRANCH  22  23
HETATM   23  O2  LIG X 999       0.410   1.263   0.612  1.00  0.00    -0.345 OA
BRANCH  23  24
HETATM   24  C20 LIG X 999       1.725   0.820   0.818  1.00  0.00     0.070 A 
HETATM   25  C21 LIG X 999       2.826   1.698   0.811  1.00  0.00     0.037 A 
HETATM   26  C22 LIG X 999       4.123   1.210   0.998  1.00  0.00     0.015 A 
HETATM   27  C23 LIG X 999       4.339  -0.160   1.203  1.00  0.00    -0.026 A 
HETATM   28  C24 LIG X 999       5.637  -0.661   1.392  1.00  0.00     0.012 A 
HETATM   29  C28 LIG X 999       3.235  -1.046   1.224  1.00  0.00    -0.023 A 
HETATM   30  C25 LIG X 999       5.837  -2.030   1.597  1.00  0.00     0.001 A 
HETATM   31  C26 LIG X 999       4.747  -2.904   1.617  1.00  0.00     0.001 A 
HETATM   32  C27 LIG X 999       3.450  -2.417   1.431  1.00  0.00     0.012 A 
HETATM   33  C29 LIG X 999       1.938  -0.546   1.030  1.00  0.00     0.049 A 
ENDBRANCH  23  24
ENDBRANCH  22  23
ENDBRANCH   5  22
BRANCH   4  34
HETATM   34  C16 LIG X 999      -2.369   2.348   2.521  1.00  0.00     0.059 C 
HETATM   35  C17 LIG X 999      -2.386   0.864   2.870  1.00  0.00     0.011 C 
ENDBRANCH   4  34
TORSDOF 12
