REMARK  9 active torsions:
REMARK  status: ('A' for Active; 'I' for Inactive)
REMARK    1  A    between atoms: O1_2  and  C2_3 
REMARK    2  A    between atoms: C4_6  and  N1_7 
REMARK    3  A    between atoms: C6_9  and  C7_10 
REMARK    4  A    between atoms: C7_10  and  C8_11 
REMARK    5  A    between atoms: C8_11  and  O3_12 
REMARK    6  A    between atoms: O3_12  and  C9_13 
REMARK    7  A    between atoms: C18_22  and  C19_23 
REMARK    8  A    between atoms: C20_27  and  O5_28 
REMARK    9  A    between atoms: C21_29  and  O6_30 
ROOT
HETATM    1  N1  LIG X 999      -2.264   1.249   2.244  1.00  0.00    -0.274 N 
HETATM    2  C5  LIG X 999      -1.272   0.338   2.225  1.00  0.00     0.137 A 
HETATM    3  C6  LIG X 999      -1.373  -0.374   3.403  1.00  0.00     0.071 A 
HETATM    4  N2  LIG X 999      -2.402   0.135   4.113  1.00  0.00    -0.163 NA
HETATM    5  N3  LIG X 999      -2.923   1.115   3.387  1.00  0.00     0.005 NA
ENDROOT
BRANCH   3   6
HETATM    6  C7  LIG X 999      -0.528  -1.536   3.860  1.00  0.00     0.088 C 
BRANCH   6   7
HETATM    7  C8  LIG X 999       0.386  -2.081   2.757  1.00  0.00     0.181 C 
BRANCH   7   8
HETATM    8  O3  LIG X 999      -0.397  -2.413   1.611  1.00  0.00    -0.350 OA
BRANCH   8   9
HETATM    9  C9  LIG X 999       0.101  -2.531   0.302  1.00  0.00     0.082 A 
HETATM   10  C10 LIG X 999       1.474  -2.718   0.070  1.00  0.00     0.038 A 
HETATM   11  C11 LIG X 999       1.972  -2.793  -1.228  1.00  0.00     0.015 A 
HETATM   12  C12 LIG X 999       1.108  -2.710  -2.326  1.00  0.00    -0.025 A 
HETATM   13  C13 LIG X 999       1.626  -2.805  -3.628  1.00  0.00     0.012 A 
HETATM   14  C17 LIG X 999      -0.290  -2.547  -2.121  1.00  0.00    -0.010 A 
HETATM   15  C14 LIG X 999       0.770  -2.770  -4.732  1.00  0.00     0.001 A 
HETATM   16  C15 LIG X 999      -0.607  -2.647  -4.548  1.00  0.00     0.001 A 
HETATM   17  C16 LIG X 999      -1.137  -2.538  -3.258  1.00  0.00     0.013 A 
HETATM   18  C18 LIG X 999      -0.795  -2.433  -0.792  1.00  0.00     0.046 A 
BRANCH  18  19
HETATM   19  C19 LIG X 999      -2.230  -2.133  -0.536  1.00  0.00     0.273 C 
HETATM   20  O4  LIG X 999      -2.782  -2.439   0.557  1.00  0.00    -0.301 OA
ENDBRANCH  18  19
ENDBRANCH   8   9
ENDBRANCH   7   8
ENDBRANCH   6   7
ENDBRANCH   3   6
BRANCH   1  21
HETATM   21  C4  LIG X 999      -2.614   2.232   1.208  1.00  0.00     0.161 C 
HETATM   22  C3  LIG X 999      -2.770   1.565  -0.174  1.00  0.00     0.200 C 
HETATM   23  O2  LIG X 999      -1.520   1.143  -0.691  1.00  0.00    -0.356 OA
HETATM   24  C2  LIG X 999      -0.684   2.262  -0.952  1.00  0.00     0.290 C 
HETATM   25  C21 LIG X 999      -0.313   2.976   0.367  1.00  0.00     0.204 C 
HETATM   26  C20 LIG X 999      -1.587   3.387   1.135  1.00  0.00     0.178 C 
BRANCH  24  27
HETATM   27  O1  LIG X 999       0.513   1.809  -1.560  1.00  0.00    -0.363 OA
HETATM   28  C1  LIG X 999       0.271   1.448  -2.905  1.00  0.00     0.204 C 
ENDBRANCH  24  27
BRANCH  25  29
HETATM   29  O6  LIG X 999       0.452   4.120   0.072  1.00  0.00    -0.388 OA
HETATM   30  H23 LIG X 999       0.938   4.365   0.904  1.00  0.00     0.210 HD
ENDBRANCH  25  29
BRANCH  26  31
HETATM   31  O5  LIG X 999      -1.242   3.823   2.428  1.00  0.00    -0.391 OA
HETATM   32  H21 LIG X 999      -2.035   4.300   2.791  1.00  0.00     0.210 HD
ENDBRANCH  26  31
ENDBRANCH   1  21
TORSDOF 9
