REMARK  1 active torsions:
REMARK  status: ('A' for Active; 'I' for Inactive)
REMARK    1  A    between atoms: N1_1  and  C1_2 
ROOT
HETATM    1  C1  LIG X 999      -0.872  -0.724  -1.070  1.00  0.00     0.026 A 
HETATM    2  C2  LIG X 999      -1.573  -0.372   0.091  1.00  0.00     0.030 A 
HETATM    3  C3  LIG X 999      -0.944   0.353   1.106  1.00  0.00     0.014 A 
HETATM    4  C4  LIG X 999       0.398   0.738   0.971  1.00  0.00    -0.026 A 
HETATM    5  C5  LIG X 999       1.040   1.467   1.983  1.00  0.00     0.012 A 
HETATM    6  C6  LIG X 999       2.378   1.844   1.835  1.00  0.00     0.001 A 
HETATM    7  C7  LIG X 999       3.083   1.497   0.680  1.00  0.00     0.001 A 
HETATM    8  C8  LIG X 999       2.455   0.770  -0.337  1.00  0.00     0.012 A 
HETATM    9  C9  LIG X 999       1.112   0.386  -0.201  1.00  0.00    -0.024 A 
HETATM   10  C10 LIG X 999       0.471  -0.343  -1.214  1.00  0.00     0.041 A 
ENDROOT
BRANCH   1  11
HETATM   11  N1  LIG X 999      -1.522  -1.467  -2.104  1.00  0.00    -0.399 N 
HETATM   12  H1  LIG X 999      -2.521  -1.755  -2.008  1.00  0.00     0.156 HD
HETATM   13  H2  LIG X 999      -1.010  -1.734  -2.974  1.00  0.00     0.156 HD
ENDBRANCH   1  11
TORSDOF 1
