REMARK  3 active torsions:
REMARK  status: ('A' for Active; 'I' for Inactive)
REMARK    1  A    between atoms: C3_3  and  O1_4 
REMARK    2  A    between atoms: O1_4  and  C4_5 
REMARK    3  A    between atoms: C5_7  and  C6_8 
ROOT
HETATM    1  C1  LIG X 999       0.852  -0.451  -3.327  1.00  0.00     0.014 C 
HETATM    2  C2  LIG X 999      -0.120  -0.140  -2.685  1.00  0.00    -0.091 C 
HETATM    3  C3  LIG X 999      -1.298   0.237  -1.904  1.00  0.00     0.270 C 
ENDROOT
BRANCH   3   4
HETATM    4  O1  LIG X 999      -1.088  -0.116  -0.544  1.00  0.00    -0.317 OA
BRANCH   4   5
HETATM    5  C4  LIG X 999      -2.029   0.152   0.455  1.00  0.00     0.217 C 
HETATM    6  O2  LIG X 999      -3.244   0.749   0.131  1.00  0.00    -0.164 OA
HETATM    7  C5  LIG X 999      -1.777  -0.171   1.726  1.00  0.00     0.079 C 
BRANCH   7   8
HETATM    8  C6  LIG X 999      -0.529  -0.848   2.144  1.00  0.00    -0.020 A 
HETATM    9  C7  LIG X 999      -0.649  -2.107   2.752  1.00  0.00     0.012 A 
HETATM   10  C8  LIG X 999       0.483  -2.828   3.128  1.00  0.00     0.002 A 
HETATM   11  C9  LIG X 999       1.756  -2.301   2.914  1.00  0.00     0.012 A 
HETATM   12  C10 LIG X 999       1.907  -1.032   2.340  1.00  0.00    -0.025 A 
HETATM   13  C11 LIG X 999       3.191  -0.496   2.152  1.00  0.00     0.012 A 
HETATM   14  C15 LIG X 999       0.761  -0.281   1.962  1.00  0.00    -0.015 A 
HETATM   15  C12 LIG X 999       3.349   0.781   1.612  1.00  0.00     0.001 A 
HETATM   16  C13 LIG X 999       2.229   1.538   1.266  1.00  0.00     0.001 A 
HETATM   17  C14 LIG X 999       0.945   1.019   1.444  1.00  0.00     0.013 A 
ENDBRANCH   7   8
ENDBRANCH   4   5
ENDBRANCH   3   4
TORSDOF 3
