REMARK  3 active torsions:
REMARK  status: ('A' for Active; 'I' for Inactive)
REMARK    1  A    between atoms: C6_6  and  C7_7 
REMARK    2  A    between atoms: C8_8  and  C9_9 
REMARK    3  A    between atoms: C10_12  and  N1_13 
ROOT
HETATM    1  N1  LIG X 999      -0.150   2.061  -1.292  1.00  0.00    -0.105 NA
HETATM    2  N2  LIG X 999      -0.165   3.032  -2.050  1.00  0.00    -0.167 NA
HETATM    3  N3  LIG X 999      -0.180   4.001  -2.806  1.00  0.00     0.068 N 
ENDROOT
BRANCH   1   4
HETATM    4  C10 LIG X 999      -1.116   1.935  -0.204  1.00  0.00     0.179 C 
HETATM    5  C4  LIG X 999      -0.698   0.784   0.687  1.00  0.00    -0.023 A 
HETATM    6  C3  LIG X 999      -1.317  -0.487   0.601  1.00  0.00    -0.050 A 
HETATM    7  C5  LIG X 999       0.394   0.962   1.555  1.00  0.00     0.030 A 
HETATM    8  C2  LIG X 999      -0.857  -1.535   1.413  1.00  0.00     0.009 A 
HETATM    9  C13 LIG X 999      -2.539  -0.718  -0.257  1.00  0.00     0.039 C 
HETATM   10  C1  LIG X 999       0.224  -1.343   2.276  1.00  0.00     0.021 A 
HETATM   11  C6  LIG X 999       0.851  -0.096   2.349  1.00  0.00     0.018 A 
HETATM   12  C12 LIG X 999      -2.708   0.343  -1.347  1.00  0.00     0.007 C 
HETATM   13  C11 LIG X 999      -2.539   1.744  -0.759  1.00  0.00     0.035 C 
BRANCH  11  14
HETATM   14  C7  LIG X 999       1.967   0.098   3.236  1.00  0.00    -0.056 C 
HETATM   15  C8  LIG X 999       2.902   0.262   3.979  1.00  0.00     0.010 C 
BRANCH  15  16
HETATM   16  C9  LIG X 999       4.015   0.457   4.864  1.00  0.00     0.258 C 
HETATM   17  O1  LIG X 999       4.413  -0.489   5.592  1.00  0.00    -0.637 OA
HETATM   18  O2  LIG X 999       4.653   1.688   4.916  1.00  0.00    -0.637 OA
ENDBRANCH  15  16
ENDBRANCH  11  14
ENDBRANCH   1   4
TORSDOF 3
