REMARK  2 active torsions:
REMARK  status: ('A' for Active; 'I' for Inactive)
REMARK    1  A    between atoms: C2_2  and  N1_3 
REMARK    2  A    between atoms: C3_6  and  O1_7 
ROOT
HETATM    1  N1  LIG X 999       0.220  -0.913  -4.918  1.00  0.00    -0.070 NA
HETATM    2  N2  LIG X 999       0.940  -0.089  -5.484  1.00  0.00    -0.162 NA
HETATM    3  N3  LIG X 999       1.657   0.734  -6.052  1.00  0.00     0.068 N 
ENDROOT
BRANCH   1   4
HETATM    4  C2  LIG X 999       0.100  -0.977  -3.488  1.00  0.00     0.127 A 
HETATM    5  C1  LIG X 999       0.806  -0.089  -2.655  1.00  0.00     0.049 A 
HETATM    6  C11 LIG X 999       0.676  -0.166  -1.263  1.00  0.00    -0.023 A 
HETATM    7  C6  LIG X 999      -0.177  -1.149  -0.690  1.00  0.00    -0.022 A 
HETATM    8  C10 LIG X 999       1.385   0.720  -0.427  1.00  0.00     0.021 A 
HETATM    9  C5  LIG X 999      -0.877  -2.030  -1.524  1.00  0.00     0.051 A 
HETATM   10  C7  LIG X 999      -0.308  -1.231   0.711  1.00  0.00     0.021 A 
HETATM   11  C3  LIG X 999      -0.744  -1.949  -2.924  1.00  0.00     0.100 A 
HETATM   12  C8  LIG X 999       0.405  -0.330   1.504  1.00  0.00    -0.024 A 
HETATM   13  C9  LIG X 999       1.221   0.611   0.955  1.00  0.00    -0.024 A 
HETATM   14  C15 LIG X 999       0.437  -0.248   2.980  1.00  0.00     0.276 C 
HETATM   15  C12 LIG X 999       1.876   1.411   2.012  1.00  0.00     0.276 C 
HETATM   16  N4  LIG X 999       1.250   0.969   3.299  1.00  0.00    -0.067 N 
HETATM   17  C13 LIG X 999       0.373   2.039   3.830  1.00  0.00     0.272 C 
HETATM   18  C14 LIG X 999       2.289   0.654   4.305  1.00  0.00     0.272 C 
BRANCH  11  19
HETATM   19  O1  LIG X 999      -1.433  -2.817  -3.787  1.00  0.00    -0.353 OA
HETATM   20  C4  LIG X 999      -2.318  -3.847  -3.360  1.00  0.00     0.210 C 
ENDBRANCH  11  19
ENDBRANCH   1   4
TORSDOF 2
