REMARK  1 active torsions:
REMARK  status: ('A' for Active; 'I' for Inactive)
REMARK    1  A    between atoms: C8_8  and  N1_9 
ROOT
HETATM    1  N1  LIG X 999      -1.150   0.070  -2.789  1.00  0.00    -0.072 NA
HETATM    2  N2  LIG X 999      -0.377   0.966  -3.128  1.00  0.00    -0.162 NA
HETATM    3  N3  LIG X 999       0.396   1.858  -3.474  1.00  0.00     0.068 N 
ENDROOT
BRANCH   1   4
HETATM    4  C8  LIG X 999      -1.032  -0.627  -1.540  1.00  0.00     0.104 A 
HETATM    5  C7  LIG X 999      -1.390  -2.003  -1.517  1.00  0.00     0.038 A 
HETATM    6  C6  LIG X 999      -1.259  -2.780  -0.344  1.00  0.00     0.035 A 
HETATM    7  C5  LIG X 999      -0.772  -2.158   0.802  1.00  0.00     0.073 A 
HETATM    8  C4  LIG X 999      -0.457  -0.831   0.777  1.00  0.00     0.021 A 
HETATM    9  N4  LIG X 999      -0.589  -2.725   2.104  1.00  0.00    -0.209 NA
HETATM   10  C3  LIG X 999      -0.064  -0.404   2.004  1.00  0.00     0.047 A 
HETATM   11  C9  LIG X 999      -0.579  -0.010  -0.337  1.00  0.00     0.009 A 
HETATM   12  C2  LIG X 999       0.243   0.935   2.230  1.00  0.00     0.018 A 
HETATM   13  C11 LIG X 999      -0.136  -1.587   2.855  1.00  0.00     0.278 A 
HETATM   14  C1  LIG X 999       0.125   1.825   1.140  1.00  0.00     0.002 A 
HETATM   15  C10 LIG X 999      -0.293   1.363  -0.136  1.00  0.00     0.015 A 
HETATM   16  O1  LIG X 999       0.146  -1.625   4.082  1.00  0.00    -0.265 OA
ENDBRANCH   1   4
TORSDOF 1
