REMARK  1 active torsions:
REMARK  status: ('A' for Active; 'I' for Inactive)
REMARK    1  A    between atoms: N1_2  and  C1_3 
ROOT
HETATM    1  C1  LIG X 999      -0.212   2.103   2.189  1.00  0.00     0.120 C 
HETATM    2  C2  LIG X 999      -1.239   1.867   1.275  1.00  0.00     0.057 C 
HETATM    3  C3  LIG X 999      -1.113   0.855   0.312  1.00  0.00    -0.045 C 
HETATM    4  C4  LIG X 999      -2.120   0.882  -0.812  1.00  0.00     0.049 C 
HETATM    5  C5  LIG X 999       0.013  -0.027   0.367  1.00  0.00     0.008 C 
HETATM    6  C6  LIG X 999       0.162  -1.226  -0.408  1.00  0.00    -0.013 C 
HETATM    7  C7  LIG X 999      -0.922  -1.901  -1.017  1.00  0.00     0.013 C 
HETATM    8  C8  LIG X 999      -0.715  -3.033  -1.809  1.00  0.00     0.001 C 
HETATM    9  C9  LIG X 999       0.566  -3.551  -1.974  1.00  0.00     0.001 C 
HETATM   10  C10 LIG X 999       1.640  -2.973  -1.302  1.00  0.00     0.012 C 
HETATM   11  C11 LIG X 999       1.444  -1.843  -0.490  1.00  0.00    -0.025 C 
HETATM   12  C12 LIG X 999       2.506  -1.365   0.280  1.00  0.00     0.014 C 
HETATM   13  C13 LIG X 999       2.309  -0.321   1.172  1.00  0.00     0.031 C 
HETATM   14  C14 LIG X 999       1.080   0.346   1.235  1.00  0.00     0.045 C 
HETATM   15  N2  LIG X 999       0.929   1.370   2.124  1.00  0.00    -0.341 N 
HETATM   16  H12 LIG X 999       1.710   1.604   2.781  1.00  0.00     0.167 HD
ENDROOT
BRANCH   1  17
HETATM   17  N1  LIG X 999      -0.320   3.045   3.075  1.00  0.00    -0.284 NA
HETATM   18  H1  LIG X 999      -1.171   3.647   3.155  1.00  0.00     0.188 HD
ENDBRANCH   1  17
TORSDOF 1
