REMARK  4 active torsions:
REMARK  status: ('A' for Active; 'I' for Inactive)
REMARK    1  A    between atoms: O1_2  and  C1_3 
REMARK    2  A    between atoms: C1_3  and  N1_6 
REMARK    3  A    between atoms: N1_6  and  C4_8 
REMARK    4  A    between atoms: C4_8  and  C5_9 
ROOT
HETATM    1  C5  LIG X 999       0.214   0.935   0.140  1.00  0.00    -0.035 A 
HETATM    2  C6  LIG X 999      -0.209  -0.208   0.841  1.00  0.00     0.010 A 
HETATM    3  C7  LIG X 999      -1.071  -0.093   1.934  1.00  0.00     0.013 A 
HETATM    4  C8  LIG X 999      -1.517   1.168   2.352  1.00  0.00    -0.026 A 
HETATM    5  C9  LIG X 999      -2.384   1.294   3.448  1.00  0.00     0.012 A 
HETATM    6  C10 LIG X 999      -2.818   2.558   3.857  1.00  0.00     0.001 A 
HETATM    7  C11 LIG X 999      -2.392   3.702   3.178  1.00  0.00     0.001 A 
HETATM    8  C12 LIG X 999      -1.528   3.590   2.084  1.00  0.00     0.012 A 
HETATM    9  C13 LIG X 999      -1.085   2.327   1.662  1.00  0.00    -0.025 A 
HETATM   10  C14 LIG X 999      -0.219   2.202   0.566  1.00  0.00     0.021 A 
ENDROOT
BRANCH   1  11
HETATM   11  C4  LIG X 999       1.166   0.814  -1.032  1.00  0.00     0.113 C 
HETATM   12  C15 LIG X 999       2.589   0.563  -0.522  1.00  0.00     0.037 C 
BRANCH  11  13
HETATM   13  N1  LIG X 999       0.744  -0.265  -1.934  1.00  0.00    -0.363 N 
HETATM   14  H6  LIG X 999       1.329  -1.131  -1.983  1.00  0.00     0.162 HD
BRANCH  13  15
HETATM   15  C1  LIG X 999      -0.453  -0.203  -2.735  1.00  0.00     0.131 C 
HETATM   16  C2  LIG X 999      -0.813  -1.263  -3.467  1.00  0.00     0.024 C 
HETATM   17  C3  LIG X 999      -2.045  -1.259  -4.316  1.00  0.00     0.040 C 
BRANCH  15  18
HETATM   18  O1  LIG X 999      -1.248   0.947  -2.761  1.00  0.00    -0.347 OA
HETATM   19  H1  LIG X 999      -1.022   1.784  -2.242  1.00  0.00     0.219 HD
ENDBRANCH  15  18
ENDBRANCH  13  15
ENDBRANCH  11  13
ENDBRANCH   1  11
TORSDOF 4
