REMARK  4 active torsions:
REMARK  status: ('A' for Active; 'I' for Inactive)
REMARK       I    between atoms: N1_1  and  C1_2 
REMARK    1  A    between atoms: C1_2  and  C2_4 
REMARK    2  A    between atoms: C11_13  and  O2_14 
REMARK    3  A    between atoms: O2_14  and  C12_15 
REMARK    4  A    between atoms: C12_15  and  C13_17 
ROOT
HETATM    1  C2  LIG X 999      -1.751   0.161   0.206  1.00  0.00     0.068 A 
HETATM    2  C3  LIG X 999      -1.871  -0.846  -0.772  1.00  0.00     0.032 A 
HETATM    3  C4  LIG X 999      -0.916  -1.865  -0.879  1.00  0.00    -0.025 A 
HETATM    4  C5  LIG X 999      -1.042  -2.865  -1.858  1.00  0.00     0.012 A 
HETATM    5  C6  LIG X 999      -0.089  -3.882  -1.950  1.00  0.00     0.001 A 
HETATM    6  C7  LIG X 999       0.994  -3.912  -1.068  1.00  0.00     0.001 A 
HETATM    7  C8  LIG X 999       1.130  -2.923  -0.090  1.00  0.00     0.012 A 
HETATM    8  C9  LIG X 999       0.180  -1.894   0.010  1.00  0.00    -0.023 A 
HETATM    9  C10 LIG X 999       0.306  -0.899   0.987  1.00  0.00     0.050 A 
HETATM   10  C11 LIG X 999      -0.640   0.138   1.085  1.00  0.00     0.096 A 
ENDROOT
BRANCH  10  11
HETATM   11  O2  LIG X 999      -0.520   1.119   2.083  1.00  0.00    -0.274 OA
BRANCH  11  12
HETATM   12  C12 LIG X 999       0.688   1.635   2.574  1.00  0.00     0.298 C 
HETATM   13  O3  LIG X 999       1.764   1.453   1.941  1.00  0.00    -0.259 OA
BRANCH  12  14
HETATM   14  C13 LIG X 999       0.685   2.449   3.810  1.00  0.00     0.039 A 
HETATM   15  C14 LIG X 999      -0.519   2.693   4.496  1.00  0.00     0.017 A 
HETATM   16  C15 LIG X 999      -0.524   3.462   5.664  1.00  0.00     0.001 A 
HETATM   17  C16 LIG X 999       0.669   3.993   6.160  1.00  0.00     0.000 A 
HETATM   18  C17 LIG X 999       1.870   3.756   5.488  1.00  0.00     0.001 A 
HETATM   19  C18 LIG X 999       1.881   2.988   4.319  1.00  0.00     0.017 A 
ENDBRANCH  12  14
ENDBRANCH  11  12
ENDBRANCH  10  11
BRANCH   1  20
HETATM   20  C1  LIG X 999      -2.792   1.224   0.276  1.00  0.00     0.273 C 
HETATM   21  N1  LIG X 999      -2.627   2.370   1.109  1.00  0.00    -0.263 NA
HETATM   22  H1  LIG X 999      -3.359   3.114   1.153  1.00  0.00     0.190 HD
HETATM   23  O1  LIG X 999      -3.842   1.127  -0.416  1.00  0.00    -0.266 OA
ENDBRANCH   1  20
TORSDOF 4
