REMARK  1 active torsions:
REMARK  status: ('A' for Active; 'I' for Inactive)
REMARK    1  A    between atoms: C11_13  and  N2_14 
ROOT
HETATM    1  N2  LIG X 999       0.836  -1.423   1.868  1.00  0.00    -0.053 NA
HETATM    2  N3  LIG X 999       0.946  -2.639   2.032  1.00  0.00    -0.160 NA
HETATM    3  N4  LIG X 999       1.055  -3.853   2.197  1.00  0.00     0.068 N 
ENDROOT
BRANCH   1   4
HETATM    4  C11 LIG X 999       0.627  -0.869   0.568  1.00  0.00     0.175 A 
HETATM    5  C10 LIG X 999       0.492   0.484   0.291  1.00  0.00     0.026 A 
HETATM    6  C5  LIG X 999       0.314   0.552  -1.049  1.00  0.00     0.017 A 
HETATM    7  C9  LIG X 999       0.508   1.647   1.063  1.00  0.00     0.016 A 
HETATM    8  C4  LIG X 999       0.337  -0.698  -1.569  1.00  0.00     0.046 A 
HETATM    9  C6  LIG X 999       0.137   1.717  -1.759  1.00  0.00     0.005 A 
HETATM   10  C3  LIG X 999       0.164  -0.910  -3.017  1.00  0.00     0.033 A 
HETATM   11  N5  LIG X 999       0.531  -1.600  -0.581  1.00  0.00    -0.337 N 
HETATM   12  C2  LIG X 999      -0.017   0.173  -3.808  1.00  0.00     0.034 A 
HETATM   13  C1  LIG X 999      -0.043   1.562  -3.226  1.00  0.00     0.059 A 
HETATM   14  N1  LIG X 999      -0.217   2.599  -3.983  1.00  0.00    -0.300 NA
HETATM   15  H1  LIG X 999      -0.344   2.510  -5.016  1.00  0.00     0.187 HD
HETATM   16  H7  LIG X 999       0.593  -2.638  -0.682  1.00  0.00     0.167 HD
HETATM   17  C7  LIG X 999       0.144   2.921  -1.023  1.00  0.00     0.015 A 
HETATM   18  C8  LIG X 999       0.331   2.882   0.388  1.00  0.00     0.002 A 
ENDBRANCH   1   4
TORSDOF 1
