REMARK  6 active torsions:
REMARK  status: ('A' for Active; 'I' for Inactive)
REMARK    1  A    between atoms: O1_2  and  C1_3 
REMARK    2  A    between atoms: C1_3  and  C4_6 
REMARK    3  A    between atoms: C4_6  and  O2_7 
REMARK    4  A    between atoms: C4_6  and  O3_9 
REMARK    5  A    between atoms: O3_9  and  C5_10 
REMARK    6  A    between atoms: C10_15  and  N1_16 
ROOT
HETATM    1  N1  LIG X 999       5.970  -1.485   0.954  1.00  0.00    -0.073 NA
HETATM    2  N2  LIG X 999       6.391  -2.643   0.933  1.00  0.00    -0.162 NA
HETATM    3  N3  LIG X 999       6.812  -3.799   0.914  1.00  0.00     0.068 N 
ENDROOT
BRANCH   1   4
HETATM    4  C10 LIG X 999       4.591  -1.166   0.726  1.00  0.00     0.094 A 
HETATM    5  C9  LIG X 999       4.193   0.176   0.766  1.00  0.00     0.046 A 
HETATM    6  C8  LIG X 999       2.853   0.529   0.548  1.00  0.00    -0.024 A 
HETATM    7  C7  LIG X 999       2.452   1.871   0.591  1.00  0.00     0.015 A 
HETATM    8  C13 LIG X 999       1.895  -0.478   0.286  1.00  0.00    -0.023 A 
HETATM    9  C6  LIG X 999       1.115   2.212   0.373  1.00  0.00     0.038 A 
HETATM   10  C5  LIG X 999       0.158   1.227   0.105  1.00  0.00     0.073 A 
HETATM   11  C14 LIG X 999       0.553  -0.125   0.068  1.00  0.00     0.049 A 
HETATM   12  C12 LIG X 999       2.296  -1.821   0.247  1.00  0.00     0.014 A 
HETATM   13  C11 LIG X 999       3.633  -2.164   0.465  1.00  0.00     0.035 A 
BRANCH  10  14
HETATM   14  O3  LIG X 999      -1.168   1.639  -0.104  1.00  0.00    -0.314 OA
BRANCH  14  15
HETATM   15  C4  LIG X 999      -2.242   0.810  -0.555  1.00  0.00     0.321 C 
BRANCH  15  16
HETATM   16  C1  LIG X 999      -3.540   1.541  -0.361  1.00  0.00     0.094 C 
HETATM   17  C2  LIG X 999      -3.739   2.731  -0.955  1.00  0.00     0.006 C 
HETATM   18  C3  LIG X 999      -5.005   3.518  -0.809  1.00  0.00     0.038 C 
BRANCH  16  19
HETATM   19  O1  LIG X 999      -4.516   0.946   0.444  1.00  0.00    -0.360 OA
HETATM   20  H1  LIG X 999      -5.418   1.367   0.628  1.00  0.00     0.217 HD
ENDBRANCH  16  19
ENDBRANCH  15  16
BRANCH  15  21
HETATM   21  O2  LIG X 999      -2.083   0.514  -1.918  1.00  0.00    -0.365 OA
HETATM   22  H7  LIG X 999      -1.420  -0.220  -1.982  1.00  0.00     0.213 HD
ENDBRANCH  15  21
ENDBRANCH  14  15
ENDBRANCH  10  14
ENDBRANCH   1   4
TORSDOF 6
