REMARK  5 active torsions:
REMARK  status: ('A' for Active; 'I' for Inactive)
REMARK    1  A    between atoms: C6_6  and  C7_7 
REMARK       I    between atoms: C7_7  and  N1_9 
REMARK    2  A    between atoms: N1_9  and  C8_11 
REMARK    3  A    between atoms: C8_11  and  C9_12 
REMARK    4  A    between atoms: C9_12  and  N2_13 
REMARK    5  A    between atoms: C13_19  and  N5_20 
ROOT
HETATM    1  N2  LIG X 999       5.118   0.972  -0.899  1.00  0.00    -0.114 NA
HETATM    2  N3  LIG X 999       5.675   1.488  -1.868  1.00  0.00    -0.168 NA
HETATM    3  N4  LIG X 999       6.231   2.005  -2.836  1.00  0.00     0.068 N 
ENDROOT
BRANCH   1   4
HETATM    4  C9  LIG X 999       5.191  -0.466  -0.683  1.00  0.00     0.208 C 
BRANCH   4   5
HETATM    5  C8  LIG X 999       4.426  -0.846   0.585  1.00  0.00     0.147 C 
BRANCH   5   6
HETATM    6  N1  LIG X 999       3.012  -0.490   0.469  1.00  0.00    -0.355 N 
HETATM    7  C7  LIG X 999       2.081  -1.269  -0.301  1.00  0.00     0.251 C 
HETATM    8  O1  LIG X 999       2.499  -2.248  -0.980  1.00  0.00    -0.268 OA
HETATM    9  H4  LIG X 999       2.690   0.374   0.959  1.00  0.00     0.162 HD
BRANCH   7  10
HETATM   10  C6  LIG X 999       0.637  -0.935  -0.328  1.00  0.00     0.032 A 
HETATM   11  C1  LIG X 999      -0.144  -1.297  -1.436  1.00  0.00     0.017 A 
HETATM   12  C2  LIG X 999      -1.506  -0.997  -1.474  1.00  0.00     0.011 A 
HETATM   13  C3  LIG X 999      -2.125  -0.341  -0.399  1.00  0.00    -0.024 A 
HETATM   14  C4  LIG X 999      -1.347   0.036   0.722  1.00  0.00    -0.049 A 
HETATM   15  C13 LIG X 999      -3.588   0.027  -0.512  1.00  0.00     0.179 C 
HETATM   16  C5  LIG X 999       0.021  -0.282   0.754  1.00  0.00     0.024 A 
HETATM   17  C10 LIG X 999      -1.973   0.665   1.945  1.00  0.00     0.039 C 
HETATM   18  C11 LIG X 999      -3.338   1.296   1.657  1.00  0.00     0.007 C 
HETATM   19  C12 LIG X 999      -4.214   0.327   0.862  1.00  0.00     0.035 C 
BRANCH  15  20
HETATM   20  N5  LIG X 999      -3.715   1.181  -1.400  1.00  0.00    -0.105 NA
HETATM   21  N6  LIG X 999      -4.816   1.562  -1.797  1.00  0.00    -0.167 NA
HETATM   22  N7  LIG X 999      -5.916   1.944  -2.195  1.00  0.00     0.068 N 
ENDBRANCH  15  20
ENDBRANCH   7  10
ENDBRANCH   5   6
ENDBRANCH   4   5
ENDBRANCH   1   4
TORSDOF 5
