REMARK  4 active torsions:
REMARK  status: ('A' for Active; 'I' for Inactive)
REMARK    1  A    between atoms: C1_1  and  C2_6 
REMARK    2  A    between atoms: N1_2  and  N2_3 
REMARK    3  A    between atoms: C2_6  and  C3_8 
REMARK    4  A    between atoms: C11_16  and  N4_17 
ROOT
HETATM    1  N4  LIG X 999       1.178  -0.680   0.112  1.00  0.00    -0.105 NA
HETATM    2  N5  LIG X 999       1.654  -1.816   0.149  1.00  0.00    -0.167 NA
HETATM    3  N6  LIG X 999       2.129  -2.950   0.185  1.00  0.00     0.068 N 
ENDROOT
BRANCH   1   4
HETATM    4  C11 LIG X 999       0.979   0.104   1.329  1.00  0.00     0.179 C 
HETATM    5  C10 LIG X 999      -0.097  -0.533   2.191  1.00  0.00    -0.024 A 
HETATM    6  C5  LIG X 999      -1.433  -0.058   2.185  1.00  0.00    -0.049 A 
HETATM    7  C9  LIG X 999       0.223  -1.671   2.952  1.00  0.00     0.010 A 
HETATM    8  C4  LIG X 999      -1.813   1.229   1.491  1.00  0.00     0.051 C 
HETATM    9  C6  LIG X 999      -2.405  -0.721   2.951  1.00  0.00     0.007 A 
HETATM   10  C3  LIG X 999      -0.809   1.629   0.396  1.00  0.00     0.068 C 
HETATM   11  C12 LIG X 999       0.624   1.548   0.945  1.00  0.00     0.048 C 
HETATM   12  C7  LIG X 999      -2.071  -1.855   3.693  1.00  0.00     0.001 A 
HETATM   13  C8  LIG X 999      -0.759  -2.328   3.696  1.00  0.00     0.001 A 
BRANCH  10  14
HETATM   14  C2  LIG X 999      -1.088   3.020  -0.133  1.00  0.00     0.172 C 
HETATM   15  O1  LIG X 999      -1.397   3.945   0.666  1.00  0.00    -0.291 OA
BRANCH  14  16
HETATM   16  C1  LIG X 999      -0.940   3.350  -1.561  1.00  0.00     0.190 C 
HETATM   17  N1  LIG X 999      -0.527   2.464  -2.412  1.00  0.00    -0.165 NA
BRANCH  17  18
HETATM   18  N2  LIG X 999      -0.370   2.765  -3.773  1.00  0.00    -0.177 N 
HETATM   19  H2  LIG X 999      -0.588   3.718  -4.142  1.00  0.00     0.214 HD
HETATM   20  N3  LIG X 999       0.056   1.873  -4.568  1.00  0.00    -0.031 N 
ENDBRANCH  17  18
ENDBRANCH  14  16
ENDBRANCH  10  14
ENDBRANCH   1   4
TORSDOF 4
