REMARK  7 active torsions:
REMARK  status: ('A' for Active; 'I' for Inactive)
REMARK    1  A    between atoms: C2_2  and  C4_4 
REMARK    2  A    between atoms: C4_4  and  C5_5 
REMARK       I    between atoms: C5_5  and  N1_7 
REMARK    3  A    between atoms: N1_7  and  C6_8 
REMARK    4  A    between atoms: C6_8  and  C7_9 
REMARK    5  A    between atoms: C7_9  and  C8_10 
REMARK    6  A    between atoms: C8_10  and  O2_11 
REMARK    7  A    between atoms: O2_11  and  C9_12 
ROOT
HETATM    1  O2  LIG X 999      -0.609  -2.318  -2.905  1.00  0.00    -0.351 OA
ENDROOT
BRANCH   1   2
HETATM    2  C8  LIG X 999      -1.360  -3.492  -2.591  1.00  0.00     0.177 C 
BRANCH   2   3
HETATM    3  C7  LIG X 999      -1.401  -3.767  -1.079  1.00  0.00     0.048 C 
BRANCH   3   4
HETATM    4  C6  LIG X 999      -0.005  -3.897  -0.452  1.00  0.00     0.154 C 
BRANCH   4   5
HETATM    5  N1  LIG X 999       0.660  -2.600  -0.362  1.00  0.00    -0.256 NA
HETATM    6  C5  LIG X 999       0.267  -1.567   0.547  1.00  0.00     0.238 C 
HETATM    7  O1  LIG X 999      -0.644  -1.773   1.394  1.00  0.00    -0.272 OA
BRANCH   6   8
HETATM    8  C4  LIG X 999       0.951  -0.234   0.500  1.00  0.00     0.108 C 
BRANCH   8   9
HETATM    9  C2  LIG X 999       1.869  -0.014   1.719  1.00  0.00    -0.014 C 
HETATM   10  C1  LIG X 999       3.054  -0.992   1.715  1.00  0.00     0.010 C 
HETATM   11  C3  LIG X 999       2.381   1.431   1.739  1.00  0.00     0.010 C 
ENDBRANCH   8   9
ENDBRANCH   6   8
ENDBRANCH   4   5
ENDBRANCH   3   4
ENDBRANCH   2   3
ENDBRANCH   1   2
BRANCH   1  12
HETATM   12  C9  LIG X 999      -1.000  -0.995  -2.640  1.00  0.00     0.069 A 
HETATM   13  C10 LIG X 999      -0.069   0.022  -2.874  1.00  0.00     0.037 A 
HETATM   14  C11 LIG X 999      -0.378   1.354  -2.591  1.00  0.00     0.015 A 
HETATM   15  C12 LIG X 999      -1.635   1.690  -2.074  1.00  0.00    -0.026 A 
HETATM   16  C13 LIG X 999      -1.953   3.024  -1.773  1.00  0.00     0.012 A 
HETATM   17  C17 LIG X 999      -2.595   0.673  -1.853  1.00  0.00    -0.023 A 
HETATM   18  C14 LIG X 999      -3.213   3.346  -1.260  1.00  0.00     0.001 A 
HETATM   19  C15 LIG X 999      -4.162   2.343  -1.044  1.00  0.00     0.001 A 
HETATM   20  C16 LIG X 999      -3.857   1.011  -1.339  1.00  0.00     0.012 A 
HETATM   21  C18 LIG X 999      -2.276  -0.662  -2.146  1.00  0.00     0.049 A 
ENDBRANCH   1  12
TORSDOF 7
