REMARK  2 active torsions:
REMARK  status: ('A' for Active; 'I' for Inactive)
REMARK    1  A    between atoms: O1_2  and  C2_3 
REMARK    2  A    between atoms: C11_12  and  N1_13 
ROOT
HETATM    1  C2  LIG X 999       0.690   1.209   3.195  1.00  0.00     0.095 A 
HETATM    2  C3  LIG X 999       0.917   0.070   2.398  1.00  0.00     0.051 A 
HETATM    3  C4  LIG X 999       0.367  -0.022   1.112  1.00  0.00    -0.023 A 
HETATM    4  C5  LIG X 999       0.596  -1.160   0.314  1.00  0.00     0.021 A 
HETATM    5  C6  LIG X 999       0.025  -1.211  -0.959  1.00  0.00    -0.024 A 
HETATM    6  C7  LIG X 999      -0.735  -0.189  -1.440  1.00  0.00    -0.024 A 
HETATM    7  C8  LIG X 999      -0.980   0.959  -0.684  1.00  0.00     0.021 A 
HETATM    8  C9  LIG X 999      -0.427   1.045   0.609  1.00  0.00    -0.023 A 
HETATM    9  C10 LIG X 999      -0.649   2.175   1.405  1.00  0.00     0.044 A 
HETATM   10  C11 LIG X 999      -0.097   2.263   2.691  1.00  0.00     0.060 A 
HETATM   11  C12 LIG X 999      -1.190  -0.483  -2.815  1.00  0.00     0.276 C 
HETATM   12  N2  LIG X 999      -0.761  -1.891  -3.090  1.00  0.00    -0.067 N 
HETATM   13  C13 LIG X 999      -1.943  -2.785  -3.121  1.00  0.00     0.272 C 
HETATM   14  C14 LIG X 999      -0.056  -1.979  -4.389  1.00  0.00     0.272 C 
HETATM   15  C15 LIG X 999       0.149  -2.285  -1.967  1.00  0.00     0.276 C 
ENDROOT
BRANCH  10  16
HETATM   16  N1  LIG X 999      -0.343   3.431   3.483  1.00  0.00    -0.397 N 
HETATM   17  H8  LIG X 999       0.052   3.532   4.444  1.00  0.00     0.156 HD
HETATM   18  H9  LIG X 999      -0.926   4.214   3.111  1.00  0.00     0.156 HD
ENDBRANCH  10  16
BRANCH   1  19
HETATM   19  O1  LIG X 999       1.229   1.326   4.487  1.00  0.00    -0.354 OA
HETATM   20  C1  LIG X 999       2.040   0.340   5.119  1.00  0.00     0.210 C 
ENDBRANCH   1  19
TORSDOF 2
