REMARK  9 active torsions:
REMARK  status: ('A' for Active; 'I' for Inactive)
REMARK    1  A    between atoms: C2_2  and  C3_3 
REMARK    2  A    between atoms: C3_3  and  N1_4 
REMARK    3  A    between atoms: C5_6  and  C6_7 
REMARK    4  A    between atoms: C6_7  and  C7_8 
REMARK    5  A    between atoms: C7_8  and  C8_9 
REMARK    6  A    between atoms: N2_11  and  C10_12 
REMARK    7  A    between atoms: C10_12  and  C11_13 
REMARK    8  A    between atoms: C11_13  and  O1_14 
REMARK    9  A    between atoms: O1_14  and  C12_15 
ROOT
HETATM    1  C8  LIG X 999       1.960  -0.107   3.288  1.00  0.00     0.073 A 
HETATM    2  C9  LIG X 999       1.759   1.236   3.040  1.00  0.00     0.140 A 
HETATM    3  N2  LIG X 999       0.440   1.450   3.190  1.00  0.00    -0.283 N 
HETATM    4  N3  LIG X 999      -0.128   0.294   3.498  1.00  0.00    -0.218 N 
HETATM    5  N4  LIG X 999       0.768  -0.679   3.561  1.00  0.00    -0.162 NA
HETATM    6  H25 LIG X 999      -1.155   0.150   3.622  1.00  0.00     0.210 HD
ENDROOT
BRANCH   3   7
HETATM    7  C10 LIG X 999      -0.289   2.662   2.825  1.00  0.00     0.176 C 
BRANCH   7   8
HETATM    8  C11 LIG X 999      -0.591   2.655   1.330  1.00  0.00     0.197 C 
BRANCH   8   9
HETATM    9  O1  LIG X 999      -1.396   1.522   1.014  1.00  0.00    -0.349 OA
BRANCH   9  10
HETATM   10  C12 LIG X 999      -1.668   1.073  -0.286  1.00  0.00     0.069 A 
HETATM   11  C13 LIG X 999      -1.223   1.761  -1.431  1.00  0.00     0.037 A 
HETATM   12  C14 LIG X 999      -1.481   1.253  -2.707  1.00  0.00     0.015 A 
HETATM   13  C15 LIG X 999      -2.188   0.053  -2.858  1.00  0.00    -0.026 A 
HETATM   14  C16 LIG X 999      -2.435  -0.475  -4.134  1.00  0.00     0.012 A 
HETATM   15  C20 LIG X 999      -2.654  -0.636  -1.711  1.00  0.00    -0.023 A 
HETATM   16  C17 LIG X 999      -3.133  -1.679  -4.270  1.00  0.00     0.001 A 
HETATM   17  C18 LIG X 999      -3.592  -2.361  -3.138  1.00  0.00     0.001 A 
HETATM   18  C19 LIG X 999      -3.358  -1.842  -1.862  1.00  0.00     0.012 A 
HETATM   19  C21 LIG X 999      -2.397  -0.112  -0.436  1.00  0.00     0.049 A 
ENDBRANCH   9  10
ENDBRANCH   8   9
ENDBRANCH   7   8
ENDBRANCH   3   7
BRANCH   1  20
HETATM   20  C7  LIG X 999       3.237  -0.870   3.102  1.00  0.00     0.067 C 
BRANCH  20  21
HETATM   21  C6  LIG X 999       3.687  -0.888   1.633  1.00  0.00     0.047 C 
BRANCH  21  22
HETATM   22  C5  LIG X 999       2.615  -1.399   0.715  1.00  0.00    -0.024 A 
HETATM   23  C4  LIG X 999       2.094  -2.679   0.662  1.00  0.00     0.118 A 
HETATM   24  N1  LIG X 999       1.107  -2.687  -0.254  1.00  0.00    -0.303 N 
HETATM   25  N5  LIG X 999       0.971  -1.473  -0.763  1.00  0.00    -0.310 N 
HETATM   26  C22 LIG X 999       1.876  -0.659  -0.191  1.00  0.00     0.115 A 
HETATM   27  H27 LIG X 999       0.261  -1.198  -1.476  1.00  0.00     0.186 HD
BRANCH  24  28
HETATM   28  C3  LIG X 999       0.225  -3.810  -0.559  1.00  0.00     0.148 C 
BRANCH  28  29
HETATM   29  C2  LIG X 999      -0.983  -3.791   0.379  1.00  0.00     0.017 C 
HETATM   30  C1  LIG X 999      -1.959  -4.910   0.041  1.00  0.00     0.007 C 
ENDBRANCH  28  29
ENDBRANCH  24  28
ENDBRANCH  21  22
ENDBRANCH  20  21
ENDBRANCH   1  20
TORSDOF 9
