REMARK  2 active torsions:
REMARK  status: ('A' for Active; 'I' for Inactive)
REMARK    1  A    between atoms: N1_1  and  C1_2 
REMARK    2  A    between atoms: C2_5  and  C3_6 
ROOT
HETATM    1  C3  LIG X 999       0.206  -0.086  -0.064  1.00  0.00     0.030 A 
HETATM    2  C4  LIG X 999      -1.011   0.452   0.391  1.00  0.00     0.017 A 
HETATM    3  C5  LIG X 999      -1.302   1.805   0.234  1.00  0.00     0.002 A 
HETATM    4  C6  LIG X 999      -0.384   2.654  -0.378  1.00  0.00     0.012 A 
HETATM    5  C7  LIG X 999       0.850   2.160  -0.819  1.00  0.00    -0.025 A 
HETATM    6  C8  LIG X 999       1.777   3.032  -1.412  1.00  0.00     0.012 A 
HETATM    7  C9  LIG X 999       3.024   2.562  -1.821  1.00  0.00     0.001 A 
HETATM    8  C10 LIG X 999       3.363   1.224  -1.632  1.00  0.00     0.001 A 
HETATM    9  C11 LIG X 999       2.452   0.340  -1.047  1.00  0.00     0.013 A 
HETATM   10  C12 LIG X 999       1.169   0.782  -0.653  1.00  0.00    -0.011 A 
ENDROOT
BRANCH   1  11
HETATM   11  C2  LIG X 999       0.400  -1.550   0.064  1.00  0.00     0.205 A 
HETATM   12  N3  LIG X 999      -0.129  -2.296   1.057  1.00  0.00    -0.119 NA
HETATM   13  N2  LIG X 999       0.227  -3.549   0.821  1.00  0.00    -0.103 NA
HETATM   14  C1  LIG X 999       0.953  -3.515  -0.310  1.00  0.00     0.265 A 
HETATM   15  O1  LIG X 999       1.062  -2.300  -0.786  1.00  0.00    -0.255 OA
BRANCH  14  16
HETATM   16  N1  LIG X 999       1.531  -4.666  -0.918  1.00  0.00    -0.362 N 
HETATM   17  H1  LIG X 999       2.085  -4.572  -1.798  1.00  0.00     0.159 HD
HETATM   18  H2  LIG X 999       1.406  -5.609  -0.488  1.00  0.00     0.159 HD
ENDBRANCH  14  16
ENDBRANCH   1  11
TORSDOF 2
