REMARK  1 active torsions:
REMARK  status: ('A' for Active; 'I' for Inactive)
REMARK    1  A    between atoms: N1_2  and  C1_3 
ROOT
HETATM    1  C1  LIG X 999      -2.028  -2.879   1.246  1.00  0.00     0.120 C 
HETATM    2  C2  LIG X 999      -2.464  -2.211   0.106  1.00  0.00     0.057 C 
HETATM    3  C3  LIG X 999      -1.629  -1.288  -0.539  1.00  0.00    -0.045 C 
HETATM    4  C4  LIG X 999      -2.061  -0.855  -1.919  1.00  0.00     0.049 C 
HETATM    5  C5  LIG X 999      -0.381  -0.931   0.066  1.00  0.00     0.008 C 
HETATM    6  C6  LIG X 999       0.467   0.145  -0.361  1.00  0.00    -0.013 C 
HETATM    7  C7  LIG X 999       0.016   1.225  -1.157  1.00  0.00     0.013 C 
HETATM    8  C8  LIG X 999       0.897   2.218  -1.593  1.00  0.00     0.001 C 
HETATM    9  C9  LIG X 999       2.234   2.189  -1.210  1.00  0.00     0.001 C 
HETATM   10  C10 LIG X 999       2.686   1.200  -0.341  1.00  0.00     0.012 C 
HETATM   11  C11 LIG X 999       1.807   0.204   0.118  1.00  0.00    -0.025 C 
HETATM   12  C12 LIG X 999       2.246  -0.695   1.093  1.00  0.00     0.014 C 
HETATM   13  C13 LIG X 999       1.367  -1.616   1.642  1.00  0.00     0.031 C 
HETATM   14  C14 LIG X 999       0.061  -1.740   1.153  1.00  0.00     0.045 C 
HETATM   15  N2  LIG X 999      -0.772  -2.661   1.720  1.00  0.00    -0.341 N 
HETATM   16  H12 LIG X 999      -0.440  -3.217   2.542  1.00  0.00     0.167 HD
ENDROOT
BRANCH   1  17
HETATM   17  N1  LIG X 999      -2.811  -3.737   1.821  1.00  0.00    -0.284 NA
HETATM   18  H1  LIG X 999      -2.522  -4.275   2.668  1.00  0.00     0.188 HD
ENDBRANCH   1  17
TORSDOF 1
