REMARK  6 active torsions:
REMARK  status: ('A' for Active; 'I' for Inactive)
REMARK    1  A    between atoms: C2_2  and  C3_3 
REMARK    2  A    between atoms: C3_3  and  O1_4 
REMARK    3  A    between atoms: O1_4  and  C4_5 
REMARK    4  A    between atoms: C4_5  and  C6_7 
REMARK    5  A    between atoms: C6_7  and  C7_8 
REMARK       I    between atoms: N1_10  and  C9_11 
REMARK    6  A    between atoms: C9_11  and  C10_13 
ROOT
HETATM    1  C7  LIG X 999       0.377  -2.142   0.300  1.00  0.00     0.072 A 
HETATM    2  C8  LIG X 999       1.216  -1.050   0.264  1.00  0.00     0.146 A 
HETATM    3  N1  LIG X 999       1.046  -0.492  -0.947  1.00  0.00    -0.211 N 
HETATM    4  C9  LIG X 999       1.746   0.650  -1.466  1.00  0.00     0.275 C 
HETATM    5  O2  LIG X 999       2.789   1.053  -0.882  1.00  0.00    -0.266 OA
HETATM    6  N2  LIG X 999       0.159  -1.211  -1.618  1.00  0.00     0.012 NA
HETATM    7  N3  LIG X 999      -0.275  -2.220  -0.876  1.00  0.00    -0.163 NA
ENDROOT
BRANCH   4   8
HETATM    8  C10 LIG X 999       1.283   1.357  -2.683  1.00  0.00     0.034 A 
HETATM    9  C11 LIG X 999       2.220   1.938  -3.553  1.00  0.00     0.018 A 
HETATM   10  C12 LIG X 999       1.802   2.618  -4.700  1.00  0.00     0.013 A 
HETATM   11  C13 LIG X 999       0.437   2.738  -4.990  1.00  0.00    -0.026 A 
HETATM   12  C14 LIG X 999       0.006   3.419  -6.140  1.00  0.00     0.012 A 
HETATM   13  C18 LIG X 999      -0.518   2.172  -4.112  1.00  0.00    -0.025 A 
HETATM   14  C15 LIG X 999      -1.359   3.538  -6.414  1.00  0.00     0.001 A 
HETATM   15  C16 LIG X 999      -2.302   2.982  -5.545  1.00  0.00     0.001 A 
HETATM   16  C17 LIG X 999      -1.887   2.302  -4.397  1.00  0.00     0.012 A 
HETATM   17  C19 LIG X 999      -0.089   1.491  -2.962  1.00  0.00     0.029 A 
ENDBRANCH   4   8
BRANCH   1  18
HETATM   18  C6  LIG X 999       0.159  -3.066   1.460  1.00  0.00     0.093 C 
BRANCH  18  19
HETATM   19  C4  LIG X 999      -0.715  -2.420   2.552  1.00  0.00     0.123 C 
HETATM   20  C5  LIG X 999      -2.153  -2.224   2.063  1.00  0.00     0.040 C 
BRANCH  19  21
HETATM   21  O1  LIG X 999      -0.750  -3.269   3.688  1.00  0.00    -0.382 OA
BRANCH  21  22
HETATM   22  C3  LIG X 999       0.212  -2.886   4.652  1.00  0.00     0.194 C 
BRANCH  22  23
HETATM   23  C2  LIG X 999      -0.359  -1.836   5.566  1.00  0.00    -0.011 C 
HETATM   24  C1  LIG X 999       0.136  -0.596   5.612  1.00  0.00     0.009 C 
ENDBRANCH  22  23
ENDBRANCH  21  22
ENDBRANCH  19  21
ENDBRANCH  18  19
ENDBRANCH   1  18
TORSDOF 6
