REMARK  6 active torsions:
REMARK  status: ('A' for Active; 'I' for Inactive)
REMARK    1  A    between atoms: O1_2  and  C1_3 
REMARK    2  A    between atoms: C1_3  and  C4_10 
REMARK    3  A    between atoms: N1_4  and  C2_5 
REMARK    4  A    between atoms: C2_5  and  C3_6 
REMARK    5  A    between atoms: C3_6  and  N2_7 
REMARK    6  A    between atoms: C13_19  and  N5_20 
ROOT
HETATM    1  N2  LIG X 999      -1.112   6.014   1.918  1.00  0.00    -0.114 NA
HETATM    2  N3  LIG X 999      -1.647   6.559   2.884  1.00  0.00    -0.168 NA
HETATM    3  N4  LIG X 999      -2.181   7.105   3.848  1.00  0.00     0.068 N 
ENDROOT
BRANCH   1   4
HETATM    4  C3  LIG X 999      -0.987   4.565   1.862  1.00  0.00     0.211 C 
BRANCH   4   5
HETATM    5  C2  LIG X 999      -0.293   4.158   0.569  1.00  0.00     0.176 C 
BRANCH   5   6
HETATM    6  N1  LIG X 999      -0.170   2.705   0.517  1.00  0.00    -0.265 NA
HETATM    7  C1  LIG X 999       0.377   2.031  -0.454  1.00  0.00     0.167 C 
BRANCH   7   8
HETATM    8  O1  LIG X 999       0.912   2.678  -1.574  1.00  0.00    -0.344 OA
HETATM    9  H1  LIG X 999       0.905   3.683  -1.691  1.00  0.00     0.219 HD
ENDBRANCH   7   8
BRANCH   7  10
HETATM   10  C4  LIG X 999       0.436   0.550  -0.380  1.00  0.00     0.017 A 
HETATM   11  C5  LIG X 999      -0.083  -0.140   0.728  1.00  0.00     0.016 A 
HETATM   12  C6  LIG X 999      -0.030  -1.533   0.786  1.00  0.00     0.011 A 
HETATM   13  C7  LIG X 999       0.525  -2.277  -0.269  1.00  0.00    -0.024 A 
HETATM   14  C8  LIG X 999       1.095  -1.588  -1.367  1.00  0.00    -0.049 A 
HETATM   15  C13 LIG X 999       0.624  -3.789  -0.141  1.00  0.00     0.179 C 
HETATM   16  C9  LIG X 999       1.022  -0.186  -1.423  1.00  0.00     0.023 A 
HETATM   17  C10 LIG X 999       1.710  -2.327  -2.532  1.00  0.00     0.039 C 
HETATM   18  C11 LIG X 999       2.134  -3.748  -2.159  1.00  0.00     0.007 C 
HETATM   19  C12 LIG X 999       0.982  -4.473  -1.469  1.00  0.00     0.035 C 
BRANCH  15  20
HETATM   20  N5  LIG X 999      -0.642  -4.338   0.339  1.00  0.00    -0.105 NA
HETATM   21  N6  LIG X 999      -0.710  -4.943   1.409  1.00  0.00    -0.167 NA
HETATM   22  N7  LIG X 999      -0.777  -5.547   2.478  1.00  0.00     0.068 N 
ENDBRANCH  15  20
ENDBRANCH   7  10
ENDBRANCH   5   6
ENDBRANCH   4   5
ENDBRANCH   1   4
TORSDOF 6
