REMARK  1 active torsions:
REMARK  status: ('A' for Active; 'I' for Inactive)
REMARK    1  A    between atoms: C2_5  and  C3_6 
ROOT
HETATM    1  C3  LIG X 999       0.339   0.701  -0.311  1.00  0.00     0.028 A 
HETATM    2  C4  LIG X 999       0.352   2.089  -0.522  1.00  0.00     0.017 A 
HETATM    3  C5  LIG X 999      -0.833   2.824  -0.513  1.00  0.00     0.002 A 
HETATM    4  C6  LIG X 999      -2.053   2.187  -0.302  1.00  0.00     0.012 A 
HETATM    5  C7  LIG X 999      -2.103   0.797  -0.123  1.00  0.00    -0.025 A 
HETATM    6  C8  LIG X 999      -3.341   0.160   0.057  1.00  0.00     0.012 A 
HETATM    7  C9  LIG X 999      -3.405  -1.227   0.193  1.00  0.00     0.001 A 
HETATM    8  C10 LIG X 999      -2.239  -1.990   0.135  1.00  0.00     0.001 A 
HETATM    9  C11 LIG X 999      -0.999  -1.372  -0.040  1.00  0.00     0.013 A 
HETATM   10  C12 LIG X 999      -0.904   0.033  -0.143  1.00  0.00    -0.011 A 
ENDROOT
BRANCH   1  11
HETATM   11  C2  LIG X 999       1.644   0.008  -0.253  1.00  0.00     0.177 A 
HETATM   12  O1  LIG X 999       2.637   0.232  -1.090  1.00  0.00    -0.258 OA
HETATM   13  C1  LIG X 999       3.610  -0.542  -0.668  1.00  0.00     0.260 A 
HETATM   14  N1  LIG X 999       4.771  -0.616  -1.232  1.00  0.00    -0.261 NA
HETATM   15  N3  LIG X 999       3.251  -1.240   0.423  1.00  0.00    -0.262 N 
HETATM   16  H1  LIG X 999       5.516  -1.245  -0.858  1.00  0.00     0.190 HD
HETATM   17  N2  LIG X 999       2.007  -0.888   0.690  1.00  0.00    -0.276 N 
HETATM   18  H10 LIG X 999       3.824  -1.916   0.977  1.00  0.00     0.190 HD
HETATM   19  H9  LIG X 999       1.449  -1.224   1.506  1.00  0.00     0.189 HD
ENDBRANCH   1  11
TORSDOF 1
