REMARK  3 active torsions:
REMARK  status: ('A' for Active; 'I' for Inactive)
REMARK    1  A    between atoms: C7_9  and  C8_10 
REMARK    2  A    between atoms: C9_13  and  N4_14 
REMARK    3  A    between atoms: N7_23  and  C14_24 
ROOT
HETATM    1  N4  LIG X 999      -3.216   2.756   3.782  1.00  0.00    -0.023 NA
HETATM    2  N5  LIG X 999      -3.907   3.290   2.914  1.00  0.00    -0.158 NA
HETATM    3  N6  LIG X 999      -4.598   3.823   2.047  1.00  0.00     0.068 N 
ENDROOT
BRANCH   1   4
HETATM    4  C9  LIG X 999      -2.056   2.006   3.430  1.00  0.00     0.326 A 
HETATM    5  N3  LIG X 999      -1.266   1.393   4.327  1.00  0.00    -0.099 NA
HETATM    6  N2  LIG X 999      -0.308   0.808   3.624  1.00  0.00    -0.119 NA
HETATM    7  C8  LIG X 999      -0.559   1.083   2.327  1.00  0.00     0.205 A 
HETATM    8  O1  LIG X 999      -1.631   1.829   2.203  1.00  0.00    -0.252 OA
BRANCH   7   9
HETATM    9  C7  LIG X 999       0.300   0.646   1.210  1.00  0.00     0.032 A 
HETATM   10  C6  LIG X 999      -0.209   0.328  -0.088  1.00  0.00     0.020 A 
HETATM   11  C1  LIG X 999      -1.636   0.170  -0.526  1.00  0.00     0.060 A 
HETATM   12  C5  LIG X 999       0.730   0.057  -1.067  1.00  0.00     0.019 A 
HETATM   13  N1  LIG X 999      -2.611   0.220   0.323  1.00  0.00    -0.299 NA
HETATM   14  C2  LIG X 999      -1.918  -0.158  -1.967  1.00  0.00     0.034 A 
HETATM   15  H1  LIG X 999      -3.605   0.076   0.036  1.00  0.00     0.187 HD
HETATM   16  C3  LIG X 999      -0.916  -0.378  -2.844  1.00  0.00     0.033 A 
HETATM   17  C4  LIG X 999       0.470  -0.274  -2.360  1.00  0.00     0.048 A 
HETATM   18  N7  LIG X 999       1.635  -0.511  -3.012  1.00  0.00    -0.324 N 
HETATM   19  C13 LIG X 999       2.620  -0.339  -2.086  1.00  0.00     0.193 A 
HETATM   20  C12 LIG X 999       2.071   0.022  -0.867  1.00  0.00     0.032 A 
HETATM   21  O2  LIG X 999       3.974  -0.525  -2.338  1.00  0.00    -0.171 OA
HETATM   22  C11 LIG X 999       2.610   0.278   0.388  1.00  0.00     0.018 A 
HETATM   23  C10 LIG X 999       1.711   0.597   1.430  1.00  0.00     0.018 A 
BRANCH  18  24
HETATM   24  C14 LIG X 999       1.802  -0.970  -4.390  1.00  0.00     0.127 C 
HETATM   25  C15 LIG X 999       1.675  -2.487  -4.461  1.00  0.00     0.027 C 
ENDBRANCH  18  24
ENDBRANCH   7   9
ENDBRANCH   1   4
TORSDOF 3
