REMARK  7 active torsions:
REMARK  status: ('A' for Active; 'I' for Inactive)
REMARK    1  A    between atoms: C11_13  and  N2_14 
REMARK    2  A    between atoms: C12_18  and  C13_19 
REMARK    3  A    between atoms: C13_19  and  C14_20 
REMARK    4  A    between atoms: C14_20  and  O1_21 
REMARK    5  A    between atoms: C14_20  and  C17_24 
REMARK    6  A    between atoms: O1_21  and  C15_22 
REMARK    7  A    between atoms: C17_24  and  C18_25 
ROOT
HETATM    1  H1  LIG X 999       2.741  -4.234  -5.795  1.00  0.00     0.187 HD
HETATM    2  N1  LIG X 999       1.913  -4.264  -5.160  1.00  0.00    -0.300 NA
HETATM    3  C1  LIG X 999       1.853  -3.551  -4.081  1.00  0.00     0.059 A 
HETATM    4  C2  LIG X 999       2.985  -2.639  -3.692  1.00  0.00     0.034 A 
HETATM    5  C3  LIG X 999       2.923  -1.893  -2.564  1.00  0.00     0.033 A 
HETATM    6  C4  LIG X 999       1.717  -1.996  -1.724  1.00  0.00     0.045 A 
HETATM    7  C5  LIG X 999       0.699  -2.815  -2.074  1.00  0.00     0.017 A 
HETATM    8  C6  LIG X 999       0.661  -3.613  -3.195  1.00  0.00     0.005 A 
HETATM    9  C7  LIG X 999      -0.496  -4.398  -3.383  1.00  0.00     0.015 A 
HETATM   10  C8  LIG X 999      -1.549  -4.334  -2.431  1.00  0.00     0.002 A 
HETATM   11  C9  LIG X 999      -1.453  -3.493  -1.295  1.00  0.00     0.016 A 
HETATM   12  C10 LIG X 999      -0.288  -2.731  -1.148  1.00  0.00     0.023 A 
HETATM   13  C11 LIG X 999       0.181  -1.813  -0.206  1.00  0.00     0.137 A 
HETATM   14  N5  LIG X 999       1.418  -1.364  -0.569  1.00  0.00    -0.340 N 
HETATM   15  H24 LIG X 999       2.018  -0.672  -0.068  1.00  0.00     0.167 HD
ENDROOT
BRANCH  13  16
HETATM   16  N2  LIG X 999      -0.514  -1.379   0.973  1.00  0.00    -0.232 N 
HETATM   17  N3  LIG X 999      -1.737  -1.759   1.312  1.00  0.00    -0.014 NA
HETATM   18  N4  LIG X 999      -2.097  -1.158   2.434  1.00  0.00    -0.286 N 
HETATM   19  H7  LIG X 999      -3.026  -1.266   2.898  1.00  0.00     0.184 HD
HETATM   20  C12 LIG X 999      -1.075  -0.376   2.828  1.00  0.00     0.043 A 
HETATM   21  C20 LIG X 999      -0.068  -0.504   1.896  1.00  0.00     0.142 A 
BRANCH  20  22
HETATM   22  C13 LIG X 999      -1.115   0.572   3.988  1.00  0.00     0.091 C 
BRANCH  22  23
HETATM   23  C14 LIG X 999      -1.655   1.942   3.544  1.00  0.00     0.127 C 
BRANCH  23  24
HETATM   24  O1  LIG X 999      -0.723   2.542   2.655  1.00  0.00    -0.386 OA
BRANCH  24  25
HETATM   25  C15 LIG X 999      -1.364   3.003   1.486  1.00  0.00     0.163 C 
HETATM   26  C16 LIG X 999      -0.335   3.659   0.580  1.00  0.00     0.033 C 
ENDBRANCH  24  25
ENDBRANCH  23  24
BRANCH  23  27
HETATM   27  C17 LIG X 999      -1.908   2.878   4.744  1.00  0.00     0.032 C 
BRANCH  27  28
HETATM   28  C18 LIG X 999      -0.626   3.292   5.485  1.00  0.00    -0.002 C 
HETATM   29  C19 LIG X 999      -0.933   4.300   6.589  1.00  0.00     0.005 C 
ENDBRANCH  27  28
ENDBRANCH  23  27
ENDBRANCH  22  23
ENDBRANCH  20  22
ENDBRANCH  13  16
TORSDOF 7
