REMARK  5 active torsions:
REMARK  status: ('A' for Active; 'I' for Inactive)
REMARK    1  A    between atoms: O1_2  and  C1_3 
REMARK    2  A    between atoms: C1_3  and  C2_4 
REMARK    3  A    between atoms: C2_4  and  C3_5 
REMARK       I    between atoms: N1_7  and  C5_8 
REMARK    4  A    between atoms: C5_8  and  C6_10 
REMARK    5  A    between atoms: C12_16  and  N2_17 
ROOT
HETATM    1  N2  LIG X 999      -0.434   0.732  -2.159  1.00  0.00    -0.105 NA
HETATM    2  N3  LIG X 999       0.316   0.325  -3.048  1.00  0.00    -0.167 NA
HETATM    3  N4  LIG X 999       1.066  -0.078  -3.935  1.00  0.00     0.068 N 
ENDROOT
BRANCH   1   4
HETATM    4  C12 LIG X 999      -1.806   1.136  -2.462  1.00  0.00     0.179 C 
HETATM    5  C10 LIG X 999      -2.573   1.387  -1.172  1.00  0.00    -0.024 A 
HETATM    6  C9  LIG X 999      -3.492   2.459  -1.053  1.00  0.00    -0.050 A 
HETATM    7  C11 LIG X 999      -2.470   0.458  -0.119  1.00  0.00     0.027 A 
HETATM    8  C8  LIG X 999      -4.230   2.613   0.130  1.00  0.00     0.009 A 
HETATM    9  C15 LIG X 999      -3.634   3.503  -2.134  1.00  0.00     0.039 C 
HETATM   10  C7  LIG X 999      -4.092   1.701   1.177  1.00  0.00     0.017 A 
HETATM   11  C6  LIG X 999      -3.201   0.625   1.068  1.00  0.00     0.034 A 
HETATM   12  C14 LIG X 999      -3.177   2.988  -3.500  1.00  0.00     0.007 C 
HETATM   13  C13 LIG X 999      -1.788   2.366  -3.389  1.00  0.00     0.035 C 
BRANCH  11  14
HETATM   14  C5  LIG X 999      -3.066  -0.337   2.184  1.00  0.00     0.274 C 
HETATM   15  N1  LIG X 999      -1.797  -0.909   2.535  1.00  0.00    -0.213 N 
HETATM   16  C4  LIG X 999      -0.572  -0.424   2.250  1.00  0.00     0.144 A 
HETATM   17  N5  LIG X 999      -1.655  -2.005   3.265  1.00  0.00    -0.013 NA
HETATM   18  C3  LIG X 999       0.334  -1.295   2.817  1.00  0.00     0.044 A 
HETATM   19  N6  LIG X 999      -0.368  -2.259   3.442  1.00  0.00    -0.286 N 
HETATM   20  H15 LIG X 999       0.011  -3.068   3.982  1.00  0.00     0.184 HD
HETATM   21  O2  LIG X 999      -4.088  -0.656   2.848  1.00  0.00    -0.266 OA
BRANCH  18  22
HETATM   22  C2  LIG X 999       1.833  -1.214   2.753  1.00  0.00     0.097 C 
BRANCH  22  23
HETATM   23  C1  LIG X 999       2.470  -1.938   1.524  1.00  0.00     0.063 C 
HETATM   24  C16 LIG X 999       2.083  -3.452   1.516  1.00  0.00     0.038 C 
HETATM   25  C17 LIG X 999       0.852  -3.840   0.672  1.00  0.00     0.003 C 
HETATM   26  C18 LIG X 999       1.213  -4.116  -0.797  1.00  0.00     0.000 C 
HETATM   27  C19 LIG X 999       1.427  -2.844  -1.624  1.00  0.00     0.000 C 
HETATM   28  C20 LIG X 999       2.534  -1.932  -1.073  1.00  0.00     0.003 C 
HETATM   29  C21 LIG X 999       2.095  -1.194   0.205  1.00  0.00     0.038 C 
BRANCH  23  30
HETATM   30  O1  LIG X 999       3.872  -1.887   1.678  1.00  0.00    -0.389 OA
HETATM   31  H1  LIG X 999       4.151  -0.935   1.744  1.00  0.00     0.210 HD
ENDBRANCH  23  30
ENDBRANCH  22  23
ENDBRANCH  18  22
ENDBRANCH  11  14
ENDBRANCH   1   4
TORSDOF 5
