REMARK  6 active torsions:
REMARK  status: ('A' for Active; 'I' for Inactive)
REMARK    1  A    between atoms: S1_2  and  C1_3 
REMARK    2  A    between atoms: C1_3  and  N1_4 
REMARK    3  A    between atoms: N1_4  and  C2_6 
REMARK    4  A    between atoms: N2_16  and  C12_18 
REMARK    5  A    between atoms: C13_19  and  C14_20 
REMARK    6  A    between atoms: C14_20  and  O2_22 
ROOT
HETATM    1  C1  LIG X 999       0.382   0.362   0.675  1.00  0.00     0.142 C 
HETATM    2  N2  LIG X 999       0.867   1.155   1.591  1.00  0.00    -0.336 N 
HETATM    3  H10 LIG X 999       1.585   1.866   1.326  1.00  0.00     0.168 HD
ENDROOT
BRANCH   1   4
HETATM    4  S1  LIG X 999      -0.901  -0.848   1.081  1.00  0.00    -0.107 SA
HETATM    5  H1  LIG X 999      -1.933   0.094   0.917  1.00  0.00     0.110 HD
ENDBRANCH   1   4
BRANCH   1   6
HETATM    6  N1  LIG X 999       0.934   0.405  -0.652  1.00  0.00    -0.337 N 
HETATM    7  H2  LIG X 999       1.904   0.777  -0.769  1.00  0.00     0.168 HD
BRANCH   6   8
HETATM    8  C2  LIG X 999       0.291  -0.154  -1.807  1.00  0.00     0.034 A 
HETATM    9  C3  LIG X 999       1.047  -0.890  -2.728  1.00  0.00     0.030 A 
HETATM   10  C4  LIG X 999       0.449  -1.425  -3.873  1.00  0.00     0.014 A 
HETATM   11  C5  LIG X 999      -0.914  -1.213  -4.120  1.00  0.00    -0.026 A 
HETATM   12  C6  LIG X 999      -1.526  -1.745  -5.265  1.00  0.00     0.012 A 
HETATM   13  C10 LIG X 999      -1.680  -0.447  -3.208  1.00  0.00    -0.024 A 
HETATM   14  C7  LIG X 999      -2.885  -1.518  -5.505  1.00  0.00     0.001 A 
HETATM   15  C8  LIG X 999      -3.640  -0.759  -4.606  1.00  0.00     0.001 A 
HETATM   16  C9  LIG X 999      -3.043  -0.223  -3.462  1.00  0.00     0.012 A 
HETATM   17  C11 LIG X 999      -1.069   0.086  -2.063  1.00  0.00     0.041 A 
ENDBRANCH   6   8
ENDBRANCH   1   6
BRANCH   2  18
HETATM   18  C12 LIG X 999       0.401   1.173   2.946  1.00  0.00     0.058 A 
HETATM   19  C13 LIG X 999       0.721   0.203   3.900  1.00  0.00     0.106 A 
HETATM   20  S2  LIG X 999      -0.031   0.635   5.341  1.00  0.00    -0.094 SA
HETATM   21  C16 LIG X 999      -0.747   2.049   4.778  1.00  0.00     0.053 A 
HETATM   22  C17 LIG X 999      -0.405   2.207   3.442  1.00  0.00     0.038 A 
BRANCH  19  23
HETATM   23  C14 LIG X 999       1.588  -0.974   3.732  1.00  0.00     0.302 C 
HETATM   24  O1  LIG X 999       2.201  -1.165   2.647  1.00  0.00    -0.259 OA
BRANCH  23  25
HETATM   25  O2  LIG X 999       1.733  -1.873   4.793  1.00  0.00    -0.322 OA
HETATM   26  C15 LIG X 999       2.552  -3.033   4.707  1.00  0.00     0.213 C 
ENDBRANCH  23  25
ENDBRANCH  19  23
ENDBRANCH   2  18
TORSDOF 6
