REMARK  7 active torsions:
REMARK  status: ('A' for Active; 'I' for Inactive)
REMARK    1  A    between atoms: O1_2  and  C1_3 
REMARK    2  A    between atoms: C1_3  and  O2_18 
REMARK    3  A    between atoms: N1_4  and  C2_5 
REMARK    4  A    between atoms: C3_6  and  N2_7 
REMARK    5  A    between atoms: O2_18  and  C12_19 
REMARK    6  A    between atoms: C12_19  and  C14_21 
REMARK    7  A    between atoms: C14_21  and  O3_22 
ROOT
HETATM    1  N2  LIG X 999       2.712  -0.091  -2.149  1.00  0.00    -0.070 NA
HETATM    2  N3  LIG X 999       2.864   1.123  -2.009  1.00  0.00    -0.162 NA
HETATM    3  N4  LIG X 999       3.020   2.336  -1.876  1.00  0.00     0.068 N 
ENDROOT
BRANCH   1   4
HETATM    4  C3  LIG X 999       1.518  -0.779  -1.748  1.00  0.00     0.122 A 
HETATM    5  C2  LIG X 999       0.668  -0.315  -0.709  1.00  0.00     0.094 A 
HETATM    6  C11 LIG X 999      -0.545  -0.971  -0.462  1.00  0.00     0.046 A 
HETATM    7  C10 LIG X 999      -0.897  -2.119  -1.183  1.00  0.00    -0.024 A 
HETATM    8  C5  LIG X 999      -0.024  -2.617  -2.176  1.00  0.00    -0.024 A 
HETATM    9  C9  LIG X 999      -2.104  -2.787  -0.920  1.00  0.00     0.012 A 
HETATM   10  C4  LIG X 999       1.176  -1.944  -2.446  1.00  0.00     0.049 A 
HETATM   11  C6  LIG X 999      -0.372  -3.775  -2.890  1.00  0.00     0.012 A 
HETATM   12  C7  LIG X 999      -1.576  -4.431  -2.620  1.00  0.00     0.001 A 
HETATM   13  C8  LIG X 999      -2.440  -3.938  -1.638  1.00  0.00     0.001 A 
BRANCH   5  14
HETATM   14  N1  LIG X 999       1.011   0.793   0.134  1.00  0.00    -0.200 NA
HETATM   15  C1  LIG X 999       2.069   0.840   0.888  1.00  0.00     0.285 C 
BRANCH  15  16
HETATM   16  O1  LIG X 999       2.959  -0.230   0.914  1.00  0.00    -0.325 OA
HETATM   17  H1  LIG X 999       3.784  -0.200   1.500  1.00  0.00     0.221 HD
ENDBRANCH  15  16
BRANCH  15  18
HETATM   18  O2  LIG X 999       2.334   1.956   1.698  1.00  0.00    -0.308 OA
BRANCH  18  19
HETATM   19  C12 LIG X 999       1.466   3.075   1.937  1.00  0.00     0.152 C 
HETATM   20  C13 LIG X 999       1.155   3.859   0.656  1.00  0.00     0.042 C 
BRANCH  19  21
HETATM   21  C14 LIG X 999       0.205   2.672   2.722  1.00  0.00     0.199 C 
BRANCH  21  22
HETATM   22  O3  LIG X 999      -0.710   1.987   1.893  1.00  0.00    -0.393 OA
HETATM   23  C15 LIG X 999      -1.818   1.572   2.659  1.00  0.00     0.201 C 
ENDBRANCH  21  22
ENDBRANCH  19  21
ENDBRANCH  18  19
ENDBRANCH  15  18
ENDBRANCH   5  14
ENDBRANCH   1   4
TORSDOF 7
