REMARK  2 active torsions:
REMARK  status: ('A' for Active; 'I' for Inactive)
REMARK    1  A    between atoms: N1_1  and  C1_2 
REMARK    2  A    between atoms: C2_5  and  C3_6 
ROOT
HETATM    1  C3  LIG X 999       0.048  -0.813  -1.505  1.00  0.00     0.030 A 
HETATM    2  C4  LIG X 999      -0.736  -0.198  -2.497  1.00  0.00     0.017 A 
HETATM    3  C5  LIG X 999      -1.954   0.400  -2.180  1.00  0.00     0.002 A 
HETATM    4  C6  LIG X 999      -2.419   0.395  -0.868  1.00  0.00     0.012 A 
HETATM    5  C7  LIG X 999      -1.678  -0.232   0.142  1.00  0.00    -0.025 A 
HETATM    6  C8  LIG X 999      -2.171  -0.252   1.456  1.00  0.00     0.012 A 
HETATM    7  C9  LIG X 999      -1.463  -0.905   2.464  1.00  0.00     0.001 A 
HETATM    8  C10 LIG X 999      -0.266  -1.556   2.168  1.00  0.00     0.001 A 
HETATM    9  C11 LIG X 999       0.241  -1.544   0.866  1.00  0.00     0.013 A 
HETATM   10  C12 LIG X 999      -0.439  -0.861  -0.167  1.00  0.00    -0.011 A 
ENDROOT
BRANCH   1  11
HETATM   11  C2  LIG X 999       1.369  -1.349  -1.910  1.00  0.00     0.203 A 
HETATM   12  N3  LIG X 999       1.631  -1.861  -3.134  1.00  0.00    -0.145 NA
HETATM   13  N2  LIG X 999       2.909  -2.195  -3.116  1.00  0.00    -0.240 N 
HETATM   14  C1  LIG X 999       3.383  -1.875  -1.903  1.00  0.00     0.240 A 
HETATM   15  H3  LIG X 999       3.431  -2.623  -3.913  1.00  0.00     0.193 HD
HETATM   16  O1  LIG X 999       2.447  -1.350  -1.152  1.00  0.00    -0.257 OA
BRANCH  14  17
HETATM   17  N1  LIG X 999       4.730  -2.079  -1.486  1.00  0.00    -0.364 N 
HETATM   18  H1  LIG X 999       5.027  -1.804  -0.523  1.00  0.00     0.159 HD
HETATM   19  H2  LIG X 999       5.426  -2.503  -2.137  1.00  0.00     0.159 HD
ENDBRANCH  14  17
ENDBRANCH   1  11
TORSDOF 2
