REMARK  1 active torsions:
REMARK  status: ('A' for Active; 'I' for Inactive)
REMARK    1  A    between atoms: C8_9  and  N2_10 
ROOT
HETATM    1  C1  LIG X 999      -3.822   1.236  -0.672  1.00  0.00     0.283 C 
HETATM    2  N1  LIG X 999      -2.996   0.203  -0.014  1.00  0.00    -0.005 N 
HETATM    3  C2  LIG X 999      -3.853  -0.818   0.624  1.00  0.00     0.283 C 
HETATM    4  C3  LIG X 999      -2.048   0.813   0.977  1.00  0.00     0.286 A 
HETATM    5  C4  LIG X 999      -0.673   0.482   0.486  1.00  0.00    -0.015 A 
HETATM    6  C5  LIG X 999       0.552   0.825   1.059  1.00  0.00     0.022 A 
HETATM    7  C6  LIG X 999       1.737   0.404   0.421  1.00  0.00    -0.023 A 
HETATM    8  C7  LIG X 999       2.991   0.726   0.962  1.00  0.00     0.041 A 
HETATM    9  C8  LIG X 999       4.167   0.305   0.324  1.00  0.00     0.026 A 
HETATM   10  C9  LIG X 999       4.088  -0.441  -0.861  1.00  0.00     0.030 A 
HETATM   11  C10 LIG X 999       2.847  -0.769  -1.412  1.00  0.00     0.014 A 
HETATM   12  C11 LIG X 999       1.665  -0.355  -0.784  1.00  0.00    -0.025 A 
HETATM   13  C12 LIG X 999       0.409  -0.682  -1.333  1.00  0.00     0.030 A 
HETATM   14  C13 LIG X 999      -0.734  -0.244  -0.666  1.00  0.00     0.049 A 
HETATM   15  C14 LIG X 999      -2.125  -0.422  -0.983  1.00  0.00     0.351 A 
HETATM   16  O1  LIG X 999      -2.542  -1.053  -1.993  1.00  0.00    -0.259 OA
ENDROOT
BRANCH   9  17
HETATM   17  N2  LIG X 999       5.442   0.636   0.879  1.00  0.00    -0.399 N 
HETATM   18  H11 LIG X 999       6.325   0.329   0.413  1.00  0.00     0.156 HD
HETATM   19  H12 LIG X 999       5.514   1.192   1.761  1.00  0.00     0.156 HD
ENDBRANCH   9  17
TORSDOF 1
