REMARK  4 active torsions:
REMARK  status: ('A' for Active; 'I' for Inactive)
REMARK    1  A    between atoms: C3_3  and  C4_4 
REMARK    2  A    between atoms: C4_4  and  C5_5 
REMARK    3  A    between atoms: C5_5  and  N1_6 
REMARK    4  A    between atoms: N4_15  and  C12_16 
ROOT
HETATM    1  C12 LIG X 999       0.247  -1.299   2.358  1.00  0.00     0.059 A 
HETATM    2  C13 LIG X 999       1.127  -2.209   1.751  1.00  0.00     0.032 A 
HETATM    3  C14 LIG X 999       1.794  -3.170   2.516  1.00  0.00     0.014 A 
HETATM    4  C15 LIG X 999       1.597  -3.228   3.903  1.00  0.00    -0.024 A 
HETATM    5  C16 LIG X 999       2.263  -4.189   4.681  1.00  0.00     0.034 A 
HETATM    6  C17 LIG X 999       2.062  -4.234   6.066  1.00  0.00     0.045 A 
HETATM    7  C18 LIG X 999       2.746  -5.221   6.861  1.00  0.00     0.099 C 
HETATM    8  N5  LIG X 999       3.295  -6.014   7.499  1.00  0.00    -0.191 NA
HETATM    9  C19 LIG X 999       1.197  -3.320   6.679  1.00  0.00     0.023 A 
HETATM   10  C20 LIG X 999       0.531  -2.358   5.914  1.00  0.00     0.014 A 
HETATM   11  C21 LIG X 999       0.724  -2.304   4.525  1.00  0.00    -0.024 A 
HETATM   12  C22 LIG X 999       0.060  -1.343   3.748  1.00  0.00     0.043 A 
ENDROOT
BRANCH   1  13
HETATM   13  N4  LIG X 999      -0.426  -0.297   1.577  1.00  0.00    -0.243 N 
HETATM   14  C2  LIG X 999      -1.077  -0.443   0.403  1.00  0.00     0.058 A 
HETATM   15  C1  LIG X 999      -1.259  -1.722  -0.357  1.00  0.00     0.072 C 
HETATM   16  C3  LIG X 999      -1.515   0.820   0.038  1.00  0.00     0.082 A 
HETATM   17  N2  LIG X 999      -1.131   1.692   0.992  1.00  0.00    -0.161 NA
HETATM   18  N3  LIG X 999      -0.490   0.984   1.909  1.00  0.00    -0.212 N 
HETATM   19  H20 LIG X 999      -0.062   1.398   2.767  1.00  0.00     0.211 HD
BRANCH  16  20
HETATM   20  C4  LIG X 999      -2.207   1.221  -1.233  1.00  0.00     0.093 C 
BRANCH  20  21
HETATM   21  C5  LIG X 999      -1.248   1.180  -2.429  1.00  0.00     0.279 C 
BRANCH  21  22
HETATM   22  N1  LIG X 999      -0.034   1.983  -2.167  1.00  0.00     0.093 N 
HETATM   23  C6  LIG X 999      -0.282   3.425  -2.266  1.00  0.00     0.273 C 
HETATM   24  C7  LIG X 999       1.048   4.063  -2.602  1.00  0.00     0.036 C 
HETATM   25  C8  LIG X 999       1.784   3.009  -3.420  1.00  0.00     0.016 C 
HETATM   26  C9  LIG X 999       1.754   3.341  -4.919  1.00  0.00     0.012 C 
HETATM   27  C10 LIG X 999       1.054   1.681  -3.113  1.00  0.00     0.222 C 
HETATM   28  C11 LIG X 999       2.002   0.656  -2.482  1.00  0.00     0.043 C 
ENDBRANCH  21  22
ENDBRANCH  20  21
ENDBRANCH  16  20
ENDBRANCH   1  13
TORSDOF 4
