REMARK  3 active torsions:
REMARK  status: ('A' for Active; 'I' for Inactive)
REMARK    1  A    between atoms: C1_1  and  C2_6 
REMARK    2  A    between atoms: N1_2  and  N2_3 
REMARK    3  A    between atoms: C2_6  and  C3_8 
ROOT
HETATM    1  C3  LIG X 999      -1.369   0.763  -0.371  1.00  0.00     0.016 A 
HETATM    2  C4  LIG X 999      -1.320   0.835   1.032  1.00  0.00     0.016 A 
HETATM    3  C5  LIG X 999      -0.350   0.130   1.748  1.00  0.00     0.013 A 
HETATM    4  C6  LIG X 999       0.582  -0.671   1.075  1.00  0.00    -0.026 A 
HETATM    5  C7  LIG X 999       1.560  -1.383   1.786  1.00  0.00     0.012 A 
HETATM    6  C8  LIG X 999       2.480  -2.184   1.102  1.00  0.00     0.001 A 
HETATM    7  C9  LIG X 999       2.429  -2.281  -0.291  1.00  0.00     0.001 A 
HETATM    8  C10 LIG X 999       1.460  -1.577  -1.010  1.00  0.00     0.012 A 
HETATM    9  C11 LIG X 999       0.532  -0.766  -0.337  1.00  0.00    -0.025 A 
HETATM   10  C12 LIG X 999      -0.446  -0.054  -1.048  1.00  0.00     0.028 A 
ENDROOT
BRANCH   1  11
HETATM   11  C2  LIG X 999      -2.417   1.511  -1.108  1.00  0.00     0.201 C 
HETATM   12  O1  LIG X 999      -3.557   1.642  -0.586  1.00  0.00    -0.286 OA
BRANCH  11  13
HETATM   13  C1  LIG X 999      -2.180   2.129  -2.425  1.00  0.00     0.195 C 
HETATM   14  N1  LIG X 999      -0.976   2.280  -2.888  1.00  0.00    -0.164 NA
BRANCH  14  15
HETATM   15  N2  LIG X 999      -0.683   2.890  -4.122  1.00  0.00    -0.177 N 
HETATM   16  H2  LIG X 999       0.313   2.975  -4.421  1.00  0.00     0.214 HD
HETATM   17  N3  LIG X 999      -1.599   3.332  -4.885  1.00  0.00    -0.031 N 
ENDBRANCH  14  15
ENDBRANCH  11  13
ENDBRANCH   1  11
TORSDOF 3
