REMARK  3 active torsions:
REMARK  status: ('A' for Active; 'I' for Inactive)
REMARK    1  A    between atoms: C6_6  and  C7_7 
REMARK    2  A    between atoms: C7_7  and  N1_8 
REMARK    3  A    between atoms: C8_12  and  N4_13 
ROOT
HETATM    1  N1  LIG X 999       1.958   0.289   1.127  1.00  0.00    -0.065 NA
HETATM    2  N2  LIG X 999       1.006   0.845   1.675  1.00  0.00    -0.164 NA
HETATM    3  N3  LIG X 999       0.055   1.399   2.223  1.00  0.00     0.068 N 
ENDROOT
BRANCH   1   4
HETATM    4  C7  LIG X 999       1.922  -0.006  -0.299  1.00  0.00     0.267 A 
HETATM    5  O1  LIG X 999       3.156  -0.520  -0.742  1.00  0.00    -0.314 OA
HETATM    6  C8  LIG X 999       2.809   0.767  -1.200  1.00  0.00     0.349 A 
BRANCH   4   7
HETATM    7  C6  LIG X 999       0.754  -0.773  -0.847  1.00  0.00     0.007 A 
HETATM    8  C5  LIG X 999      -0.273  -0.097  -1.520  1.00  0.00     0.024 A 
HETATM    9  C4  LIG X 999      -1.381  -0.803  -2.012  1.00  0.00    -0.025 A 
HETATM   10  C3  LIG X 999      -2.411  -0.135  -2.693  1.00  0.00     0.012 A 
HETATM   11  C11 LIG X 999      -1.464  -2.203  -1.817  1.00  0.00    -0.026 A 
HETATM   12  C2  LIG X 999      -3.510  -0.849  -3.178  1.00  0.00     0.001 A 
HETATM   13  C1  LIG X 999      -3.591  -2.231  -2.986  1.00  0.00     0.001 A 
HETATM   14  C12 LIG X 999      -2.574  -2.908  -2.308  1.00  0.00     0.012 A 
HETATM   15  C10 LIG X 999      -0.438  -2.870  -1.132  1.00  0.00     0.013 A 
HETATM   16  C9  LIG X 999       0.661  -2.158  -0.646  1.00  0.00     0.013 A 
ENDBRANCH   4   7
BRANCH   6  17
HETATM   17  N4  LIG X 999       3.637   1.772  -0.553  1.00  0.00    -0.077 NA
HETATM   18  N5  LIG X 999       3.442   2.968  -0.770  1.00  0.00    -0.165 NA
HETATM   19  N6  LIG X 999       3.248   4.163  -0.987  1.00  0.00     0.068 N 
ENDBRANCH   6  17
ENDBRANCH   1   4
TORSDOF 3
