REMARK  7 active torsions:
REMARK  status: ('A' for Active; 'I' for Inactive)
REMARK    1  A    between atoms: C11_13  and  N2_14 
REMARK    2  A    between atoms: C12_18  and  C13_19 
REMARK    3  A    between atoms: C13_19  and  C14_20 
REMARK    4  A    between atoms: C14_20  and  O1_21 
REMARK    5  A    between atoms: C14_20  and  C17_24 
REMARK    6  A    between atoms: O1_21  and  C15_22 
REMARK    7  A    between atoms: C17_24  and  C18_25 
ROOT
HETATM    1  H1  LIG X 999      -7.806   1.025  -2.434  1.00  0.00     0.187 HD
HETATM    2  N1  LIG X 999      -7.147   0.290  -2.092  1.00  0.00    -0.300 NA
HETATM    3  C1  LIG X 999      -6.010   0.593  -1.551  1.00  0.00     0.059 A 
HETATM    4  C2  LIG X 999      -5.585   2.027  -1.391  1.00  0.00     0.034 A 
HETATM    5  C3  LIG X 999      -4.397   2.343  -0.825  1.00  0.00     0.033 A 
HETATM    6  C4  LIG X 999      -3.526   1.245  -0.368  1.00  0.00     0.045 A 
HETATM    7  C5  LIG X 999      -3.908  -0.045  -0.513  1.00  0.00     0.017 A 
HETATM    8  C6  LIG X 999      -5.090  -0.473  -1.073  1.00  0.00     0.005 A 
HETATM    9  C7  LIG X 999      -5.302  -1.866  -1.133  1.00  0.00     0.015 A 
HETATM   10  C8  LIG X 999      -4.310  -2.749  -0.626  1.00  0.00     0.002 A 
HETATM   11  C9  LIG X 999      -3.111  -2.248  -0.061  1.00  0.00     0.016 A 
HETATM   12  C10 LIG X 999      -2.942  -0.860  -0.022  1.00  0.00     0.023 A 
HETATM   13  C11 LIG X 999      -1.943   0.002   0.435  1.00  0.00     0.137 A 
HETATM   14  N5  LIG X 999      -2.311   1.299   0.217  1.00  0.00    -0.340 N 
HETATM   15  H24 LIG X 999      -1.773   2.163   0.449  1.00  0.00     0.167 HD
ENDROOT
BRANCH  13  16
HETATM   16  N2  LIG X 999      -0.702  -0.386   1.042  1.00  0.00    -0.232 N 
HETATM   17  N3  LIG X 999      -0.317  -1.637   1.240  1.00  0.00    -0.014 NA
HETATM   18  N4  LIG X 999       0.881  -1.653   1.802  1.00  0.00    -0.286 N 
HETATM   19  H7  LIG X 999       1.415  -2.516   2.046  1.00  0.00     0.184 HD
HETATM   20  C12 LIG X 999       1.273  -0.377   1.972  1.00  0.00     0.043 A 
HETATM   21  C20 LIG X 999       0.272   0.436   1.484  1.00  0.00     0.142 A 
BRANCH  20  22
HETATM   22  C13 LIG X 999       2.607   0.055   2.505  1.00  0.00     0.091 C 
BRANCH  22  23
HETATM   23  C14 LIG X 999       3.635   0.306   1.380  1.00  0.00     0.127 C 
BRANCH  23  24
HETATM   24  O1  LIG X 999       3.099   1.213   0.429  1.00  0.00    -0.386 OA
BRANCH  24  25
HETATM   25  C15 LIG X 999       3.459   2.543   0.739  1.00  0.00     0.163 C 
HETATM   26  C16 LIG X 999       2.768   3.483  -0.235  1.00  0.00     0.033 C 
ENDBRANCH  24  25
ENDBRANCH  23  24
BRANCH  23  27
HETATM   27  C17 LIG X 999       4.003  -1.015   0.668  1.00  0.00     0.032 C 
BRANCH  27  28
HETATM   28  C18 LIG X 999       5.268  -0.910  -0.201  1.00  0.00    -0.002 C 
HETATM   29  C19 LIG X 999       5.044  -0.141  -1.503  1.00  0.00     0.005 C 
ENDBRANCH  27  28
ENDBRANCH  23  27
ENDBRANCH  22  23
ENDBRANCH  20  22
ENDBRANCH  13  16
TORSDOF 7
