REMARK  7 active torsions:
REMARK  status: ('A' for Active; 'I' for Inactive)
REMARK    1  A    between atoms: C6_6  and  O1_7 
REMARK    2  A    between atoms: O1_7  and  C7_8 
REMARK    3  A    between atoms: C7_8  and  O3_10 
REMARK    4  A    between atoms: O3_10  and  C8_11 
REMARK    5  A    between atoms: C8_11  and  N1_12 
REMARK       I    between atoms: N1_12  and  C9_14 
REMARK    6  A    between atoms: C9_14  and  C10_16 
REMARK    7  A    between atoms: C10_16  and  N2_17 
ROOT
HETATM    1  N2  LIG X 999      -0.500  -3.103  -1.671  1.00  0.00    -0.261 NA
HETATM    2  C11 LIG X 999      -0.931  -1.964  -1.297  1.00  0.00     0.158 C 
HETATM    3  S1  LIG X 999      -1.472  -0.522  -0.824  1.00  0.00    -0.055 SA
ENDROOT
BRANCH   1   4
HETATM    4  C10 LIG X 999       0.457  -3.245  -2.765  1.00  0.00     0.197 C 
HETATM    5  C12 LIG X 999       0.645  -4.726  -3.088  1.00  0.00     0.044 C 
BRANCH   4   6
HETATM    6  C9  LIG X 999       1.776  -2.619  -2.390  1.00  0.00     0.243 C 
HETATM    7  N1  LIG X 999       2.316  -1.548  -3.176  1.00  0.00    -0.338 N 
HETATM    8  H7  LIG X 999       1.853  -1.286  -4.075  1.00  0.00     0.164 HD
HETATM    9  O4  LIG X 999       2.390  -3.024  -1.365  1.00  0.00    -0.271 OA
BRANCH   7  10
HETATM   10  C8  LIG X 999       3.443  -0.743  -2.713  1.00  0.00     0.306 C 
BRANCH  10  11
HETATM   11  O3  LIG X 999       3.123  -0.118  -1.472  1.00  0.00    -0.278 OA
BRANCH  11  12
HETATM   12  C7  LIG X 999       2.086   0.807  -1.330  1.00  0.00     0.413 C 
HETATM   13  O2  LIG X 999       1.420   1.178  -2.336  1.00  0.00    -0.229 OA
BRANCH  12  14
HETATM   14  O1  LIG X 999       1.757   1.258  -0.046  1.00  0.00    -0.256 OA
BRANCH  14  15
HETATM   15  C6  LIG X 999       0.868   2.304   0.243  1.00  0.00     0.082 A 
HETATM   16  C5  LIG X 999       0.129   2.240   1.430  1.00  0.00     0.049 A 
HETATM   17  C4  LIG X 999      -0.775   3.259   1.763  1.00  0.00    -0.023 A 
HETATM   18  C3  LIG X 999      -1.530   3.188   2.945  1.00  0.00     0.012 A 
HETATM   19  C15 LIG X 999      -0.929   4.370   0.899  1.00  0.00    -0.026 A 
HETATM   20  C2  LIG X 999      -2.429   4.210   3.265  1.00  0.00     0.001 A 
HETATM   21  C1  LIG X 999      -2.581   5.306   2.412  1.00  0.00     0.001 A 
HETATM   22  C16 LIG X 999      -1.834   5.389   1.233  1.00  0.00     0.012 A 
HETATM   23  C14 LIG X 999      -0.171   4.443  -0.277  1.00  0.00     0.015 A 
HETATM   24  C13 LIG X 999       0.725   3.420  -0.601  1.00  0.00     0.038 A 
ENDBRANCH  14  15
ENDBRANCH  12  14
ENDBRANCH  11  12
ENDBRANCH  10  11
ENDBRANCH   7  10
ENDBRANCH   4   6
ENDBRANCH   1   4
TORSDOF 7
