REMARK  4 active torsions:
REMARK  status: ('A' for Active; 'I' for Inactive)
REMARK    1  A    between atoms: C5_5  and  O1_6 
REMARK    2  A    between atoms: O1_6  and  C6_7 
REMARK       I    between atoms: C6_7  and  N1_9 
REMARK    3  A    between atoms: C9_12  and  N2_13 
REMARK    4  A    between atoms: C11_18  and  N5_19 
ROOT
HETATM    1  N2  LIG X 999      -0.268  -2.278  -1.270  1.00  0.00    -0.068 NA
HETATM    2  N3  LIG X 999      -0.730  -2.979  -2.171  1.00  0.00    -0.162 NA
HETATM    3  N4  LIG X 999      -1.197  -3.680  -3.068  1.00  0.00     0.068 N 
ENDROOT
BRANCH   1   4
HETATM    4  C9  LIG X 999       0.452  -1.058  -1.518  1.00  0.00     0.151 C 
HETATM    5  C5  LIG X 999       0.496  -0.129  -0.447  1.00  0.00     0.114 C 
HETATM    6  C4  LIG X 999       1.460   0.902  -0.301  1.00  0.00     0.040 C 
HETATM    7  C3  LIG X 999       2.693   0.969  -0.955  1.00  0.00     0.003 C 
HETATM    8  C2  LIG X 999       3.421  -0.158  -1.342  1.00  0.00     0.000 C 
HETATM    9  C1  LIG X 999       4.097  -0.221  -2.564  1.00  0.00     0.000 C 
HETATM   10  C13 LIG X 999       3.668   0.418  -3.743  1.00  0.00     0.002 C 
HETATM   11  C12 LIG X 999       2.360   0.874  -4.011  1.00  0.00     0.036 C 
HETATM   12  C11 LIG X 999       1.188   0.462  -3.332  1.00  0.00     0.117 C 
HETATM   13  C10 LIG X 999       1.060  -0.829  -2.781  1.00  0.00     0.100 C 
HETATM   14 CL1  LIG X 999       1.712  -2.198  -3.691  1.00  0.00    -0.079 Cl
BRANCH   5  15
HETATM   15  O1  LIG X 999      -0.486  -0.279   0.545  1.00  0.00    -0.259 OA
BRANCH  15  16
HETATM   16  C6  LIG X 999      -1.215   0.773   1.118  1.00  0.00     0.367 C 
HETATM   17  O2  LIG X 999      -1.247   1.904   0.559  1.00  0.00    -0.238 OA
HETATM   18  N1  LIG X 999      -1.975   0.543   2.317  1.00  0.00    -0.336 N 
HETATM   19  C7  LIG X 999      -2.756   1.633   2.907  1.00  0.00     0.154 C 
HETATM   20  C8  LIG X 999      -1.950  -0.784   2.936  1.00  0.00     0.154 C 
ENDBRANCH  15  16
ENDBRANCH   5  15
BRANCH  12  21
HETATM   21  N5  LIG X 999       0.074   1.360  -3.204  1.00  0.00    -0.071 NA
HETATM   22  N6  LIG X 999       0.122   2.530  -3.588  1.00  0.00    -0.162 NA
HETATM   23  N7  LIG X 999       0.168   3.698  -3.970  1.00  0.00     0.068 N 
ENDBRANCH  12  21
ENDBRANCH   1   4
TORSDOF 4
