REMARK  5 active torsions:
REMARK  status: ('A' for Active; 'I' for Inactive)
REMARK    1  A    between atoms: C3_3  and  S1_4 
REMARK    2  A    between atoms: S1_4  and  C4_7 
REMARK    3  A    between atoms: C8_11  and  N1_12 
REMARK    4  A    between atoms: C12_18  and  C13_19 
REMARK    5  A    between atoms: C14_22  and  N6_23 
ROOT
HETATM    1  C1  LIG X 999       1.283   3.640  -2.773  1.00  0.00     0.013 C 
HETATM    2  C2  LIG X 999       2.048   2.761  -3.083  1.00  0.00    -0.102 C 
HETATM    3  C3  LIG X 999       2.975   1.691  -3.458  1.00  0.00     0.233 C 
ENDROOT
BRANCH   3   4
HETATM    4  S1  LIG X 999       3.220   0.580  -2.084  1.00  0.00     0.159 S 
HETATM    5  O1  LIG X 999       4.134  -0.533  -2.514  1.00  0.00    -0.227 OA
HETATM    6  O2  LIG X 999       3.864   1.333  -0.954  1.00  0.00    -0.227 OA
BRANCH   4   7
HETATM    7  C4  LIG X 999       1.654  -0.102  -1.530  1.00  0.00     0.110 C 
HETATM    8  C5  LIG X 999       0.915  -0.800  -2.696  1.00  0.00     0.021 C 
HETATM    9  C6  LIG X 999      -0.153  -1.813  -2.231  1.00  0.00     0.009 C 
HETATM   10  C7  LIG X 999      -0.656  -1.496  -0.806  1.00  0.00     0.030 C 
HETATM   11  C8  LIG X 999      -1.917  -2.325  -0.435  1.00  0.00     0.150 C 
HETATM   12  C12 LIG X 999       0.520  -1.613   0.239  1.00  0.00     0.036 C 
HETATM   13  C9  LIG X 999      -1.575  -3.771  -0.054  1.00  0.00     0.030 C 
HETATM   14  C10 LIG X 999      -0.543  -3.819   1.071  1.00  0.00     0.004 C 
HETATM   15  C11 LIG X 999       0.743  -3.102   0.651  1.00  0.00     0.018 C 
HETATM   16  C15 LIG X 999       1.868  -1.076  -0.360  1.00  0.00     0.038 C 
BRANCH  11  17
HETATM   17  N1  LIG X 999      -2.623  -1.683   0.673  1.00  0.00    -0.110 NA
HETATM   18  N2  LIG X 999      -3.771  -1.258   0.539  1.00  0.00    -0.167 NA
HETATM   19  N3  LIG X 999      -4.918  -0.833   0.405  1.00  0.00     0.068 N 
ENDBRANCH  11  17
BRANCH  12  20
HETATM   20  C13 LIG X 999       0.188  -0.775   1.465  1.00  0.00     0.180 A 
HETATM   21  N4  LIG X 999      -0.209   0.514   1.417  1.00  0.00    -0.124 NA
HETATM   22  N5  LIG X 999      -0.370   0.909   2.670  1.00  0.00    -0.099 NA
HETATM   23  C14 LIG X 999      -0.058  -0.153   3.431  1.00  0.00     0.326 A 
HETATM   24  O3  LIG X 999       0.290  -1.188   2.708  1.00  0.00    -0.256 OA
BRANCH  23  25
HETATM   25  N6  LIG X 999      -0.103  -0.143   4.856  1.00  0.00    -0.023 NA
HETATM   26  N7  LIG X 999       0.191  -1.149   5.502  1.00  0.00    -0.158 NA
HETATM   27  N8  LIG X 999       0.485  -2.154   6.147  1.00  0.00     0.068 N 
ENDBRANCH  23  25
ENDBRANCH  12  20
ENDBRANCH   4   7
ENDBRANCH   3   4
TORSDOF 5
