REMARK  4 active torsions:
REMARK  status: ('A' for Active; 'I' for Inactive)
REMARK    1  A    between atoms: C5_5  and  C6_6 
REMARK    2  A    between atoms: C7_7  and  C8_8 
REMARK    3  A    between atoms: C11_13  and  C12_14 
REMARK    4  A    between atoms: C13_16  and  N1_17 
ROOT
HETATM    1  N1  LIG X 999       0.848   5.096  -1.355  1.00  0.00    -0.023 NA
HETATM    2  N2  LIG X 999       1.666   4.709  -2.188  1.00  0.00    -0.158 NA
HETATM    3  N3  LIG X 999       2.485   4.322  -3.022  1.00  0.00     0.068 N 
ENDROOT
BRANCH   1   4
HETATM    4  C13 LIG X 999       0.144   4.163  -0.537  1.00  0.00     0.324 A 
HETATM    5  O3  LIG X 999       0.302   2.860  -0.595  1.00  0.00    -0.258 OA
HETATM    6  C12 LIG X 999      -0.523   2.380   0.308  1.00  0.00     0.157 A 
HETATM    7  N5  LIG X 999      -1.179   3.386   0.921  1.00  0.00    -0.255 N 
HETATM    8  N4  LIG X 999      -0.763   4.524   0.389  1.00  0.00    -0.124 NA
HETATM    9  H11 LIG X 999      -1.889   3.310   1.682  1.00  0.00     0.191 HD
BRANCH   6  10
HETATM   10  C11 LIG X 999      -0.698   0.909   0.637  1.00  0.00     0.051 C 
HETATM   11  C3  LIG X 999       0.053   0.020  -0.414  1.00  0.00     0.029 C 
HETATM   12  C2  LIG X 999      -0.652   0.083  -1.752  1.00  0.00    -0.021 C 
HETATM   13  C4  LIG X 999       0.141  -1.459   0.024  1.00  0.00     0.027 C 
HETATM   14  C1  LIG X 999      -1.986   0.165  -1.811  1.00  0.00    -0.004 C 
HETATM   15  C15 LIG X 999      -2.783   0.310  -0.576  1.00  0.00    -0.003 C 
HETATM   16  C14 LIG X 999      -2.187   0.599   0.588  1.00  0.00    -0.008 C 
HETATM   17  C5  LIG X 999       0.751  -1.597   1.424  1.00  0.00     0.066 C 
HETATM   18  C9  LIG X 999      -0.077  -0.806   2.444  1.00  0.00     0.019 C 
HETATM   19  C10 LIG X 999      -0.128   0.677   2.060  1.00  0.00     0.024 C 
BRANCH  17  20
HETATM   20  C6  LIG X 999       0.804  -3.014   1.812  1.00  0.00    -0.090 C 
HETATM   21  C7  LIG X 999       0.847  -4.177   2.130  1.00  0.00     0.005 C 
BRANCH  21  22
HETATM   22  C8  LIG X 999       0.897  -5.560   2.508  1.00  0.00     0.258 C 
HETATM   23  O1  LIG X 999       1.124  -5.878   3.704  1.00  0.00    -0.637 OA
HETATM   24  O2  LIG X 999       0.696  -6.547   1.554  1.00  0.00    -0.637 OA
ENDBRANCH  21  22
ENDBRANCH  17  20
ENDBRANCH   6  10
ENDBRANCH   1   4
TORSDOF 4
