REMARK  1 active torsions:
REMARK  status: ('A' for Active; 'I' for Inactive)
REMARK    1  A    between atoms: C3_3  and  N1_4 
ROOT
HETATM    1  N1  LIG X 999       0.883  -3.106  -3.300  1.00  0.00    -0.072 NA
HETATM    2  N2  LIG X 999       0.689  -4.099  -4.003  1.00  0.00    -0.162 NA
HETATM    3  N3  LIG X 999       0.497  -5.090  -4.706  1.00  0.00     0.068 N 
ENDROOT
BRANCH   1   4
HETATM    4  C3  LIG X 999       0.018  -2.752  -2.207  1.00  0.00     0.104 A 
HETATM    5  C2  LIG X 999      -1.105  -3.540  -1.891  1.00  0.00     0.035 A 
HETATM    6  C1  LIG X 999      -1.943  -3.195  -0.829  1.00  0.00     0.003 A 
HETATM    7  C10 LIG X 999      -1.680  -2.060  -0.063  1.00  0.00     0.012 A 
HETATM    8  C9  LIG X 999      -0.570  -1.255  -0.353  1.00  0.00    -0.023 A 
HETATM    9  C4  LIG X 999       0.293  -1.600  -1.437  1.00  0.00     0.006 A 
HETATM   10  C8  LIG X 999      -0.305  -0.111   0.424  1.00  0.00     0.021 A 
HETATM   11  C5  LIG X 999       1.410  -0.779  -1.715  1.00  0.00     0.024 A 
HETATM   12  C6  LIG X 999       1.631   0.349  -0.925  1.00  0.00    -0.023 A 
HETATM   13  C7  LIG X 999       0.805   0.671   0.106  1.00  0.00    -0.024 A 
HETATM   14  C14 LIG X 999       2.740   1.322  -1.025  1.00  0.00     0.276 C 
HETATM   15  C11 LIG X 999       1.282   1.891   0.793  1.00  0.00     0.276 C 
HETATM   16  N4  LIG X 999       2.425   2.397  -0.030  1.00  0.00    -0.067 N 
HETATM   17  C12 LIG X 999       3.601   2.679   0.824  1.00  0.00     0.272 C 
HETATM   18  C13 LIG X 999       2.032   3.641  -0.735  1.00  0.00     0.272 C 
ENDBRANCH   1   4
TORSDOF 1
