REMARK  1 active torsions:
REMARK  status: ('A' for Active; 'I' for Inactive)
REMARK    1  A    between atoms: C2_2  and  N1_3 
ROOT
HETATM    1  N1  LIG X 999       1.751  -4.936   3.195  1.00  0.00    -0.073 NA
HETATM    2  N2  LIG X 999       1.159  -5.811   2.562  1.00  0.00    -0.162 NA
HETATM    3  N3  LIG X 999       0.568  -6.687   1.931  1.00  0.00     0.068 N 
ENDROOT
BRANCH   1   4
HETATM    4  C2  LIG X 999       1.658  -3.546   2.853  1.00  0.00     0.094 A 
HETATM    5  C1  LIG X 999       2.363  -2.615   3.625  1.00  0.00     0.035 A 
HETATM    6  C10 LIG X 999       2.303  -1.250   3.329  1.00  0.00     0.014 A 
HETATM    7  C9  LIG X 999       1.531  -0.796   2.252  1.00  0.00    -0.025 A 
HETATM    8  C4  LIG X 999       0.809  -1.734   1.460  1.00  0.00    -0.023 A 
HETATM    9  C8  LIG X 999       1.466   0.577   1.945  1.00  0.00     0.021 A 
HETATM   10  C3  LIG X 999       0.879  -3.101   1.767  1.00  0.00     0.046 A 
HETATM   11  C5  LIG X 999       0.034  -1.282   0.374  1.00  0.00     0.021 A 
HETATM   12  C6  LIG X 999      -0.010   0.087   0.107  1.00  0.00    -0.024 A 
HETATM   13  C7  LIG X 999       0.681   0.984   0.865  1.00  0.00    -0.024 A 
HETATM   14  C14 LIG X 999      -0.732   0.777  -0.983  1.00  0.00     0.276 C 
HETATM   15  C11 LIG X 999       0.485   2.357   0.352  1.00  0.00     0.276 C 
HETATM   16  N4  LIG X 999      -0.546   2.241  -0.728  1.00  0.00    -0.067 N 
HETATM   17  C12 LIG X 999      -1.824   2.842  -0.276  1.00  0.00     0.272 C 
HETATM   18  C13 LIG X 999      -0.097   2.933  -1.957  1.00  0.00     0.272 C 
ENDBRANCH   1   4
TORSDOF 1
