REMARK  2 active torsions:
REMARK  status: ('A' for Active; 'I' for Inactive)
REMARK    1  A    between atoms: N1_1  and  C1_2 
REMARK    2  A    between atoms: C2_5  and  C3_6 
ROOT
HETATM    1  C3  LIG X 999       0.966   0.244  -0.205  1.00  0.00     0.030 A 
HETATM    2  C4  LIG X 999       1.796   0.932  -1.107  1.00  0.00     0.017 A 
HETATM    3  C5  LIG X 999       2.957   1.569  -0.672  1.00  0.00     0.002 A 
HETATM    4  C6  LIG X 999       3.318   1.530   0.672  1.00  0.00     0.012 A 
HETATM    5  C7  LIG X 999       2.530   0.830   1.595  1.00  0.00    -0.025 A 
HETATM    6  C8  LIG X 999       2.918   0.778   2.943  1.00  0.00     0.012 A 
HETATM    7  C9  LIG X 999       2.164   0.053   3.865  1.00  0.00     0.001 A 
HETATM    8  C10 LIG X 999       1.026  -0.635   3.450  1.00  0.00     0.001 A 
HETATM    9  C11 LIG X 999       0.622  -0.591   2.113  1.00  0.00     0.013 A 
HETATM   10  C12 LIG X 999       1.349   0.162   1.164  1.00  0.00    -0.011 A 
ENDROOT
BRANCH   1  11
HETATM   11  C2  LIG X 999      -0.294  -0.331  -0.734  1.00  0.00     0.203 A 
HETATM   12  N3  LIG X 999      -0.435  -0.802  -1.994  1.00  0.00    -0.145 NA
HETATM   13  N2  LIG X 999      -1.694  -1.192  -2.091  1.00  0.00    -0.240 N 
HETATM   14  C1  LIG X 999      -2.275  -0.943  -0.908  1.00  0.00     0.240 A 
HETATM   15  H3  LIG X 999      -2.132  -1.609  -2.942  1.00  0.00     0.193 HD
HETATM   16  O1  LIG X 999      -1.426  -0.409  -0.066  1.00  0.00    -0.257 OA
BRANCH  14  17
HETATM   17  N1  LIG X 999      -3.640  -1.220  -0.608  1.00  0.00    -0.364 N 
HETATM   18  H1  LIG X 999      -4.263  -1.647  -1.328  1.00  0.00     0.159 HD
HETATM   19  H2  LIG X 999      -4.024  -0.999   0.337  1.00  0.00     0.159 HD
ENDBRANCH  14  17
ENDBRANCH   1  11
TORSDOF 2
