REMARK  1 active torsions:
REMARK  status: ('A' for Active; 'I' for Inactive)
REMARK    1  A    between atoms: N1_2  and  C1_3 
ROOT
HETATM    1  C1  LIG X 999      -2.230  -3.095   1.096  1.00  0.00     0.143 C 
HETATM    2  N2  LIG X 999      -2.403  -1.936   1.774  1.00  0.00    -0.229 NA
HETATM    3  C2  LIG X 999      -1.876  -0.760   1.346  1.00  0.00     0.070 C 
HETATM    4  C3  LIG X 999      -2.162   0.397   2.070  1.00  0.00     0.033 C 
HETATM    5  C4  LIG X 999      -1.655   1.625   1.668  1.00  0.00     0.014 C 
HETATM    6  C5  LIG X 999      -0.759   1.702   0.598  1.00  0.00    -0.025 C 
HETATM    7  C6  LIG X 999      -0.177   2.940   0.280  1.00  0.00     0.012 C 
HETATM    8  C7  LIG X 999       0.815   3.021  -0.693  1.00  0.00     0.001 C 
HETATM    9  C8  LIG X 999       1.264   1.865  -1.325  1.00  0.00     0.001 C 
HETATM   10  C9  LIG X 999       0.684   0.629  -1.029  1.00  0.00     0.013 C 
HETATM   11  C10 LIG X 999      -0.399   0.527  -0.125  1.00  0.00    -0.013 C 
HETATM   12  C11 LIG X 999      -1.070  -0.708   0.172  1.00  0.00     0.010 C 
HETATM   13  C12 LIG X 999      -1.030  -1.892  -0.633  1.00  0.00    -0.045 C 
HETATM   14  C13 LIG X 999      -0.593  -1.926  -2.078  1.00  0.00     0.049 C 
HETATM   15  C14 LIG X 999      -1.555  -3.090  -0.121  1.00  0.00     0.059 C 
ENDROOT
BRANCH   1  16
HETATM   16  N1  LIG X 999      -2.728  -4.198   1.556  1.00  0.00    -0.282 NA
HETATM   17  H1  LIG X 999      -3.254  -4.225   2.459  1.00  0.00     0.188 HD
ENDBRANCH   1  16
TORSDOF 1
