REMARK  6 active torsions:
REMARK  status: ('A' for Active; 'I' for Inactive)
REMARK    1  A    between atoms: O1_2  and  C1_3 
REMARK    2  A    between atoms: C1_3  and  C4_10 
REMARK    3  A    between atoms: N1_4  and  C2_5 
REMARK    4  A    between atoms: C2_5  and  C3_6 
REMARK    5  A    between atoms: C3_6  and  N2_7 
REMARK    6  A    between atoms: C13_19  and  N5_20 
ROOT
HETATM    1  N2  LIG X 999       1.211   5.599   2.400  1.00  0.00    -0.114 NA
HETATM    2  N3  LIG X 999       0.589   6.405   3.091  1.00  0.00    -0.168 NA
HETATM    3  N4  LIG X 999      -0.032   7.212   3.782  1.00  0.00     0.068 N 
ENDROOT
BRANCH   1   4
HETATM    4  C3  LIG X 999       0.556   4.406   1.885  1.00  0.00     0.211 C 
BRANCH   4   5
HETATM    5  C2  LIG X 999       1.547   3.587   1.067  1.00  0.00     0.176 C 
BRANCH   5   6
HETATM    6  N1  LIG X 999       0.887   2.392   0.553  1.00  0.00    -0.265 NA
HETATM    7  C1  LIG X 999       1.486   1.501  -0.179  1.00  0.00     0.167 C 
BRANCH   7   8
HETATM    8  O1  LIG X 999       2.835   1.668  -0.506  1.00  0.00    -0.344 OA
HETATM    9  H1  LIG X 999       3.371   0.957  -0.987  1.00  0.00     0.219 HD
ENDBRANCH   7   8
BRANCH   7  10
HETATM   10  C4  LIG X 999       0.729   0.314  -0.650  1.00  0.00     0.017 A 
HETATM   11  C5  LIG X 999       1.103  -0.358  -1.824  1.00  0.00     0.016 A 
HETATM   12  C6  LIG X 999       0.387  -1.474  -2.261  1.00  0.00     0.011 A 
HETATM   13  C7  LIG X 999      -0.718  -1.946  -1.536  1.00  0.00    -0.024 A 
HETATM   14  C8  LIG X 999      -1.124  -1.258  -0.368  1.00  0.00    -0.049 A 
HETATM   15  C13 LIG X 999      -1.504  -3.118  -2.084  1.00  0.00     0.179 C 
HETATM   16  C9  LIG X 999      -0.390  -0.144   0.069  1.00  0.00     0.023 A 
HETATM   17  C10 LIG X 999      -2.261  -1.759   0.492  1.00  0.00     0.039 C 
HETATM   18  C11 LIG X 999      -3.196  -2.714  -0.255  1.00  0.00     0.007 C 
HETATM   19  C12 LIG X 999      -2.388  -3.771  -1.007  1.00  0.00     0.035 C 
BRANCH  15  20
HETATM   20  N5  LIG X 999      -2.317  -2.654  -3.206  1.00  0.00    -0.105 NA
HETATM   21  N6  LIG X 999      -2.909  -3.449  -3.937  1.00  0.00    -0.167 NA
HETATM   22  N7  LIG X 999      -3.502  -4.242  -4.666  1.00  0.00     0.068 N 
ENDBRANCH  15  20
ENDBRANCH   7  10
ENDBRANCH   5   6
ENDBRANCH   4   5
ENDBRANCH   1   4
TORSDOF 6
