REMARK  4 active torsions:
REMARK  status: ('A' for Active; 'I' for Inactive)
REMARK    1  A    between atoms: C3_3  and  O1_4 
REMARK    2  A    between atoms: O1_4  and  C4_5 
REMARK    3  A    between atoms: C4_5  and  O2_6 
REMARK    4  A    between atoms: C5_8  and  C6_9 
ROOT
HETATM    1  C1  LIG X 999      -1.405   1.209  -2.719  1.00  0.00     0.014 C 
HETATM    2  C2  LIG X 999      -1.622   0.043  -2.505  1.00  0.00    -0.091 C 
HETATM    3  C3  LIG X 999      -1.884  -1.372  -2.241  1.00  0.00     0.270 C 
ENDROOT
BRANCH   3   4
HETATM    4  O1  LIG X 999      -0.936  -1.851  -1.297  1.00  0.00    -0.319 OA
BRANCH   4   5
HETATM    5  C4  LIG X 999      -0.932  -3.159  -0.792  1.00  0.00     0.179 C 
HETATM    6  C5  LIG X 999      -0.031  -3.514   0.128  1.00  0.00     0.075 C 
BRANCH   5   7
HETATM    7  O2  LIG X 999      -1.848  -4.113  -1.238  1.00  0.00    -0.341 OA
HETATM    8  H4  LIG X 999      -2.549  -3.908  -1.938  1.00  0.00     0.220 HD
ENDBRANCH   5   7
BRANCH   6   9
HETATM    9  C6  LIG X 999       1.006  -2.586   0.630  1.00  0.00    -0.021 A 
HETATM   10  C7  LIG X 999       2.347  -2.943   0.426  1.00  0.00     0.012 A 
HETATM   11  C8  LIG X 999       3.380  -2.095   0.827  1.00  0.00     0.002 A 
HETATM   12  C9  LIG X 999       3.092  -0.881   1.447  1.00  0.00     0.012 A 
HETATM   13  C10 LIG X 999       1.763  -0.512   1.696  1.00  0.00    -0.025 A 
HETATM   14  C11 LIG X 999       1.481   0.701   2.345  1.00  0.00     0.012 A 
HETATM   15  C15 LIG X 999       0.701  -1.371   1.302  1.00  0.00    -0.015 A 
HETATM   16  C12 LIG X 999       0.162   1.059   2.625  1.00  0.00     0.001 A 
HETATM   17  C13 LIG X 999      -0.885   0.209   2.271  1.00  0.00     0.001 A 
HETATM   18  C14 LIG X 999      -0.623  -1.000   1.622  1.00  0.00     0.013 A 
ENDBRANCH   6   9
ENDBRANCH   4   5
ENDBRANCH   3   4
TORSDOF 4
