REMARK  4 active torsions:
REMARK  status: ('A' for Active; 'I' for Inactive)
REMARK    1  A    between atoms: C3_3  and  O1_4 
REMARK    2  A    between atoms: O1_4  and  C4_5 
REMARK    3  A    between atoms: C4_5  and  O2_6 
REMARK    4  A    between atoms: C5_8  and  C6_9 
ROOT
HETATM    1  C1  LIG X 999       2.849  -0.921   2.159  1.00  0.00     0.014 C 
HETATM    2  C2  LIG X 999       2.012  -0.061   2.271  1.00  0.00    -0.091 C 
HETATM    3  C3  LIG X 999       0.994   0.981   2.403  1.00  0.00     0.266 C 
ENDROOT
BRANCH   3   4
HETATM    4  O1  LIG X 999       1.254   1.993   1.458  1.00  0.00    -0.319 OA
BRANCH   4   5
HETATM    5  C4  LIG X 999       0.117   2.818   1.345  1.00  0.00     0.314 A 
HETATM    6  O3  LIG X 999       0.233   3.650   0.215  1.00  0.00    -0.312 OA
HETATM    7  C5  LIG X 999      -0.806   2.696   0.185  1.00  0.00     0.254 A 
BRANCH   5   8
HETATM    8  O2  LIG X 999      -0.260   3.572   2.462  1.00  0.00    -0.341 OA
HETATM    9  H4  LIG X 999      -0.961   3.038   2.915  1.00  0.00     0.215 HD
ENDBRANCH   5   8
BRANCH   7  10
HETATM   10  C6  LIG X 999      -0.526   1.570  -0.771  1.00  0.00    -0.021 A 
HETATM   11  C7  LIG X 999       0.166   1.796  -1.972  1.00  0.00     0.011 A 
HETATM   12  C8  LIG X 999       0.413   0.741  -2.855  1.00  0.00     0.013 A 
HETATM   13  C9  LIG X 999      -0.040  -0.551  -2.555  1.00  0.00    -0.026 A 
HETATM   14  C10 LIG X 999       0.207  -1.619  -3.432  1.00  0.00     0.012 A 
HETATM   15  C14 LIG X 999      -0.759  -0.781  -1.357  1.00  0.00    -0.025 A 
HETATM   16  C11 LIG X 999      -0.254  -2.902  -3.123  1.00  0.00     0.001 A 
HETATM   17  C12 LIG X 999      -0.964  -3.128  -1.941  1.00  0.00     0.001 A 
HETATM   18  C13 LIG X 999      -1.218  -2.074  -1.059  1.00  0.00     0.012 A 
HETATM   19  C15 LIG X 999      -1.006   0.285  -0.479  1.00  0.00     0.022 A 
ENDBRANCH   7  10
ENDBRANCH   4   5
ENDBRANCH   3   4
TORSDOF 4
