REMARK  1 active torsions:
REMARK  status: ('A' for Active; 'I' for Inactive)
REMARK    1  A    between atoms: C12_13  and  N2_14 
ROOT
HETATM    1  C1  LIG X 999       3.010   1.432  -2.203  1.00  0.00     0.272 C 
HETATM    2  N1  LIG X 999       2.384   1.699  -0.886  1.00  0.00    -0.067 N 
HETATM    3  C2  LIG X 999       3.430   2.141   0.064  1.00  0.00     0.272 C 
HETATM    4  C3  LIG X 999       1.701   0.467  -0.384  1.00  0.00     0.276 C 
HETATM    5  C4  LIG X 999       0.253   0.742  -0.490  1.00  0.00    -0.021 A 
HETATM    6  C5  LIG X 999      -0.791  -0.145  -0.255  1.00  0.00     0.022 A 
HETATM    7  C6  LIG X 999      -2.113   0.313  -0.388  1.00  0.00    -0.023 A 
HETATM    8  C7  LIG X 999      -3.180  -0.567  -0.149  1.00  0.00     0.012 A 
HETATM    9  C8  LIG X 999      -4.497  -0.123  -0.258  1.00  0.00     0.001 A 
HETATM   10  C9  LIG X 999      -4.763   1.202  -0.600  1.00  0.00     0.001 A 
HETATM   11  C10 LIG X 999      -3.716   2.095  -0.843  1.00  0.00     0.014 A 
HETATM   12  C11 LIG X 999      -2.372   1.671  -0.755  1.00  0.00     0.001 A 
HETATM   13  C12 LIG X 999      -1.274   2.549  -0.998  1.00  0.00     0.045 A 
HETATM   14  C13 LIG X 999       0.027   2.036  -0.848  1.00  0.00     0.003 A 
HETATM   15  C14 LIG X 999       1.320   2.744  -1.026  1.00  0.00     0.278 C 
ENDROOT
BRANCH  13  16
HETATM   16  N2  LIG X 999      -1.450   3.919  -1.395  1.00  0.00    -0.398 N 
HETATM   17  H14 LIG X 999      -2.355   4.298  -1.742  1.00  0.00     0.156 HD
HETATM   18  H15 LIG X 999      -0.638   4.575  -1.425  1.00  0.00     0.156 HD
ENDBRANCH  13  16
TORSDOF 1
