REMARK  3 active torsions:
REMARK  status: ('A' for Active; 'I' for Inactive)
REMARK    1  A    between atoms: C1_2  and  C2_4 
REMARK       I    between atoms: N1_6  and  C4_7 
REMARK    2  A    between atoms: C4_7  and  C5_9 
REMARK    3  A    between atoms: C6_10  and  C7_11 
ROOT
HETATM    1  C5  LIG X 999      -0.621  -1.304   0.307  1.00  0.00     0.000 C 
HETATM    2  C6  LIG X 999      -0.074  -0.267   0.028  1.00  0.00    -0.057 C 
ENDROOT
BRANCH   1   3
HETATM    3  C4  LIG X 999      -1.280  -2.537   0.645  1.00  0.00     0.300 C 
HETATM    4  N1  LIG X 999      -2.386  -2.551   1.560  1.00  0.00    -0.317 N 
HETATM    5  C3  LIG X 999      -2.931  -1.397   2.215  1.00  0.00     0.172 C 
HETATM    6  C17 LIG X 999      -3.119  -3.737   1.942  1.00  0.00     0.298 C 
HETATM    7  C2  LIG X 999      -3.985  -1.997   3.136  1.00  0.00     0.242 C 
HETATM    8  O4  LIG X 999      -4.188  -3.351   2.778  1.00  0.00    -0.354 OA
HETATM    9  O3  LIG X 999      -0.875  -3.611   0.127  1.00  0.00    -0.258 OA
BRANCH   7  10
HETATM   10  C1  LIG X 999      -5.281  -1.248   3.049  1.00  0.00     0.204 C 
HETATM   11  O1  LIG X 999      -5.563  -0.371   3.906  1.00  0.00    -0.646 OA
HETATM   12  O2  LIG X 999      -6.154  -1.483   1.993  1.00  0.00    -0.646 OA
ENDBRANCH   7  10
ENDBRANCH   1   3
BRANCH   2  13
HETATM   13  C7  LIG X 999       0.575   0.975  -0.301  1.00  0.00     0.019 A 
HETATM   14  C8  LIG X 999       0.125   2.171   0.271  1.00  0.00     0.021 A 
HETATM   15  C9  LIG X 999       0.750   3.381  -0.044  1.00  0.00     0.013 A 
HETATM   16  C10 LIG X 999       1.833   3.405  -0.935  1.00  0.00    -0.026 A 
HETATM   17  C11 LIG X 999       2.468   4.614  -1.258  1.00  0.00     0.012 A 
HETATM   18  C15 LIG X 999       2.291   2.196  -1.515  1.00  0.00    -0.025 A 
HETATM   19  C12 LIG X 999       3.546   4.624  -2.148  1.00  0.00     0.001 A 
HETATM   20  C13 LIG X 999       3.998   3.431  -2.720  1.00  0.00     0.001 A 
HETATM   21  C14 LIG X 999       3.374   2.220  -2.406  1.00  0.00     0.012 A 
HETATM   22  C16 LIG X 999       1.656   0.986  -1.192  1.00  0.00     0.032 A 
ENDBRANCH   2  13
TORSDOF 3
