REMARK  2 active torsions:
REMARK  status: ('A' for Active; 'I' for Inactive)
REMARK    1  A    between atoms: N1_1  and  C1_2 
REMARK    2  A    between atoms: C2_5  and  C3_6 
ROOT
HETATM    1  C3  LIG X 999       0.102  -0.858   0.165  1.00  0.00     0.028 A 
HETATM    2  C4  LIG X 999      -0.323  -2.136   0.569  1.00  0.00     0.017 A 
HETATM    3  C5  LIG X 999      -1.678  -2.425   0.724  1.00  0.00     0.002 A 
HETATM    4  C6  LIG X 999      -2.637  -1.446   0.478  1.00  0.00     0.012 A 
HETATM    5  C7  LIG X 999      -2.250  -0.168   0.055  1.00  0.00    -0.025 A 
HETATM    6  C8  LIG X 999      -3.228   0.804  -0.209  1.00  0.00     0.012 A 
HETATM    7  C9  LIG X 999      -2.857   2.070  -0.662  1.00  0.00     0.001 A 
HETATM    8  C10 LIG X 999      -1.512   2.373  -0.868  1.00  0.00     0.001 A 
HETATM    9  C11 LIG X 999      -0.526   1.419  -0.608  1.00  0.00     0.013 A 
HETATM   10  C12 LIG X 999      -0.872   0.139  -0.120  1.00  0.00    -0.011 A 
ENDROOT
BRANCH   1  11
HETATM   11  C2  LIG X 999       1.561  -0.603   0.097  1.00  0.00     0.178 A 
HETATM   12  N3  LIG X 999       2.479  -1.500  -0.313  1.00  0.00    -0.252 N 
HETATM   13  N2  LIG X 999       3.670  -0.935  -0.213  1.00  0.00    -0.128 NA
HETATM   14  H3  LIG X 999       2.310  -2.469  -0.663  1.00  0.00     0.191 HD
HETATM   15  C1  LIG X 999       3.428   0.300   0.267  1.00  0.00     0.263 A 
HETATM   16  O1  LIG X 999       2.148   0.514   0.463  1.00  0.00    -0.258 OA
BRANCH  15  17
HETATM   17  N1  LIG X 999       4.446   1.261   0.531  1.00  0.00    -0.362 N 
HETATM   18  H1  LIG X 999       5.448   1.030   0.354  1.00  0.00     0.159 HD
HETATM   19  H2  LIG X 999       4.193   2.203   0.902  1.00  0.00     0.159 HD
ENDBRANCH  15  17
ENDBRANCH   1  11
TORSDOF 2
