REMARK  4 active torsions:
REMARK  status: ('A' for Active; 'I' for Inactive)
REMARK    1  A    between atoms: C3_3  and  O1_4 
REMARK    2  A    between atoms: O1_4  and  C4_5 
REMARK    3  A    between atoms: C5_7  and  C6_8 
REMARK    4  A    between atoms: C11_13  and  O3_14 
ROOT
HETATM    1  C1  LIG X 999      -2.056  -4.728  -6.467  1.00  0.00     0.014 C 
HETATM    2  C2  LIG X 999      -1.483  -4.470  -5.437  1.00  0.00    -0.091 C 
HETATM    3  C3  LIG X 999      -0.789  -4.157  -4.188  1.00  0.00     0.270 C 
ENDROOT
BRANCH   3   4
HETATM    4  O1  LIG X 999      -1.350  -2.981  -3.620  1.00  0.00    -0.317 OA
BRANCH   4   5
HETATM    5  C4  LIG X 999      -0.886  -2.436  -2.421  1.00  0.00     0.217 C 
HETATM    6  O2  LIG X 999       0.149  -3.061  -1.729  1.00  0.00    -0.164 OA
HETATM    7  C5  LIG X 999      -1.472  -1.333  -1.941  1.00  0.00     0.078 C 
BRANCH   7   8
HETATM    8  C6  LIG X 999      -1.076  -0.656  -0.686  1.00  0.00    -0.031 A 
HETATM    9  C7  LIG X 999      -2.075  -0.093   0.122  1.00  0.00     0.012 A 
HETATM   10  C8  LIG X 999      -1.744   0.575   1.304  1.00  0.00     0.013 A 
HETATM   11  C9  LIG X 999      -0.403   0.707   1.688  1.00  0.00    -0.023 A 
HETATM   12  C10 LIG X 999      -0.061   1.378   2.874  1.00  0.00     0.049 A 
HETATM   13  C15 LIG X 999       0.615   0.168   0.868  1.00  0.00    -0.025 A 
HETATM   14  C11 LIG X 999       1.290   1.517   3.248  1.00  0.00     0.069 A 
HETATM   15  C13 LIG X 999       2.288   0.982   2.426  1.00  0.00     0.037 A 
HETATM   16  C14 LIG X 999       1.958   0.313   1.245  1.00  0.00     0.015 A 
HETATM   17  C16 LIG X 999       0.274  -0.502  -0.317  1.00  0.00     0.024 A 
BRANCH  14  18
HETATM   18  O3  LIG X 999       1.680   2.178   4.422  1.00  0.00    -0.356 OA
HETATM   19  C12 LIG X 999       0.778   2.770   5.351  1.00  0.00     0.210 C 
ENDBRANCH  14  18
ENDBRANCH   7   8
ENDBRANCH   4   5
ENDBRANCH   3   4
TORSDOF 4
