REMARK  3 active torsions:
REMARK  status: ('A' for Active; 'I' for Inactive)
REMARK    1  A    between atoms: C2_2  and  O1_3 
REMARK    2  A    between atoms: O1_3  and  C3_4 
REMARK       I    between atoms: C3_4  and  N1_6 
REMARK    3  A    between atoms: N1_6  and  C4_7 
ROOT
HETATM    1  C4  LIG X 999      -2.070   1.635  -0.414  1.00  0.00     0.037 A 
HETATM    2  C5  LIG X 999      -2.436   1.317  -1.730  1.00  0.00     0.030 A 
HETATM    3  C6  LIG X 999      -1.694   0.396  -2.475  1.00  0.00     0.014 A 
HETATM    4  C7  LIG X 999      -0.581  -0.235  -1.908  1.00  0.00    -0.025 A 
HETATM    5  C8  LIG X 999       0.171  -1.168  -2.649  1.00  0.00     0.021 A 
HETATM    6  C9  LIG X 999       1.269  -1.776  -2.040  1.00  0.00    -0.024 A 
HETATM    7  C10 LIG X 999       1.618  -1.495  -0.754  1.00  0.00    -0.024 A 
HETATM    8  C11 LIG X 999       0.896  -0.584   0.017  1.00  0.00     0.021 A 
HETATM    9  C12 LIG X 999      -0.214   0.061  -0.564  1.00  0.00    -0.023 A 
HETATM   10  C13 LIG X 999      -0.967   0.988   0.172  1.00  0.00     0.042 A 
HETATM   11  C14 LIG X 999       2.793  -2.297  -0.348  1.00  0.00     0.276 C 
HETATM   12  N2  LIG X 999       3.248  -3.002  -1.588  1.00  0.00    -0.067 N 
HETATM   13  C15 LIG X 999       3.444  -4.446  -1.326  1.00  0.00     0.272 C 
HETATM   14  C16 LIG X 999       4.526  -2.421  -2.063  1.00  0.00     0.272 C 
HETATM   15  C17 LIG X 999       2.177  -2.792  -2.614  1.00  0.00     0.276 C 
ENDROOT
BRANCH   1  16
HETATM   16  N1  LIG X 999      -2.869   2.573   0.329  1.00  0.00    -0.303 N 
HETATM   17  C3  LIG X 999      -2.346   3.486   1.302  1.00  0.00     0.365 C 
HETATM   18  O2  LIG X 999      -1.101   3.655   1.422  1.00  0.00    -0.238 OA
HETATM   19  H6  LIG X 999      -3.882   2.661   0.087  1.00  0.00     0.171 HD
BRANCH  17  20
HETATM   20  O1  LIG X 999      -3.236   4.223   2.089  1.00  0.00    -0.304 OA
BRANCH  20  21
HETATM   21  C2  LIG X 999      -2.800   5.162   3.067  1.00  0.00     0.176 C 
HETATM   22  C1  LIG X 999      -4.008   5.786   3.748  1.00  0.00     0.034 C 
ENDBRANCH  20  21
ENDBRANCH  17  20
ENDBRANCH   1  16
TORSDOF 3
