REMARK  3 active torsions:
REMARK  status: ('A' for Active; 'I' for Inactive)
REMARK    1  A    between atoms: C3_3  and  O1_4 
REMARK    2  A    between atoms: O1_4  and  C4_5 
REMARK    3  A    between atoms: C5_7  and  C6_8 
ROOT
HETATM    1  C1  LIG X 999       1.046   2.832  -4.574  1.00  0.00     0.014 C 
HETATM    2  C2  LIG X 999       1.311   1.673  -4.377  1.00  0.00    -0.091 C 
HETATM    3  C3  LIG X 999       1.633   0.265  -4.138  1.00  0.00     0.270 C 
ENDROOT
BRANCH   3   4
HETATM    4  O1  LIG X 999       1.227  -0.089  -2.822  1.00  0.00    -0.317 OA
BRANCH   4   5
HETATM    5  C4  LIG X 999       1.395  -1.378  -2.308  1.00  0.00     0.217 C 
HETATM    6  O2  LIG X 999       2.004  -2.361  -3.083  1.00  0.00    -0.164 OA
HETATM    7  C5  LIG X 999       1.006  -1.679  -1.064  1.00  0.00     0.078 C 
BRANCH   7   8
HETATM    8  C6  LIG X 999       0.347  -0.726  -0.143  1.00  0.00    -0.031 A 
HETATM    9  C7  LIG X 999      -0.624   0.189  -0.590  1.00  0.00     0.012 A 
HETATM   10  C8  LIG X 999      -1.245   1.061   0.307  1.00  0.00     0.013 A 
HETATM   11  C9  LIG X 999      -0.919   1.023   1.670  1.00  0.00    -0.026 A 
HETATM   12  C10 LIG X 999      -1.537   1.895   2.579  1.00  0.00     0.012 A 
HETATM   13  C14 LIG X 999       0.038   0.088   2.134  1.00  0.00    -0.025 A 
HETATM   14  C11 LIG X 999      -1.208   1.841   3.937  1.00  0.00     0.001 A 
HETATM   15  C12 LIG X 999      -0.264   0.919   4.396  1.00  0.00     0.001 A 
HETATM   16  C13 LIG X 999       0.358   0.044   3.500  1.00  0.00     0.012 A 
HETATM   17  C15 LIG X 999       0.656  -0.784   1.225  1.00  0.00     0.024 A 
ENDBRANCH   7   8
ENDBRANCH   4   5
ENDBRANCH   3   4
TORSDOF 3
