REMARK  5 active torsions:
REMARK  status: ('A' for Active; 'I' for Inactive)
REMARK    1  A    between atoms: C3_3  and  N1_4 
REMARK    2  A    between atoms: N1_4  and  C6_7 
REMARK    3  A    between atoms: C6_7  and  C7_8 
REMARK    4  A    between atoms: C9_10  and  C10_11 
REMARK    5  A    between atoms: C11_14  and  N4_15 
ROOT
HETATM    1  C1  LIG X 999       3.019  -4.206  -0.859  1.00  0.00     0.013 C 
HETATM    2  C2  LIG X 999       1.862  -3.949  -0.641  1.00  0.00    -0.089 C 
HETATM    3  C3  LIG X 999       0.443  -3.634  -0.374  1.00  0.00     0.329 C 
ENDROOT
BRANCH   3   4
HETATM    4  N1  LIG X 999       0.108  -2.186  -0.544  1.00  0.00    -0.061 N 
HETATM    5  C4  LIG X 999       0.391  -1.766  -1.942  1.00  0.00     0.273 C 
HETATM    6  C5  LIG X 999      -1.347  -2.036  -0.290  1.00  0.00     0.273 C 
BRANCH   4   7
HETATM    7  C6  LIG X 999       0.894  -1.370   0.437  1.00  0.00     0.275 C 
BRANCH   7   8
HETATM    8  C7  LIG X 999       0.585   0.115   0.410  1.00  0.00    -0.035 C 
HETATM    9  C8  LIG X 999       1.273   0.945  -0.397  1.00  0.00     0.001 C 
HETATM   10  C9  LIG X 999       1.050   2.449  -0.343  1.00  0.00     0.054 C 
HETATM   11  C12 LIG X 999       1.489   3.121  -1.669  1.00  0.00     0.023 C 
HETATM   12  C16 LIG X 999      -0.462   2.739  -0.051  1.00  0.00     0.028 C 
HETATM   13  C13 LIG X 999       0.568   2.770  -2.842  1.00  0.00     0.002 C 
HETATM   14  C14 LIG X 999      -0.877   3.155  -2.525  1.00  0.00     0.001 C 
HETATM   15  C15 LIG X 999      -1.363   2.432  -1.268  1.00  0.00     0.010 C 
HETATM   16  C17 LIG X 999      -0.933   1.907   1.120  1.00  0.00    -0.020 C 
HETATM   17  C18 LIG X 999      -0.469   0.665   1.298  1.00  0.00     0.005 C 
BRANCH  10  18
HETATM   18  C10 LIG X 999       1.922   3.006   0.764  1.00  0.00     0.184 A 
HETATM   19  N2  LIG X 999       3.224   2.690   0.935  1.00  0.00    -0.124 NA
HETATM   20  N3  LIG X 999       3.649   3.386   1.978  1.00  0.00    -0.099 NA
HETATM   21  C11 LIG X 999       2.591   4.101   2.397  1.00  0.00     0.326 A 
HETATM   22  O1  LIG X 999       1.529   3.881   1.661  1.00  0.00    -0.255 OA
BRANCH  21  23
HETATM   23  N4  LIG X 999       2.631   4.991   3.510  1.00  0.00    -0.023 NA
HETATM   24  N5  LIG X 999       1.631   5.626   3.844  1.00  0.00    -0.158 NA
HETATM   25  N6  LIG X 999       0.632   6.262   4.178  1.00  0.00     0.068 N 
ENDBRANCH  21  23
ENDBRANCH  10  18
ENDBRANCH   7   8
ENDBRANCH   4   7
ENDBRANCH   3   4
TORSDOF 5
