REMARK  11 active torsions:
REMARK  status: ('A' for Active; 'I' for Inactive)
REMARK    1  A    between atoms: C6_7  and  S1_8 
REMARK    2  A    between atoms: S1_8  and  C7_9 
REMARK    3  A    between atoms: C7_9  and  C8_10 
REMARK    4  A    between atoms: C7_9  and  C11_13 
REMARK    5  A    between atoms: C8_10  and  C9_11 
REMARK    6  A    between atoms: C11_13  and  C12_14 
REMARK    7  A    between atoms: C14_16  and  O1_17 
REMARK    8  A    between atoms: O1_17  and  C15_18 
REMARK    9  A    between atoms: C15_18  and  C16_19 
REMARK   10  A    between atoms: C16_19  and  C17_20 
REMARK   11  A    between atoms: C17_20  and  N1_21 
ROOT
HETATM    1  N1  LIG X 999      -0.434   5.404  -2.198  1.00  0.00    -0.116 NA
HETATM    2  N2  LIG X 999      -1.262   6.055  -1.560  1.00  0.00    -0.168 NA
HETATM    3  N3  LIG X 999      -2.089   6.705  -0.922  1.00  0.00     0.068 N 
ENDROOT
BRANCH   1   4
HETATM    4  C17 LIG X 999      -0.442   3.947  -2.172  1.00  0.00     0.191 C 
BRANCH   4   5
HETATM    5  C16 LIG X 999      -1.712   3.400  -2.835  1.00  0.00     0.051 C 
BRANCH   5   6
HETATM    6  C15 LIG X 999      -1.682   1.876  -2.952  1.00  0.00     0.177 C 
BRANCH   6   7
HETATM    7  O1  LIG X 999      -1.598   1.290  -1.655  1.00  0.00    -0.350 OA
BRANCH   7   8
HETATM    8  C14 LIG X 999      -1.526  -0.090  -1.401  1.00  0.00     0.088 A 
HETATM    9  C6  LIG X 999      -1.333  -0.522  -0.079  1.00  0.00     0.057 A 
HETATM   10  C5  LIG X 999      -1.343  -1.899   0.230  1.00  0.00     0.064 A 
HETATM   11  C4  LIG X 999      -1.474  -2.851  -0.807  1.00  0.00    -0.003 A 
HETATM   12 CL1  LIG X 999      -1.199  -2.412   1.917  1.00  0.00    -0.082 Cl
HETATM   13  C3  LIG X 999      -1.459  -4.238  -0.549  1.00  0.00     0.014 A 
HETATM   14  C19 LIG X 999      -1.622  -2.407  -2.145  1.00  0.00    -0.021 A 
HETATM   15  C2  LIG X 999      -1.586  -5.156  -1.594  1.00  0.00     0.001 A 
HETATM   16  C1  LIG X 999      -1.729  -4.710  -2.908  1.00  0.00     0.001 A 
HETATM   17  C20 LIG X 999      -1.749  -3.343  -3.185  1.00  0.00     0.012 A 
HETATM   18  C18 LIG X 999      -1.654  -1.037  -2.429  1.00  0.00     0.050 A 
BRANCH   9  19
HETATM   19  S1  LIG X 999      -1.093   0.716   1.218  1.00  0.00    -0.121 SA
BRANCH  19  20
HETATM   20  C7  LIG X 999       0.741   0.565   1.286  1.00  0.00     0.052 C 
BRANCH  20  21
HETATM   21  C8  LIG X 999       1.387   1.384   0.145  1.00  0.00     0.015 C 
BRANCH  21  22
HETATM   22  C9  LIG X 999       2.792   0.887  -0.242  1.00  0.00    -0.003 C 
HETATM   23  C10 LIG X 999       2.744  -0.365  -1.121  1.00  0.00     0.005 C 
ENDBRANCH  21  22
ENDBRANCH  20  21
BRANCH  20  24
HETATM   24  C11 LIG X 999       1.243   1.060   2.663  1.00  0.00     0.015 C 
BRANCH  24  25
HETATM   25  C12 LIG X 999       0.886   0.117   3.826  1.00  0.00    -0.003 C 
HETATM   26  C13 LIG X 999       1.777  -1.125   3.871  1.00  0.00     0.005 C 
ENDBRANCH  24  25
ENDBRANCH  20  24
ENDBRANCH  19  20
ENDBRANCH   9  19
ENDBRANCH   7   8
ENDBRANCH   6   7
ENDBRANCH   5   6
ENDBRANCH   4   5
ENDBRANCH   1   4
TORSDOF 11
