REMARK  3 active torsions:
REMARK  status: ('A' for Active; 'I' for Inactive)
REMARK    1  A    between atoms: C7_9  and  C8_10 
REMARK    2  A    between atoms: C9_13  and  N4_14 
REMARK    3  A    between atoms: N7_23  and  C14_24 
ROOT
HETATM    1  N4  LIG X 999      -3.255  -4.270   1.835  1.00  0.00    -0.023 NA
HETATM    2  N5  LIG X 999      -3.227  -3.676   2.913  1.00  0.00    -0.158 NA
HETATM    3  N6  LIG X 999      -3.199  -3.083   3.990  1.00  0.00     0.068 N 
ENDROOT
BRANCH   1   4
HETATM    4  C9  LIG X 999      -2.530  -3.775   0.711  1.00  0.00     0.326 A 
HETATM    5  N3  LIG X 999      -2.526  -4.370  -0.493  1.00  0.00    -0.099 NA
HETATM    6  N2  LIG X 999      -1.751  -3.622  -1.263  1.00  0.00    -0.119 NA
HETATM    7  C8  LIG X 999      -1.321  -2.598  -0.497  1.00  0.00     0.205 A 
HETATM    8  O1  LIG X 999      -1.792  -2.692   0.724  1.00  0.00    -0.252 OA
BRANCH   7   9
HETATM    9  C7  LIG X 999      -0.395  -1.548  -0.967  1.00  0.00     0.032 A 
HETATM   10  C6  LIG X 999      -0.441  -0.199  -0.495  1.00  0.00     0.020 A 
HETATM   11  C1  LIG X 999      -1.484   0.465   0.355  1.00  0.00     0.060 A 
HETATM   12  C5  LIG X 999       0.569   0.639  -0.931  1.00  0.00     0.019 A 
HETATM   13  N1  LIG X 999      -2.574  -0.148   0.688  1.00  0.00    -0.299 NA
HETATM   14  C2  LIG X 999      -1.296   1.909   0.733  1.00  0.00     0.034 A 
HETATM   15  H1  LIG X 999      -3.322   0.315   1.249  1.00  0.00     0.187 HD
HETATM   16  C3  LIG X 999      -0.253   2.625   0.267  1.00  0.00     0.033 A 
HETATM   17  C4  LIG X 999       0.716   1.953  -0.615  1.00  0.00     0.048 A 
HETATM   18  N7  LIG X 999       1.796   2.459  -1.261  1.00  0.00    -0.324 N 
HETATM   19  C13 LIG X 999       2.300   1.432  -2.000  1.00  0.00     0.193 A 
HETATM   20  C12 LIG X 999       1.550   0.285  -1.799  1.00  0.00     0.032 A 
HETATM   21  O2  LIG X 999       3.399   1.540  -2.845  1.00  0.00    -0.171 OA
HETATM   22  C11 LIG X 999       1.608  -1.001  -2.321  1.00  0.00     0.018 A 
HETATM   23  C10 LIG X 999       0.626  -1.923  -1.894  1.00  0.00     0.018 A 
BRANCH  18  24
HETATM   24  C14 LIG X 999       2.258   3.846  -1.262  1.00  0.00     0.127 C 
HETATM   25  C15 LIG X 999       1.494   4.657  -2.302  1.00  0.00     0.027 C 
ENDBRANCH  18  24
ENDBRANCH   7   9
ENDBRANCH   1   4
TORSDOF 3
