REMARK  2 active torsions:
REMARK  status: ('A' for Active; 'I' for Inactive)
REMARK       I    between atoms: N1_1  and  C1_2 
REMARK    1  A    between atoms: C1_2  and  C2_4 
REMARK    2  A    between atoms: C11_13  and  O2_14 
ROOT
HETATM    1  C2  LIG X 999       0.386  -0.695  -0.204  1.00  0.00     0.118 C 
HETATM    2  C3  LIG X 999       1.123   0.656  -0.368  1.00  0.00     0.017 C 
HETATM    3  C4  LIG X 999       0.330   1.633  -1.249  1.00  0.00     0.002 C 
HETATM    4  C5  LIG X 999      -1.097   1.841  -0.723  1.00  0.00     0.012 C 
HETATM    5  C6  LIG X 999      -1.815   0.488  -0.592  1.00  0.00     0.047 C 
HETATM    6  C7  LIG X 999      -3.248   0.636  -0.137  1.00  0.00    -0.019 C 
HETATM    7  C8  LIG X 999      -3.902  -0.438   0.322  1.00  0.00    -0.004 C 
HETATM    8  C9  LIG X 999      -3.191  -1.723   0.497  1.00  0.00    -0.001 C 
HETATM    9  C10 LIG X 999      -1.851  -1.767   0.452  1.00  0.00     0.012 C 
HETATM   10  C11 LIG X 999      -1.049  -0.472   0.364  1.00  0.00     0.095 C 
ENDROOT
BRANCH   1  11
HETATM   11  C1  LIG X 999       1.210  -1.642   0.636  1.00  0.00     0.243 C 
HETATM   12  N1  LIG X 999       1.416  -2.982   0.196  1.00  0.00    -0.267 NA
HETATM   13  H1  LIG X 999       1.977  -3.654   0.766  1.00  0.00     0.190 HD
HETATM   14  O1  LIG X 999       1.709  -1.264   1.730  1.00  0.00    -0.271 OA
ENDBRANCH   1  11
BRANCH  10  15
HETATM   15  O2  LIG X 999      -0.983   0.127   1.641  1.00  0.00    -0.384 OA
HETATM   16  H14 LIG X 999      -0.705  -0.564   2.298  1.00  0.00     0.211 HD
ENDBRANCH  10  15
TORSDOF 2
