REMARK  1 active torsions:
REMARK  status: ('A' for Active; 'I' for Inactive)
REMARK    1  A    between atoms: C3_3  and  N1_4 
ROOT
HETATM    1  N1  LIG X 999      -1.544   2.931  -1.755  1.00  0.00    -0.072 NA
HETATM    2  N2  LIG X 999      -1.765   4.075  -2.155  1.00  0.00    -0.162 NA
HETATM    3  N3  LIG X 999      -1.987   5.217  -2.556  1.00  0.00     0.068 N 
ENDROOT
BRANCH   1   4
HETATM    4  C3  LIG X 999      -0.330   2.572  -1.074  1.00  0.00     0.104 A 
HETATM    5  C2  LIG X 999       0.674   3.530  -0.834  1.00  0.00     0.035 A 
HETATM    6  C1  LIG X 999       1.852   3.179  -0.172  1.00  0.00     0.003 A 
HETATM    7  C10 LIG X 999       2.054   1.869   0.263  1.00  0.00     0.012 A 
HETATM    8  C9  LIG X 999       1.075   0.893   0.038  1.00  0.00    -0.023 A 
HETATM    9  C4  LIG X 999      -0.134   1.242  -0.638  1.00  0.00     0.006 A 
HETATM   10  C8  LIG X 999       1.279  -0.429   0.479  1.00  0.00     0.021 A 
HETATM   11  C5  LIG X 999      -1.114   0.246  -0.855  1.00  0.00     0.024 A 
HETATM   12  C6  LIG X 999      -0.867  -1.052  -0.407  1.00  0.00    -0.023 A 
HETATM   13  C7  LIG X 999       0.287  -1.377   0.236  1.00  0.00    -0.024 A 
HETATM   14  C14 LIG X 999      -1.755  -2.230  -0.508  1.00  0.00     0.276 C 
HETATM   15  C11 LIG X 999       0.280  -2.804   0.626  1.00  0.00     0.276 C 
HETATM   16  N4  LIG X 999      -0.954  -3.385   0.008  1.00  0.00    -0.067 N 
HETATM   17  C12 LIG X 999      -0.584  -4.286  -1.110  1.00  0.00     0.272 C 
HETATM   18  C13 LIG X 999      -1.728  -4.153   1.009  1.00  0.00     0.272 C 
ENDBRANCH   1   4
TORSDOF 1
