REMARK  3 active torsions:
REMARK  status: ('A' for Active; 'I' for Inactive)
REMARK    1  A    between atoms: C3_3  and  O1_4 
REMARK    2  A    between atoms: O1_4  and  C4_5 
REMARK    3  A    between atoms: C5_7  and  C6_8 
ROOT
HETATM    1  C1  LIG X 999      -5.438  -3.245   0.404  1.00  0.00     0.014 C 
HETATM    2  C2  LIG X 999      -4.675  -2.514  -0.176  1.00  0.00    -0.091 C 
HETATM    3  C3  LIG X 999      -3.748  -1.627  -0.880  1.00  0.00     0.270 C 
ENDROOT
BRANCH   3   4
HETATM    4  O1  LIG X 999      -2.425  -1.870  -0.420  1.00  0.00    -0.317 OA
BRANCH   4   5
HETATM    5  C4  LIG X 999      -1.324  -1.166  -0.913  1.00  0.00     0.217 C 
HETATM    6  O2  LIG X 999      -1.496  -0.197  -1.899  1.00  0.00    -0.164 OA
HETATM    7  C5  LIG X 999      -0.107  -1.444  -0.438  1.00  0.00     0.079 C 
BRANCH   7   8
HETATM    8  C6  LIG X 999       1.115  -0.774  -0.933  1.00  0.00    -0.020 A 
HETATM    9  C7  LIG X 999       2.088  -1.574  -1.550  1.00  0.00     0.012 A 
HETATM   10  C8  LIG X 999       3.251  -1.008  -2.072  1.00  0.00     0.002 A 
HETATM   11  C9  LIG X 999       3.469   0.365  -1.976  1.00  0.00     0.012 A 
HETATM   12  C10 LIG X 999       2.530   1.187  -1.335  1.00  0.00    -0.025 A 
HETATM   13  C11 LIG X 999       2.769   2.565  -1.216  1.00  0.00     0.012 A 
HETATM   14  C15 LIG X 999       1.344   0.621  -0.793  1.00  0.00    -0.015 A 
HETATM   15  C12 LIG X 999       1.855   3.382  -0.551  1.00  0.00     0.001 A 
HETATM   16  C13 LIG X 999       0.701   2.833   0.008  1.00  0.00     0.001 A 
HETATM   17  C14 LIG X 999       0.446   1.464  -0.103  1.00  0.00     0.013 A 
ENDBRANCH   7   8
ENDBRANCH   4   5
ENDBRANCH   3   4
TORSDOF 3
