REMARK  3 active torsions:
REMARK  status: ('A' for Active; 'I' for Inactive)
REMARK    1  A    between atoms: C3_3  and  O1_4 
REMARK    2  A    between atoms: O1_4  and  C4_5 
REMARK    3  A    between atoms: C5_6  and  C6_7 
ROOT
HETATM    1  C1  LIG X 999       2.390   4.608   3.078  1.00  0.00     0.014 C 
HETATM    2  C2  LIG X 999       2.110   3.492   2.720  1.00  0.00    -0.091 C 
HETATM    3  C3  LIG X 999       1.770   2.137   2.284  1.00  0.00     0.268 C 
ENDROOT
BRANCH   3   4
HETATM    4  O1  LIG X 999       0.559   2.174   1.539  1.00  0.00    -0.338 OA
BRANCH   4   5
HETATM    5  C4  LIG X 999       0.004   1.010   0.998  1.00  0.00     0.094 A 
HETATM    6  C5  LIG X 999      -0.920   0.255   1.752  1.00  0.00     0.036 A 
HETATM    7  C7  LIG X 999      -1.456  -0.924   1.206  1.00  0.00     0.018 A 
HETATM    8  C8  LIG X 999      -1.093  -1.347  -0.072  1.00  0.00     0.013 A 
HETATM    9  C9  LIG X 999      -0.190  -0.597  -0.835  1.00  0.00    -0.023 A 
HETATM   10  C10 LIG X 999       0.168  -1.018  -2.126  1.00  0.00     0.012 A 
HETATM   11  C14 LIG X 999       0.362   0.595  -0.303  1.00  0.00     0.009 A 
HETATM   12  C11 LIG X 999       1.062  -0.264  -2.888  1.00  0.00     0.001 A 
HETATM   13  C12 LIG X 999       1.605   0.914  -2.371  1.00  0.00     0.001 A 
HETATM   14  C13 LIG X 999       1.259   1.345  -1.088  1.00  0.00     0.015 A 
BRANCH   6  15
HETATM   15  C6  LIG X 999      -1.328   0.701   3.101  1.00  0.00     0.272 C 
HETATM   16  O2  LIG X 999      -2.129   0.021   3.796  1.00  0.00    -0.301 OA
ENDBRANCH   6  15
ENDBRANCH   4   5
ENDBRANCH   3   4
TORSDOF 3
