REMARK  5 active torsions:
REMARK  status: ('A' for Active; 'I' for Inactive)
REMARK    1  A    between atoms: C6_6  and  C7_7 
REMARK    2  A    between atoms: C7_7  and  N1_8 
REMARK    3  A    between atoms: N4_11  and  C8_12 
REMARK    4  A    between atoms: C8_12  and  C9_13 
REMARK    5  A    between atoms: C9_13  and  N5_14 
ROOT
HETATM    1  N1  LIG X 999      -1.907   1.187  -2.783  1.00  0.00    -0.052 NA
HETATM    2  N2  LIG X 999      -2.571   0.906  -3.781  1.00  0.00    -0.160 NA
HETATM    3  N3  LIG X 999      -3.233   0.640  -4.784  1.00  0.00     0.068 N 
ENDROOT
BRANCH   1   4
HETATM    4  C7  LIG X 999      -1.561   0.261  -1.732  1.00  0.00     0.191 C 
HETATM    5  N4  LIG X 999      -1.905  -1.001  -1.747  1.00  0.00    -0.267 NA
BRANCH   4   6
HETATM    6  C6  LIG X 999      -0.770   0.768  -0.577  1.00  0.00     0.015 A 
HETATM    7  C5  LIG X 999      -0.388  -0.093   0.472  1.00  0.00     0.027 A 
HETATM    8  C4  LIG X 999       0.357   0.388   1.560  1.00  0.00    -0.025 A 
HETATM    9  C3  LIG X 999       0.737  -0.472   2.603  1.00  0.00     0.012 A 
HETATM   10  C12 LIG X 999       0.731   1.751   1.607  1.00  0.00    -0.026 A 
HETATM   11  C2  LIG X 999       1.479   0.018   3.681  1.00  0.00     0.001 A 
HETATM   12  C1  LIG X 999       1.848   1.365   3.727  1.00  0.00     0.001 A 
HETATM   13  C13 LIG X 999       1.476   2.231   2.695  1.00  0.00     0.012 A 
HETATM   14  C11 LIG X 999       0.352   2.608   0.566  1.00  0.00     0.013 A 
HETATM   15  C10 LIG X 999      -0.390   2.123  -0.513  1.00  0.00     0.016 A 
ENDBRANCH   4   6
BRANCH   5  16
HETATM   16  C8  LIG X 999      -2.665  -1.728  -2.758  1.00  0.00     0.181 C 
BRANCH  16  17
HETATM   17  C9  LIG X 999      -2.815  -3.189  -2.339  1.00  0.00     0.288 C 
BRANCH  17  18
HETATM   18  N5  LIG X 999      -1.507  -3.830  -2.233  1.00  0.00     0.079 N 
HETATM   19  H9  LIG X 999      -1.657  -4.800  -1.874  1.00  0.00     0.312 HD
HETATM   20  H10 LIG X 999      -1.112  -3.929  -3.197  1.00  0.00     0.312 HD
ENDBRANCH  17  18
ENDBRANCH  16  17
ENDBRANCH   5  16
ENDBRANCH   1   4
TORSDOF 5
