REMARK  3 active torsions:
REMARK  status: ('A' for Active; 'I' for Inactive)
REMARK    1  A    between atoms: C7_9  and  C8_10 
REMARK    2  A    between atoms: C9_13  and  N4_14 
REMARK    3  A    between atoms: N7_23  and  C14_24 
ROOT
HETATM    1  N4  LIG X 999      -3.300   2.437   3.887  1.00  0.00    -0.023 NA
HETATM    2  N5  LIG X 999      -4.274   1.886   3.376  1.00  0.00    -0.158 NA
HETATM    3  N6  LIG X 999      -5.248   1.335   2.865  1.00  0.00     0.068 N 
ENDROOT
BRANCH   1   4
HETATM    4  C9  LIG X 999      -1.992   2.250   3.349  1.00  0.00     0.326 A 
HETATM    5  N3  LIG X 999      -0.890   2.829   3.856  1.00  0.00    -0.099 NA
HETATM    6  N2  LIG X 999       0.114   2.420   3.095  1.00  0.00    -0.119 NA
HETATM    7  C8  LIG X 999      -0.420   1.615   2.153  1.00  0.00     0.205 A 
HETATM    8  O1  LIG X 999      -1.718   1.500   2.311  1.00  0.00    -0.252 OA
BRANCH   7   9
HETATM    9  C7  LIG X 999       0.371   0.914   1.121  1.00  0.00     0.032 A 
HETATM   10  C6  LIG X 999      -0.128   0.639  -0.190  1.00  0.00     0.020 A 
HETATM   11  C1  LIG X 999      -1.382   1.139  -0.845  1.00  0.00     0.060 A 
HETATM   12  C5  LIG X 999       0.679  -0.136  -1.004  1.00  0.00     0.019 A 
HETATM   13  N1  LIG X 999      -2.142   2.012  -0.266  1.00  0.00    -0.299 NA
HETATM   14  C2  LIG X 999      -1.696   0.689  -2.245  1.00  0.00     0.034 A 
HETATM   15  H1  LIG X 999      -2.999   2.394  -0.726  1.00  0.00     0.187 HD
HETATM   16  C3  LIG X 999      -0.842  -0.092  -2.937  1.00  0.00     0.033 A 
HETATM   17  C4  LIG X 999       0.408  -0.511  -2.282  1.00  0.00     0.048 A 
HETATM   18  N7  LIG X 999       1.448  -1.228  -2.776  1.00  0.00    -0.324 N 
HETATM   19  C13 LIG X 999       2.377  -1.268  -1.781  1.00  0.00     0.193 A 
HETATM   20  C12 LIG X 999       1.909  -0.597  -0.664  1.00  0.00     0.032 A 
HETATM   21  O2  LIG X 999       3.620  -1.881  -1.893  1.00  0.00    -0.171 OA
HETATM   22  C11 LIG X 999       2.455  -0.315   0.583  1.00  0.00     0.018 A 
HETATM   23  C10 LIG X 999       1.672   0.445   1.480  1.00  0.00     0.018 A 
BRANCH  18  24
HETATM   24  C14 LIG X 999       1.598  -1.750  -4.134  1.00  0.00     0.127 C 
HETATM   25  C15 LIG X 999       2.150  -0.671  -5.057  1.00  0.00     0.027 C 
ENDBRANCH  18  24
ENDBRANCH   7   9
ENDBRANCH   1   4
TORSDOF 3
