REMARK  3 active torsions:
REMARK  status: ('A' for Active; 'I' for Inactive)
REMARK    1  A    between atoms: C2_2  and  N1_3 
REMARK    2  A    between atoms: C3_6  and  O1_7 
REMARK    3  A    between atoms: O1_7  and  C4_8 
REMARK       I    between atoms: C4_8  and  N4_10 
ROOT
HETATM    1  N1  LIG X 999       1.437   3.796   0.232  1.00  0.00    -0.070 NA
HETATM    2  N2  LIG X 999       1.508   4.279   1.363  1.00  0.00    -0.162 NA
HETATM    3  N3  LIG X 999       1.585   4.768   2.489  1.00  0.00     0.068 N 
ENDROOT
BRANCH   1   4
HETATM    4  C2  LIG X 999       0.957   2.469  -0.037  1.00  0.00     0.128 A 
HETATM    5  C1  LIG X 999       1.074   1.996  -1.351  1.00  0.00     0.049 A 
HETATM    6  C13 LIG X 999       0.642   0.710  -1.695  1.00  0.00    -0.023 A 
HETATM    7  C8  LIG X 999       0.067  -0.126  -0.701  1.00  0.00    -0.022 A 
HETATM    8  C12 LIG X 999       0.766   0.242  -3.018  1.00  0.00     0.021 A 
HETATM    9  C7  LIG X 999      -0.059   0.347   0.611  1.00  0.00     0.052 A 
HETATM   10  C9  LIG X 999      -0.381  -1.417  -1.044  1.00  0.00     0.021 A 
HETATM   11  C3  LIG X 999       0.390   1.636   0.959  1.00  0.00     0.113 A 
HETATM   12  C10 LIG X 999      -0.234  -1.846  -2.364  1.00  0.00    -0.024 A 
HETATM   13  C11 LIG X 999       0.320  -1.046  -3.316  1.00  0.00    -0.024 A 
HETATM   14  C17 LIG X 999      -0.648  -3.140  -2.948  1.00  0.00     0.276 C 
HETATM   15  C14 LIG X 999       0.328  -1.729  -4.627  1.00  0.00     0.276 C 
HETATM   16  N5  LIG X 999      -0.140  -3.126  -4.357  1.00  0.00    -0.067 N 
HETATM   17  C15 LIG X 999      -1.213  -3.510  -5.303  1.00  0.00     0.272 C 
HETATM   18  C16 LIG X 999       0.989  -4.076  -4.499  1.00  0.00     0.272 C 
BRANCH  11  19
HETATM   19  O1  LIG X 999       0.228   2.116   2.268  1.00  0.00    -0.259 OA
BRANCH  19  20
HETATM   20  C4  LIG X 999       0.296   1.327   3.426  1.00  0.00     0.367 C 
HETATM   21  O2  LIG X 999       0.881   0.209   3.399  1.00  0.00    -0.238 OA
HETATM   22  N4  LIG X 999      -0.262   1.816   4.658  1.00  0.00    -0.336 N 
HETATM   23  C5  LIG X 999      -0.134   1.020   5.882  1.00  0.00     0.154 C 
HETATM   24  C6  LIG X 999      -0.976   3.094   4.666  1.00  0.00     0.154 C 
ENDBRANCH  19  20
ENDBRANCH  11  19
ENDBRANCH   1   4
TORSDOF 3
