REMARK  7 active torsions:
REMARK  status: ('A' for Active; 'I' for Inactive)
REMARK    1  A    between atoms: O1_2  and  C1_3 
REMARK    2  A    between atoms: C1_3  and  C16_23 
REMARK       I    between atoms: N1_4  and  C2_5 
REMARK       I    between atoms: C2_5  and  N2_7 
REMARK    3  A    between atoms: N2_7  and  C3_9 
REMARK    4  A    between atoms: C3_9  and  C4_10 
REMARK    5  A    between atoms: C4_10  and  C5_11 
REMARK    6  A    between atoms: C5_11  and  O3_12 
REMARK    7  A    between atoms: O3_12  and  C6_13 
ROOT
HETATM    1  C1  LIG X 999       4.814   0.099  -0.285  1.00  0.00     0.177 C 
HETATM    2  N1  LIG X 999       4.079  -0.368   0.685  1.00  0.00    -0.169 NA
HETATM    3  C2  LIG X 999       2.651  -0.307   0.777  1.00  0.00     0.344 C 
HETATM    4  O2  LIG X 999       2.029  -1.289   1.264  1.00  0.00    -0.245 OA
HETATM    5  N2  LIG X 999       1.941   0.888   0.417  1.00  0.00    -0.341 N 
HETATM    6  H2  LIG X 999       2.482   1.765   0.245  1.00  0.00     0.164 HD
ENDROOT
BRANCH   5   7
HETATM    7  C3  LIG X 999       0.482   0.952   0.376  1.00  0.00     0.126 C 
BRANCH   7   8
HETATM    8  C4  LIG X 999      -0.051   0.195  -0.845  1.00  0.00     0.046 C 
BRANCH   8   9
HETATM    9  C5  LIG X 999      -1.573   0.284  -0.946  1.00  0.00     0.177 C 
BRANCH   9  10
HETATM   10  O3  LIG X 999      -2.174  -0.373   0.168  1.00  0.00    -0.351 OA
BRANCH  10  11
HETATM   11  C6  LIG X 999      -3.557  -0.474   0.382  1.00  0.00     0.069 A 
HETATM   12  C7  LIG X 999      -4.002  -1.143   1.528  1.00  0.00     0.037 A 
HETATM   13  C8  LIG X 999      -5.367  -1.274   1.793  1.00  0.00     0.015 A 
HETATM   14  C9  LIG X 999      -6.311  -0.734   0.909  1.00  0.00    -0.026 A 
HETATM   15  C10 LIG X 999      -7.686  -0.860   1.165  1.00  0.00     0.012 A 
HETATM   16  C14 LIG X 999      -5.874  -0.055  -0.254  1.00  0.00    -0.023 A 
HETATM   17  C11 LIG X 999      -8.618  -0.317   0.276  1.00  0.00     0.001 A 
HETATM   18  C12 LIG X 999      -8.187   0.353  -0.872  1.00  0.00     0.001 A 
HETATM   19  C13 LIG X 999      -6.821   0.485  -1.139  1.00  0.00     0.012 A 
HETATM   20  C15 LIG X 999      -4.500   0.071  -0.511  1.00  0.00     0.049 A 
ENDBRANCH  10  11
ENDBRANCH   9  10
ENDBRANCH   8   9
ENDBRANCH   7   8
ENDBRANCH   5   7
BRANCH   1  21
HETATM   21  O1  LIG X 999       4.241   0.599  -1.460  1.00  0.00    -0.344 OA
HETATM   22  H1  LIG X 999       3.262   0.493  -1.689  1.00  0.00     0.219 HD
ENDBRANCH   1  21
BRANCH   1  23
HETATM   23  C16 LIG X 999       6.292   0.064  -0.168  1.00  0.00     0.017 A 
HETATM   24  C17 LIG X 999       7.097   0.544  -1.219  1.00  0.00     0.017 A 
HETATM   25  C18 LIG X 999       8.491   0.517  -1.115  1.00  0.00     0.025 A 
HETATM   26  C19 LIG X 999       9.100   0.011   0.036  1.00  0.00     0.034 A 
HETATM   27 CL1  LIG X 999      10.849  -0.022   0.163  1.00  0.00    -0.084 Cl
HETATM   28  C20 LIG X 999       8.313  -0.468   1.087  1.00  0.00     0.025 A 
HETATM   29  C21 LIG X 999       6.918  -0.443   0.988  1.00  0.00     0.017 A 
ENDBRANCH   1  23
TORSDOF 7
