REMARK  5 active torsions:
REMARK  status: ('A' for Active; 'I' for Inactive)
REMARK    1  A    between atoms: C3_3  and  O1_4 
REMARK    2  A    between atoms: O1_4  and  C4_5 
REMARK    3  A    between atoms: C4_5  and  C5_7 
REMARK    4  A    between atoms: C5_7  and  C6_8 
REMARK    5  A    between atoms: C11_13  and  O3_14 
ROOT
HETATM    1  C1  LIG X 999       4.743   5.018   1.250  1.00  0.00     0.014 C 
HETATM    2  C2  LIG X 999       4.131   3.991   1.407  1.00  0.00    -0.091 C 
HETATM    3  C3  LIG X 999       3.386   2.742   1.597  1.00  0.00     0.271 C 
ENDROOT
BRANCH   3   4
HETATM    4  O1  LIG X 999       2.827   2.306   0.360  1.00  0.00    -0.309 OA
BRANCH   4   5
HETATM    5  C4  LIG X 999       1.748   2.944  -0.263  1.00  0.00     0.263 C 
HETATM    6  O2  LIG X 999       1.191   3.941   0.273  1.00  0.00    -0.265 OA
BRANCH   5   7
HETATM    7  C5  LIG X 999       1.220   2.402  -1.552  1.00  0.00     0.149 C 
BRANCH   7   8
HETATM    8  C6  LIG X 999       0.236   1.298  -1.280  1.00  0.00    -0.048 A 
HETATM    9  C7  LIG X 999      -1.128   1.591  -1.123  1.00  0.00     0.008 A 
HETATM   10  C8  LIG X 999      -2.043   0.575  -0.837  1.00  0.00     0.013 A 
HETATM   11  C9  LIG X 999      -1.605  -0.750  -0.692  1.00  0.00    -0.023 A 
HETATM   12  C10 LIG X 999      -2.517  -1.777  -0.403  1.00  0.00     0.049 A 
HETATM   13  C15 LIG X 999      -0.230  -1.051  -0.835  1.00  0.00    -0.025 A 
HETATM   14  C11 LIG X 999      -2.070  -3.104  -0.254  1.00  0.00     0.069 A 
HETATM   15  C13 LIG X 999      -0.707  -3.389  -0.397  1.00  0.00     0.037 A 
HETATM   16  C14 LIG X 999       0.209  -2.374  -0.684  1.00  0.00     0.015 A 
HETATM   17  C16 LIG X 999       0.682  -0.024  -1.123  1.00  0.00     0.020 A 
BRANCH  14  18
HETATM   18  O3  LIG X 999      -2.942  -4.164   0.035  1.00  0.00    -0.356 OA
HETATM   19  C12 LIG X 999      -4.349  -4.025   0.206  1.00  0.00     0.210 C 
ENDBRANCH  14  18
ENDBRANCH   7   8
ENDBRANCH   5   7
ENDBRANCH   4   5
ENDBRANCH   3   4
TORSDOF 5
