REMARK  3 active torsions:
REMARK  status: ('A' for Active; 'I' for Inactive)
REMARK    1  A    between atoms: C3_3  and  O1_4 
REMARK    2  A    between atoms: C3_3  and  C4_5 
REMARK    3  A    between atoms: C3_3  and  C14_15 
ROOT
HETATM    1  C1  LIG X 999      -0.157   1.909  -4.057  1.00  0.00     0.015 C 
HETATM    2  C2  LIG X 999       0.319   1.351  -3.099  1.00  0.00    -0.073 C 
HETATM    3  C3  LIG X 999       0.908   0.662  -1.921  1.00  0.00     0.154 C 
ENDROOT
BRANCH   3   4
HETATM    4  O1  LIG X 999       1.880  -0.237  -2.411  1.00  0.00    -0.372 OA
HETATM    5  H2  LIG X 999       1.430  -0.891  -3.011  1.00  0.00     0.212 HD
ENDBRANCH   3   4
BRANCH   3   6
HETATM    6  C4  LIG X 999      -0.191  -0.120  -1.174  1.00  0.00    -0.010 A 
HETATM    7  C5  LIG X 999      -1.504   0.386  -1.057  1.00  0.00     0.012 A 
HETATM    8  C6  LIG X 999      -2.487  -0.315  -0.355  1.00  0.00     0.013 A 
HETATM    9  C7  LIG X 999      -2.181  -1.535   0.259  1.00  0.00    -0.026 A 
HETATM   10  C8  LIG X 999      -3.162  -2.245   0.969  1.00  0.00     0.012 A 
HETATM   11  C12 LIG X 999      -0.869  -2.054   0.167  1.00  0.00    -0.025 A 
HETATM   12  C9  LIG X 999      -2.843  -3.459   1.583  1.00  0.00     0.001 A 
HETATM   13  C10 LIG X 999      -1.546  -3.971   1.495  1.00  0.00     0.001 A 
HETATM   14  C11 LIG X 999      -0.560  -3.273   0.790  1.00  0.00     0.012 A 
HETATM   15  C13 LIG X 999       0.112  -1.345  -0.541  1.00  0.00     0.023 A 
ENDBRANCH   3   6
BRANCH   3  16
HETATM   16  C14 LIG X 999       1.631   1.708  -0.975  1.00  0.00    -0.004 C 
HETATM   17  C15 LIG X 999       2.290   0.994   0.230  1.00  0.00     0.019 C 
HETATM   18  C16 LIG X 999       2.753   2.448  -1.749  1.00  0.00     0.019 C 
HETATM   19  C17 LIG X 999       0.649   2.771  -0.424  1.00  0.00     0.019 C 
ENDBRANCH   3  16
TORSDOF 3
