REMARK  3 active torsions:
REMARK  status: ('A' for Active; 'I' for Inactive)
REMARK    1  A    between atoms: C6_6  and  C7_7 
REMARK    2  A    between atoms: C8_8  and  C9_9 
REMARK    3  A    between atoms: C10_12  and  N1_13 
ROOT
HETATM    1  N1  LIG X 999       0.706  -1.551  -2.879  1.00  0.00    -0.105 NA
HETATM    2  N2  LIG X 999       0.691  -1.448  -4.106  1.00  0.00    -0.167 NA
HETATM    3  N3  LIG X 999       0.677  -1.345  -5.332  1.00  0.00     0.068 N 
ENDROOT
BRANCH   1   4
HETATM    4  C10 LIG X 999       0.736  -0.368  -2.022  1.00  0.00     0.179 C 
HETATM    5  C4  LIG X 999       0.508  -0.772  -0.574  1.00  0.00    -0.023 A 
HETATM    6  C3  LIG X 999       1.239  -0.178   0.486  1.00  0.00    -0.050 A 
HETATM    7  C5  LIG X 999      -0.537  -1.664  -0.266  1.00  0.00     0.030 A 
HETATM    8  C2  LIG X 999       0.964  -0.550   1.812  1.00  0.00     0.009 A 
HETATM    9  C13 LIG X 999       2.370   0.787   0.225  1.00  0.00     0.039 C 
HETATM   10  C1  LIG X 999      -0.055  -1.460   2.097  1.00  0.00     0.021 A 
HETATM   11  C6  LIG X 999      -0.811  -2.013   1.061  1.00  0.00     0.018 A 
HETATM   12  C12 LIG X 999       2.261   1.446  -1.149  1.00  0.00     0.007 C 
HETATM   13  C11 LIG X 999       2.066   0.382  -2.226  1.00  0.00     0.035 C 
BRANCH  11  14
HETATM   14  C7  LIG X 999      -1.873  -2.938   1.359  1.00  0.00    -0.056 C 
HETATM   15  C8  LIG X 999      -2.763  -3.712   1.608  1.00  0.00     0.010 C 
BRANCH  15  16
HETATM   16  C9  LIG X 999      -3.822  -4.634   1.904  1.00  0.00     0.258 C 
HETATM   17  O1  LIG X 999      -4.087  -4.925   3.099  1.00  0.00    -0.637 OA
HETATM   18  O2  LIG X 999      -4.554  -5.204   0.872  1.00  0.00    -0.637 OA
ENDBRANCH  15  16
ENDBRANCH  11  14
ENDBRANCH   1   4
TORSDOF 3
