REMARK  1 active torsions:
REMARK  status: ('A' for Active; 'I' for Inactive)
REMARK    1  A    between atoms: C2_5  and  C3_6 
ROOT
HETATM    1  C3  LIG X 999      -0.262  -0.520  -1.087  1.00  0.00     0.028 A 
HETATM    2  C4  LIG X 999       0.742  -0.856  -2.008  1.00  0.00     0.017 A 
HETATM    3  C5  LIG X 999       0.897  -2.170  -2.449  1.00  0.00     0.002 A 
HETATM    4  C6  LIG X 999       0.047  -3.171  -1.985  1.00  0.00     0.012 A 
HETATM    5  C7  LIG X 999      -0.989  -2.862  -1.092  1.00  0.00    -0.025 A 
HETATM    6  C8  LIG X 999      -1.861  -3.871  -0.655  1.00  0.00     0.012 A 
HETATM    7  C9  LIG X 999      -2.920  -3.565   0.199  1.00  0.00     0.001 A 
HETATM    8  C10 LIG X 999      -3.127  -2.250   0.613  1.00  0.00     0.001 A 
HETATM    9  C11 LIG X 999      -2.267  -1.233   0.191  1.00  0.00     0.013 A 
HETATM   10  C12 LIG X 999      -1.166  -1.523  -0.645  1.00  0.00    -0.011 A 
ENDROOT
BRANCH   1  11
HETATM   11  C2  LIG X 999      -0.307   0.878  -0.607  1.00  0.00     0.177 A 
HETATM   12  O1  LIG X 999      -0.172   1.931  -1.387  1.00  0.00    -0.258 OA
HETATM   13  C1  LIG X 999      -0.225   2.959  -0.571  1.00  0.00     0.260 A 
HETATM   14  N1  LIG X 999      -0.133   4.193  -0.945  1.00  0.00    -0.261 NA
HETATM   15  N3  LIG X 999      -0.382   2.572   0.705  1.00  0.00    -0.262 N 
HETATM   16  H1  LIG X 999      -0.009   4.438  -1.953  1.00  0.00     0.190 HD
HETATM   17  N2  LIG X 999      -0.429   1.253   0.684  1.00  0.00    -0.276 N 
HETATM   18  H10 LIG X 999      -0.441   3.171   1.559  1.00  0.00     0.190 HD
HETATM   19  H9  LIG X 999      -0.505   0.641   1.527  1.00  0.00     0.189 HD
ENDBRANCH   1  11
TORSDOF 1
