REMARK  3 active torsions:
REMARK  status: ('A' for Active; 'I' for Inactive)
REMARK    1  A    between atoms: C7_9  and  C8_10 
REMARK    2  A    between atoms: C9_13  and  N4_14 
REMARK    3  A    between atoms: N7_23  and  C14_24 
ROOT
HETATM    1  N4  LIG X 999      -3.377   2.198   3.892  1.00  0.00    -0.023 NA
HETATM    2  N5  LIG X 999      -4.330   1.706   3.289  1.00  0.00    -0.158 NA
HETATM    3  N6  LIG X 999      -5.284   1.215   2.686  1.00  0.00     0.068 N 
ENDROOT
BRANCH   1   4
HETATM    4  C9  LIG X 999      -2.049   2.061   3.391  1.00  0.00     0.326 A 
HETATM    5  N3  LIG X 999      -0.967   2.580   3.997  1.00  0.00    -0.099 NA
HETATM    6  N2  LIG X 999       0.066   2.246   3.239  1.00  0.00    -0.119 NA
HETATM    7  C8  LIG X 999      -0.431   1.543   2.199  1.00  0.00     0.205 A 
HETATM    8  O1  LIG X 999      -1.733   1.419   2.293  1.00  0.00    -0.252 OA
BRANCH   7   9
HETATM    9  C7  LIG X 999       0.401   0.948   1.134  1.00  0.00     0.032 A 
HETATM   10  C6  LIG X 999      -0.045   0.808  -0.217  1.00  0.00     0.020 A 
HETATM   11  C1  LIG X 999      -1.289   1.347  -0.860  1.00  0.00     0.060 A 
HETATM   12  C5  LIG X 999       0.797   0.123  -1.074  1.00  0.00     0.019 A 
HETATM   13  N1  LIG X 999      -2.067   2.172  -0.236  1.00  0.00    -0.299 NA
HETATM   14  C2  LIG X 999      -1.572   0.994  -2.295  1.00  0.00     0.034 A 
HETATM   15  H1  LIG X 999      -2.917   2.580  -0.686  1.00  0.00     0.187 HD
HETATM   16  C3  LIG X 999      -0.691   0.281  -3.027  1.00  0.00     0.033 A 
HETATM   17  C4  LIG X 999       0.561  -0.151  -2.385  1.00  0.00     0.048 A 
HETATM   18  N7  LIG X 999       1.610  -0.838  -2.901  1.00  0.00    -0.324 N 
HETATM   19  C13 LIG X 999       2.494  -0.993  -1.877  1.00  0.00     0.193 A 
HETATM   20  C12 LIG X 999       2.005  -0.390  -0.730  1.00  0.00     0.032 A 
HETATM   21  O2  LIG X 999       3.705  -1.667  -1.981  1.00  0.00    -0.171 OA
HETATM   22  C11 LIG X 999       2.496  -0.247   0.562  1.00  0.00     0.018 A 
HETATM   23  C10 LIG X 999       1.684   0.433   1.497  1.00  0.00     0.018 A 
BRANCH  18  24
HETATM   24  C14 LIG X 999       1.732  -1.382  -4.253  1.00  0.00     0.127 C 
HETATM   25  C15 LIG X 999       1.050  -2.741  -4.340  1.00  0.00     0.027 C 
ENDBRANCH  18  24
ENDBRANCH   7   9
ENDBRANCH   1   4
TORSDOF 3
