REMARK  3 active torsions:
REMARK  status: ('A' for Active; 'I' for Inactive)
REMARK    1  A    between atoms: C3_3  and  S1_4 
REMARK    2  A    between atoms: S1_4  and  C4_7 
REMARK    3  A    between atoms: C6_9  and  N1_10 
ROOT
HETATM    1  C1  LIG X 999       0.157   6.673  -1.350  1.00  0.00     0.013 C 
HETATM    2  C2  LIG X 999       0.742   5.779  -1.909  1.00  0.00    -0.102 C 
HETATM    3  C3  LIG X 999       1.449   4.691  -2.590  1.00  0.00     0.238 C 
ENDROOT
BRANCH   3   4
HETATM    4  S1  LIG X 999       1.209   3.149  -1.718  1.00  0.00     0.186 S 
HETATM    5  O1  LIG X 999       1.651   3.353  -0.295  1.00  0.00    -0.222 OA
HETATM    6  O2  LIG X 999       2.084   2.113  -2.367  1.00  0.00    -0.222 OA
BRANCH   4   7
HETATM    7  C4  LIG X 999      -0.473   2.565  -1.730  1.00  0.00     0.073 A 
HETATM    8  C5  LIG X 999      -1.436   3.270  -2.473  1.00  0.00     0.058 A 
HETATM    9  C6  LIG X 999      -2.780   2.863  -2.497  1.00  0.00     0.095 A 
HETATM   10  C7  LIG X 999      -3.171   1.734  -1.780  1.00  0.00     0.046 A 
HETATM   11  C8  LIG X 999      -2.237   0.998  -1.042  1.00  0.00    -0.021 A 
HETATM   12  C9  LIG X 999      -2.654  -0.148  -0.335  1.00  0.00     0.022 A 
HETATM   13  C13 LIG X 999      -0.867   1.404  -1.013  1.00  0.00    -0.004 A 
HETATM   14  C10 LIG X 999      -1.709  -0.870   0.389  1.00  0.00    -0.024 A 
HETATM   15  C11 LIG X 999      -0.403  -0.499   0.417  1.00  0.00    -0.024 A 
HETATM   16  C17 LIG X 999      -1.918  -2.106   1.173  1.00  0.00     0.276 C 
HETATM   17  C12 LIG X 999       0.055   0.623  -0.273  1.00  0.00     0.023 A 
HETATM   18  C14 LIG X 999       0.390  -1.453   1.223  1.00  0.00     0.276 C 
HETATM   19  N4  LIG X 999      -0.606  -2.386   1.839  1.00  0.00    -0.067 N 
HETATM   20  C15 LIG X 999      -0.712  -2.126   3.295  1.00  0.00     0.272 C 
HETATM   21  C16 LIG X 999      -0.203  -3.795   1.630  1.00  0.00     0.272 C 
BRANCH   9  22
HETATM   22  N1  LIG X 999      -3.772   3.581  -3.244  1.00  0.00    -0.073 NA
HETATM   23  N2  LIG X 999      -3.505   4.593  -3.894  1.00  0.00    -0.162 NA
HETATM   24  N3  LIG X 999      -3.240   5.604  -4.544  1.00  0.00     0.068 N 
ENDBRANCH   9  22
ENDBRANCH   4   7
ENDBRANCH   3   4
TORSDOF 3
