REMARK  6 active torsions:
REMARK  status: ('A' for Active; 'I' for Inactive)
REMARK    1  A    between atoms: O1_2  and  C1_3 
REMARK    2  A    between atoms: C1_3  and  O2_4 
REMARK    3  A    between atoms: O2_4  and  C2_5 
REMARK    4  A    between atoms: C11_14  and  N1_15 
REMARK    5  A    between atoms: C12_16  and  O3_17 
REMARK    6  A    between atoms: C12_16  and  C13_19 
ROOT
HETATM    1  C2  LIG X 999      -1.679  -1.580   0.674  1.00  0.00     0.109 A 
HETATM    2  C3  LIG X 999      -3.023  -1.936   0.870  1.00  0.00     0.041 A 
HETATM    3  C4  LIG X 999      -4.033  -1.337   0.118  1.00  0.00     0.015 A 
HETATM    4  C5  LIG X 999      -3.721  -0.354  -0.828  1.00  0.00    -0.024 A 
HETATM    5  C6  LIG X 999      -4.742   0.261  -1.571  1.00  0.00     0.012 A 
HETATM    6  C7  LIG X 999      -4.432   1.248  -2.509  1.00  0.00     0.001 A 
HETATM    7  C8  LIG X 999      -3.105   1.630  -2.712  1.00  0.00     0.001 A 
HETATM    8  C9  LIG X 999      -2.079   1.027  -1.981  1.00  0.00     0.014 A 
HETATM    9  C10 LIG X 999      -2.371   0.029  -1.029  1.00  0.00     0.006 A 
HETATM   10  C11 LIG X 999      -1.347  -0.603  -0.289  1.00  0.00     0.104 A 
ENDROOT
BRANCH  10  11
HETATM   11  N1  LIG X 999       0.021  -0.199  -0.472  1.00  0.00    -0.221 NA
HETATM   12  C12 LIG X 999       1.010  -1.007  -0.719  1.00  0.00     0.176 C 
BRANCH  12  13
HETATM   13  O3  LIG X 999       0.774  -2.371  -0.903  1.00  0.00    -0.344 OA
HETATM   14  H8  LIG X 999       1.519  -3.029  -1.091  1.00  0.00     0.219 HD
ENDBRANCH  12  13
BRANCH  12  15
HETATM   15  C13 LIG X 999       2.374  -0.457  -0.826  1.00  0.00     0.051 A 
HETATM   16  C14 LIG X 999       2.749   0.868  -0.679  1.00  0.00     0.126 A 
HETATM   17  N2  LIG X 999       4.082   0.947  -0.850  1.00  0.00    -0.307 N 
HETATM   18  C15 LIG X 999       4.874   2.170  -0.856  1.00  0.00     0.177 C 
HETATM   19  N3  LIG X 999       4.562  -0.256  -1.119  1.00  0.00    -0.309 N 
HETATM   20  H13 LIG X 999       5.565  -0.471  -1.319  1.00  0.00     0.186 HD
HETATM   21  C16 LIG X 999       3.548  -1.141  -1.104  1.00  0.00     0.124 A 
ENDBRANCH  12  15
ENDBRANCH  10  11
BRANCH   1  22
HETATM   22  O2  LIG X 999      -0.659  -2.125   1.468  1.00  0.00    -0.272 OA
BRANCH  22  23
HETATM   23  C1  LIG X 999      -0.626  -3.441   1.955  1.00  0.00     0.265 C 
HETATM   24  N4  LIG X 999       0.266  -3.770   2.861  1.00  0.00    -0.350 N 
HETATM   25  C17 LIG X 999       0.353  -5.139   3.390  1.00  0.00     0.153 C 
HETATM   26  C18 LIG X 999       1.200  -2.749   3.356  1.00  0.00     0.153 C 
BRANCH  23  27
HETATM   27  O1  LIG X 999      -1.518  -4.383   1.426  1.00  0.00    -0.327 OA
HETATM   28  H1  LIG X 999      -1.560  -5.352   1.714  1.00  0.00     0.221 HD
ENDBRANCH  23  27
ENDBRANCH  22  23
ENDBRANCH   1  22
TORSDOF 6
