REMARK  1 active torsions:
REMARK  status: ('A' for Active; 'I' for Inactive)
REMARK    1  A    between atoms: C11_11  and  N1_12 
ROOT
HETATM    1  N1  LIG X 999      -1.195   4.235   1.770  1.00  0.00    -0.066 NA
HETATM    2  N2  LIG X 999      -2.210   4.879   1.498  1.00  0.00    -0.162 NA
HETATM    3  N3  LIG X 999      -3.222   5.526   1.232  1.00  0.00     0.068 N 
ENDROOT
BRANCH   1   4
HETATM    4  C11 LIG X 999      -0.750   3.106   1.000  1.00  0.00     0.169 A 
HETATM    5  C10 LIG X 999       0.416   2.449   1.399  1.00  0.00     0.055 A 
HETATM    6  C9  LIG X 999       0.881   1.347   0.676  1.00  0.00     0.001 A 
HETATM    7  C8  LIG X 999       2.047   0.671   1.056  1.00  0.00     0.015 A 
HETATM    8  C13 LIG X 999       0.149   0.922  -0.454  1.00  0.00     0.101 A 
HETATM    9  C7  LIG X 999       2.494  -0.427   0.320  1.00  0.00     0.013 A 
HETATM   10  C5  LIG X 999       1.780  -0.864  -0.806  1.00  0.00    -0.023 A 
HETATM   11  C4  LIG X 999       0.597  -0.187  -1.200  1.00  0.00     0.009 A 
HETATM   12  C6  LIG X 999       2.231  -1.969  -1.545  1.00  0.00     0.012 A 
HETATM   13  C3  LIG X 999      -0.108  -0.638  -2.332  1.00  0.00     0.015 A 
HETATM   14  C2  LIG X 999       0.354  -1.740  -3.058  1.00  0.00     0.001 A 
HETATM   15  C1  LIG X 999       1.519  -2.402  -2.666  1.00  0.00     0.001 A 
HETATM   16  O2  LIG X 999      -0.958   1.571  -0.806  1.00  0.00    -0.272 OA
HETATM   17  C12 LIG X 999      -1.429   2.623  -0.141  1.00  0.00     0.320 A 
HETATM   18  O1  LIG X 999      -2.485   3.174  -0.549  1.00  0.00    -0.257 OA
ENDBRANCH   1   4
TORSDOF 1
