REMARK  1 active torsions:
REMARK  status: ('A' for Active; 'I' for Inactive)
REMARK    1  A    between atoms: C12_14  and  N2_15 
ROOT
HETATM    1  C1  LIG X 999       0.470  -4.460  -0.121  1.00  0.00     0.001 A 
HETATM    2  C2  LIG X 999       1.171  -3.259  -0.065  1.00  0.00     0.001 A 
HETATM    3  C3  LIG X 999       0.513  -2.043  -0.268  1.00  0.00     0.013 A 
HETATM    4  C4  LIG X 999      -0.875  -2.006  -0.532  1.00  0.00    -0.012 A 
HETATM    5  C5  LIG X 999      -1.581  -3.250  -0.586  1.00  0.00    -0.025 A 
HETATM    6  C6  LIG X 999      -0.898  -4.459  -0.379  1.00  0.00     0.012 A 
HETATM    7  C7  LIG X 999      -2.965  -3.279  -0.845  1.00  0.00     0.013 A 
HETATM    8  C8  LIG X 999      -3.672  -2.097  -1.055  1.00  0.00     0.021 A 
HETATM    9  C9  LIG X 999      -2.986  -0.892  -1.003  1.00  0.00     0.020 A 
HETATM   10  S1  LIG X 999      -3.654   0.626  -1.226  1.00  0.00    -0.076 SA
HETATM   11  C10 LIG X 999      -2.214   1.460  -1.008  1.00  0.00     0.118 A 
HETATM   12  C11 LIG X 999      -2.128   2.894  -1.084  1.00  0.00     0.109 C 
HETATM   13  N1  LIG X 999      -2.066   4.048  -1.146  1.00  0.00    -0.191 NA
HETATM   14  C12 LIG X 999      -1.172   0.550  -0.752  1.00  0.00     0.133 A 
HETATM   15  C13 LIG X 999      -1.614  -0.804  -0.749  1.00  0.00     0.026 A 
ENDROOT
BRANCH  14  16
HETATM   16  N2  LIG X 999       0.191   0.936  -0.520  1.00  0.00    -0.070 NA
HETATM   17  N3  LIG X 999       0.578   2.106  -0.522  1.00  0.00    -0.162 NA
HETATM   18  N4  LIG X 999       0.975   3.270  -0.522  1.00  0.00     0.068 N 
ENDBRANCH  14  16
TORSDOF 1
