REMARK  3 active torsions:
REMARK  status: ('A' for Active; 'I' for Inactive)
REMARK    1  A    between atoms: N2_3  and  N3_4 
REMARK    2  A    between atoms: C1_5  and  C2_6 
REMARK    3  A    between atoms: C3_8  and  C4_9 
REMARK       I    between atoms: N4_19  and  C14_20 
ROOT
HETATM    1  C2  LIG X 999       2.703   0.568  -0.120  1.00  0.00     0.259 C 
HETATM    2  O1  LIG X 999       1.505   1.310  -0.279  1.00  0.00    -0.335 OA
HETATM    3  C3  LIG X 999       0.768   1.103   0.897  1.00  0.00     0.280 C 
HETATM    4  N4  LIG X 999       1.331  -0.068   1.531  1.00  0.00    -0.247 N 
HETATM    5  C14 LIG X 999       0.870  -0.685   2.747  1.00  0.00     0.232 C 
HETATM    6  O2  LIG X 999       1.412  -1.751   3.144  1.00  0.00    -0.272 OA
HETATM    7  C15 LIG X 999      -0.260  -0.109   3.542  1.00  0.00     0.119 C 
HETATM    8  N5  LIG X 999       2.516  -0.458   0.912  1.00  0.00    -0.199 NA
HETATM    9  H15 LIG X 999       3.286  -0.364   1.615  1.00  0.00     0.150 HD
ENDROOT
BRANCH   3  10
HETATM   10  C4  LIG X 999      -0.716   0.960   0.581  1.00  0.00     0.003 A 
HETATM   11  C5  LIG X 999      -1.580   1.945   1.099  1.00  0.00     0.012 A 
HETATM   12  C6  LIG X 999      -2.953   1.891   0.876  1.00  0.00     0.002 A 
HETATM   13  C7  LIG X 999      -3.502   0.859   0.123  1.00  0.00     0.012 A 
HETATM   14  C8  LIG X 999      -2.678  -0.132  -0.423  1.00  0.00    -0.025 A 
HETATM   15  C9  LIG X 999      -3.249  -1.161  -1.189  1.00  0.00     0.012 A 
HETATM   16  C13 LIG X 999      -1.271  -0.093  -0.207  1.00  0.00    -0.015 A 
HETATM   17  C10 LIG X 999      -2.443  -2.152  -1.748  1.00  0.00     0.001 A 
HETATM   18  C11 LIG X 999      -1.065  -2.123  -1.550  1.00  0.00     0.001 A 
HETATM   19  C12 LIG X 999      -0.481  -1.107  -0.791  1.00  0.00     0.013 A 
ENDBRANCH   3  10
BRANCH   1  20
HETATM   20  C1  LIG X 999       3.070  -0.077  -1.419  1.00  0.00     0.164 C 
HETATM   21  N3  LIG X 999       3.301   0.653  -2.461  1.00  0.00    -0.143 NA
BRANCH  21  22
HETATM   22  N2  LIG X 999       3.645   0.064  -3.683  1.00  0.00    -0.052 NA
HETATM   23  N1  LIG X 999       3.867   0.793  -4.698  1.00  0.00    -0.184 NA
HETATM   24  H1  LIG X 999       4.123   0.353  -5.609  1.00  0.00     0.214 HD
ENDBRANCH  21  22
ENDBRANCH   1  20
TORSDOF 3
