REMARK  2 active torsions:
REMARK  status: ('A' for Active; 'I' for Inactive)
REMARK       I    between atoms: N1_1  and  C1_2 
REMARK    1  A    between atoms: C1_2  and  C2_4 
REMARK    2  A    between atoms: C11_13  and  O2_14 
ROOT
HETATM    1  C2  LIG X 999       1.090  -0.255   0.052  1.00  0.00     0.118 C 
HETATM    2  C3  LIG X 999       1.631   1.180  -0.102  1.00  0.00     0.017 C 
HETATM    3  C4  LIG X 999       0.610   2.206   0.394  1.00  0.00     0.002 C 
HETATM    4  C5  LIG X 999      -0.714   2.069  -0.364  1.00  0.00     0.012 C 
HETATM    5  C6  LIG X 999      -1.294   0.644  -0.262  1.00  0.00     0.047 C 
HETATM    6  C7  LIG X 999      -1.831   0.355   1.125  1.00  0.00    -0.019 C 
HETATM    7  C8  LIG X 999      -2.018  -0.907   1.523  1.00  0.00    -0.004 C 
HETATM    8  C9  LIG X 999      -1.591  -2.034   0.673  1.00  0.00    -0.001 C 
HETATM    9  C10 LIG X 999      -0.816  -1.826  -0.398  1.00  0.00     0.012 C 
HETATM   10  C11 LIG X 999      -0.260  -0.443  -0.709  1.00  0.00     0.095 C 
ENDROOT
BRANCH   1  11
HETATM   11  C1  LIG X 999       2.131  -1.255  -0.392  1.00  0.00     0.243 C 
HETATM   12  N1  LIG X 999       2.493  -2.331   0.469  1.00  0.00    -0.267 NA
HETATM   13  H1  LIG X 999       3.202  -3.038   0.175  1.00  0.00     0.190 HD
HETATM   14  O1  LIG X 999       2.666  -1.160  -1.530  1.00  0.00    -0.271 OA
ENDBRANCH   1  11
BRANCH  10  15
HETATM   15  O2  LIG X 999      -0.025  -0.332  -2.094  1.00  0.00    -0.384 OA
HETATM   16  H14 LIG X 999      -0.881  -0.507  -2.567  1.00  0.00     0.211 HD
ENDBRANCH  10  15
TORSDOF 2
