REMARK  5 active torsions:
REMARK  status: ('A' for Active; 'I' for Inactive)
REMARK    1  A    between atoms: C3_3  and  C4_4 
REMARK    2  A    between atoms: C4_4  and  S1_5 
REMARK    3  A    between atoms: S1_5  and  C5_6 
REMARK    4  A    between atoms: C6_7  and  N1_8 
REMARK    5  A    between atoms: C10_12  and  N2_13 
ROOT
HETATM    1  C1  LIG X 999       3.857  -4.694   2.620  1.00  0.00     0.112 C 
HETATM    2  C2  LIG X 999       3.640  -3.386   2.004  1.00  0.00    -0.110 C 
HETATM    3  C3  LIG X 999       3.457  -2.312   1.489  1.00  0.00    -0.097 C 
ENDROOT
BRANCH   3   4
HETATM    4  C4  LIG X 999       3.227  -1.010   0.858  1.00  0.00     0.173 C 
BRANCH   4   5
HETATM    5  S1  LIG X 999       3.163  -1.184  -0.958  1.00  0.00    -0.115 SA
BRANCH   5   6
HETATM    6  C5  LIG X 999       1.527  -1.965  -0.988  1.00  0.00     0.038 A 
HETATM    7  C6  LIG X 999       1.429  -3.374  -1.036  1.00  0.00     0.043 A 
HETATM    8  C7  LIG X 999       0.172  -3.981  -1.038  1.00  0.00     0.031 A 
HETATM    9  C8  LIG X 999      -0.993  -3.222  -0.996  1.00  0.00     0.017 A 
HETATM   10  C9  LIG X 999      -0.939  -1.817  -0.948  1.00  0.00     0.002 A 
HETATM   11  C10 LIG X 999      -2.125  -1.023  -0.906  1.00  0.00     0.045 A 
HETATM   12  C14 LIG X 999       0.344  -1.179  -0.970  1.00  0.00    -0.004 A 
HETATM   13  C11 LIG X 999      -1.988   0.372  -0.920  1.00  0.00     0.003 A 
HETATM   14  C12 LIG X 999      -0.769   0.970  -0.956  1.00  0.00    -0.021 A 
HETATM   15  C18 LIG X 999      -3.057   1.402  -0.898  1.00  0.00     0.278 C 
HETATM   16  C13 LIG X 999       0.408   0.234  -0.979  1.00  0.00     0.023 A 
HETATM   17  C15 LIG X 999      -0.902   2.443  -0.977  1.00  0.00     0.276 C 
HETATM   18  N3  LIG X 999      -2.357   2.719  -0.772  1.00  0.00    -0.067 N 
HETATM   19  C16 LIG X 999      -2.581   3.287   0.579  1.00  0.00     0.272 C 
HETATM   20  C17 LIG X 999      -2.856   3.677  -1.786  1.00  0.00     0.272 C 
BRANCH   7  21
HETATM   21  N1  LIG X 999       2.594  -4.210  -1.102  1.00  0.00    -0.398 N 
HETATM   22  H6  LIG X 999       2.499  -5.250  -1.108  1.00  0.00     0.156 HD
HETATM   23  H7  LIG X 999       3.561  -3.823  -1.160  1.00  0.00     0.156 HD
ENDBRANCH   7  21
BRANCH  11  24
HETATM   24  N2  LIG X 999      -3.440  -1.599  -0.834  1.00  0.00    -0.398 N 
HETATM   25  H10 LIG X 999      -3.612  -2.574  -0.511  1.00  0.00     0.156 HD
HETATM   26  H11 LIG X 999      -4.288  -1.014  -0.998  1.00  0.00     0.156 HD
ENDBRANCH  11  24
ENDBRANCH   5   6
ENDBRANCH   4   5
ENDBRANCH   3   4
TORSDOF 5
