REMARK  4 active torsions:
REMARK  status: ('A' for Active; 'I' for Inactive)
REMARK    1  A    between atoms: C3_3  and  O1_4 
REMARK    2  A    between atoms: O1_4  and  C4_5 
REMARK    3  A    between atoms: C4_5  and  C5_7 
REMARK    4  A    between atoms: C5_7  and  C6_8 
ROOT
HETATM    1  C1  LIG X 999      -3.665   4.572   0.488  1.00  0.00     0.014 C 
HETATM    2  C2  LIG X 999      -2.473   4.416   0.406  1.00  0.00    -0.091 C 
HETATM    3  C3  LIG X 999      -1.026   4.226   0.306  1.00  0.00     0.271 C 
ENDROOT
BRANCH   3   4
HETATM    4  O1  LIG X 999      -0.626   3.189   1.193  1.00  0.00    -0.309 OA
BRANCH   4   5
HETATM    5  C4  LIG X 999       0.703   2.772   1.315  1.00  0.00     0.263 C 
HETATM    6  O2  LIG X 999       1.612   3.307   0.623  1.00  0.00    -0.265 OA
BRANCH   5   7
HETATM    7  C5  LIG X 999       1.037   1.647   2.240  1.00  0.00     0.149 C 
BRANCH   7   8
HETATM    8  C6  LIG X 999       0.782   0.331   1.559  1.00  0.00    -0.048 A 
HETATM    9  C7  LIG X 999      -0.487  -0.265   1.627  1.00  0.00     0.008 A 
HETATM   10  C8  LIG X 999      -0.740  -1.471   0.968  1.00  0.00     0.013 A 
HETATM   11  C9  LIG X 999       0.271  -2.094   0.223  1.00  0.00    -0.026 A 
HETATM   12  C10 LIG X 999       0.028  -3.304  -0.444  1.00  0.00     0.012 A 
HETATM   13  C14 LIG X 999       1.551  -1.492   0.138  1.00  0.00    -0.025 A 
HETATM   14  C11 LIG X 999       1.043  -3.913  -1.188  1.00  0.00     0.001 A 
HETATM   15  C12 LIG X 999       2.305  -3.319  -1.272  1.00  0.00     0.001 A 
HETATM   16  C13 LIG X 999       2.561  -2.113  -0.613  1.00  0.00     0.012 A 
HETATM   17  C15 LIG X 999       1.796  -0.281   0.803  1.00  0.00     0.020 A 
ENDBRANCH   7   8
ENDBRANCH   5   7
ENDBRANCH   4   5
ENDBRANCH   3   4
TORSDOF 4
