REMARK  7 active torsions:
REMARK  status: ('A' for Active; 'I' for Inactive)
REMARK    1  A    between atoms: O1_2  and  N1_3 
REMARK    2  A    between atoms: C1_4  and  C2_5 
REMARK    3  A    between atoms: C1_4  and  N2_12 
REMARK    4  A    between atoms: C9_13  and  C10_14 
REMARK    5  A    between atoms: C10_14  and  O2_15 
REMARK    6  A    between atoms: O2_15  and  C11_16 
REMARK    7  A    between atoms: C21_26  and  C22_27 
ROOT
HETATM    1  N2  LIG X 999      -1.647  -2.451  -0.488  1.00  0.00    -0.219 N 
HETATM    2  C9  LIG X 999      -0.315  -2.577  -0.631  1.00  0.00     0.088 A 
HETATM    3  C21 LIG X 999      -0.114  -3.344  -1.766  1.00  0.00     0.082 A 
HETATM    4  N3  LIG X 999      -1.324  -3.688  -2.260  1.00  0.00    -0.161 NA
HETATM    5  N4  LIG X 999      -2.226  -3.127  -1.467  1.00  0.00    -0.211 N 
HETATM    6  H23 LIG X 999      -3.258  -3.200  -1.609  1.00  0.00     0.211 HD
ENDROOT
BRANCH   2   7
HETATM    7  C10 LIG X 999       0.712  -1.962   0.270  1.00  0.00     0.237 C 
BRANCH   7   8
HETATM    8  O2  LIG X 999       0.952  -0.619  -0.139  1.00  0.00    -0.344 OA
BRANCH   8   9
HETATM    9  C11 LIG X 999       1.589   0.358   0.647  1.00  0.00     0.080 A 
HETATM   10  C12 LIG X 999       2.134   0.052   1.911  1.00  0.00     0.037 A 
HETATM   11  C13 LIG X 999       2.709   1.051   2.700  1.00  0.00     0.004 A 
HETATM   12  C14 LIG X 999       2.755   2.367   2.244  1.00  0.00     0.012 A 
HETATM   13  C15 LIG X 999       2.240   2.695   0.982  1.00  0.00    -0.023 A 
HETATM   14  C16 LIG X 999       2.292   4.019   0.517  1.00  0.00     0.012 A 
HETATM   15  C20 LIG X 999       1.668   1.683   0.168  1.00  0.00     0.007 A 
HETATM   16  C17 LIG X 999       1.788   4.340  -0.747  1.00  0.00     0.001 A 
HETATM   17  C18 LIG X 999       1.239   3.344  -1.559  1.00  0.00     0.001 A 
HETATM   18  C19 LIG X 999       1.184   2.023  -1.110  1.00  0.00     0.015 A 
ENDBRANCH   8   9
ENDBRANCH   7   8
ENDBRANCH   2   7
BRANCH   1  19
HETATM   19  C1  LIG X 999      -2.341  -1.671   0.495  1.00  0.00     0.187 C 
HETATM   20  N1  LIG X 999      -2.977  -2.249   1.474  1.00  0.00    -0.115 NA
BRANCH  20  21
HETATM   21  O1  LIG X 999      -3.055  -3.619   1.632  1.00  0.00    -0.264 OA
HETATM   22  H1  LIG X 999      -2.599  -4.264   0.999  1.00  0.00     0.247 HD
ENDBRANCH  20  21
BRANCH  19  23
HETATM   23  C2  LIG X 999      -2.256  -0.194   0.439  1.00  0.00     0.014 A 
HETATM   24  C3  LIG X 999      -2.155   0.457  -0.801  1.00  0.00     0.016 A 
HETATM   25  C4  LIG X 999      -2.066   1.849  -0.867  1.00  0.00     0.007 A 
HETATM   26  C5  LIG X 999      -2.043   2.613   0.308  1.00  0.00    -0.062 A 
HETATM   27  C6  LIG X 999      -1.895   4.104   0.253  1.00  0.00     0.048 C 
HETATM   28  C7  LIG X 999      -2.138   1.967   1.549  1.00  0.00     0.007 A 
HETATM   29  C8  LIG X 999      -2.250   0.576   1.615  1.00  0.00     0.016 A 
ENDBRANCH  19  23
ENDBRANCH   1  19
BRANCH   3  30
HETATM   30  C22 LIG X 999       1.191  -3.802  -2.341  1.00  0.00     0.059 C 
HETATM   31  C23 LIG X 999       1.603  -5.144  -1.744  1.00  0.00     0.011 C 
ENDBRANCH   3  30
TORSDOF 7
