REMARK  3 active torsions:
REMARK  status: ('A' for Active; 'I' for Inactive)
REMARK    1  A    between atoms: C6_6  and  C7_7 
REMARK    2  A    between atoms: C7_7  and  N1_8 
REMARK    3  A    between atoms: C8_12  and  N4_13 
ROOT
HETATM    1  N1  LIG X 999       1.574   1.055   0.787  1.00  0.00    -0.065 NA
HETATM    2  N2  LIG X 999       1.298   0.378   1.778  1.00  0.00    -0.164 NA
HETATM    3  N3  LIG X 999       1.023  -0.298   2.767  1.00  0.00     0.068 N 
ENDROOT
BRANCH   1   4
HETATM    4  C7  LIG X 999       1.716   0.432  -0.523  1.00  0.00     0.267 A 
HETATM    5  O1  LIG X 999       2.775  -0.497  -0.550  1.00  0.00    -0.314 OA
HETATM    6  C8  LIG X 999       2.959   0.689  -1.294  1.00  0.00     0.349 A 
BRANCH   4   7
HETATM    7  C6  LIG X 999       0.483  -0.056  -1.223  1.00  0.00     0.007 A 
HETATM    8  C5  LIG X 999      -0.078  -1.297  -0.887  1.00  0.00     0.024 A 
HETATM    9  C4  LIG X 999      -1.246  -1.741  -1.526  1.00  0.00    -0.025 A 
HETATM   10  C3  LIG X 999      -1.812  -2.984  -1.201  1.00  0.00     0.012 A 
HETATM   11  C11 LIG X 999      -1.863  -0.926  -2.506  1.00  0.00    -0.026 A 
HETATM   12  C2  LIG X 999      -2.976  -3.415  -1.844  1.00  0.00     0.001 A 
HETATM   13  C1  LIG X 999      -3.583  -2.611  -2.812  1.00  0.00     0.001 A 
HETATM   14  C12 LIG X 999      -3.032  -1.370  -3.144  1.00  0.00     0.012 A 
HETATM   15  C10 LIG X 999      -1.301   0.319  -2.828  1.00  0.00     0.013 A 
HETATM   16  C9  LIG X 999      -0.138   0.751  -2.186  1.00  0.00     0.013 A 
ENDBRANCH   4   7
BRANCH   6  17
HETATM   17  N4  LIG X 999       3.951   1.540  -0.654  1.00  0.00    -0.077 NA
HETATM   18  N5  LIG X 999       3.736   2.741  -0.491  1.00  0.00    -0.165 NA
HETATM   19  N6  LIG X 999       3.520   3.941  -0.329  1.00  0.00     0.068 N 
ENDBRANCH   6  17
ENDBRANCH   1   4
TORSDOF 3
