REMARK  1 active torsions:
REMARK  status: ('A' for Active; 'I' for Inactive)
REMARK    1  A    between atoms: N1_2  and  C1_3 
ROOT
HETATM    1  C1  LIG X 999      -1.357  -0.858   2.034  1.00  0.00     0.120 C 
HETATM    2  C2  LIG X 999      -0.224  -1.335   1.375  1.00  0.00     0.057 C 
HETATM    3  C3  LIG X 999       0.500  -0.500   0.512  1.00  0.00    -0.045 C 
HETATM    4  C4  LIG X 999       1.863  -0.998   0.097  1.00  0.00     0.049 C 
HETATM    5  C5  LIG X 999      -0.014   0.799   0.201  1.00  0.00     0.008 C 
HETATM    6  C6  LIG X 999       0.498   1.669  -0.820  1.00  0.00    -0.013 C 
HETATM    7  C7  LIG X 999       1.296   1.219  -1.899  1.00  0.00     0.013 C 
HETATM    8  C8  LIG X 999       1.817   2.116  -2.835  1.00  0.00     0.001 C 
HETATM    9  C9  LIG X 999       1.518   3.472  -2.751  1.00  0.00     0.001 C 
HETATM   10  C10 LIG X 999       0.649   3.931  -1.764  1.00  0.00     0.012 C 
HETATM   11  C11 LIG X 999       0.106   3.038  -0.826  1.00  0.00    -0.025 C 
HETATM   12  C12 LIG X 999      -0.866   3.495   0.066  1.00  0.00     0.014 C 
HETATM   13  C13 LIG X 999      -1.498   2.610   0.928  1.00  0.00     0.031 C 
HETATM   14  C14 LIG X 999      -1.096   1.271   1.000  1.00  0.00     0.045 C 
HETATM   15  N2  LIG X 999      -1.741   0.433   1.863  1.00  0.00    -0.341 N 
HETATM   16  H12 LIG X 999      -2.558   0.788   2.413  1.00  0.00     0.167 HD
ENDROOT
BRANCH   1  17
HETATM   17  N1  LIG X 999      -2.023  -1.624   2.841  1.00  0.00    -0.284 NA
HETATM   18  H1  LIG X 999      -1.760  -2.620   3.019  1.00  0.00     0.188 HD
ENDBRANCH   1  17
TORSDOF 1
