REMARK  5 active torsions:
REMARK  status: ('A' for Active; 'I' for Inactive)
REMARK    1  A    between atoms: O1_2  and  C1_3 
REMARK    2  A    between atoms: C1_3  and  C15_22 
REMARK    3  A    between atoms: N1_4  and  C2_5 
REMARK    4  A    between atoms: C3_6  and  O2_7 
REMARK    5  A    between atoms: O2_7  and  C4_8 
REMARK       I    between atoms: C4_8  and  N2_10 
ROOT
HETATM    1  C2  LIG X 999      -0.147   1.575  -0.153  1.00  0.00     0.104 A 
HETATM    2  C3  LIG X 999      -1.460   1.182   0.178  1.00  0.00     0.110 A 
HETATM    3  C7  LIG X 999      -2.438   2.159   0.427  1.00  0.00     0.041 A 
HETATM    4  C8  LIG X 999      -2.121   3.515   0.348  1.00  0.00     0.015 A 
HETATM    5  C9  LIG X 999      -0.826   3.920   0.002  1.00  0.00    -0.024 A 
HETATM    6  C10 LIG X 999      -0.513   5.285  -0.093  1.00  0.00     0.012 A 
HETATM    7  C11 LIG X 999       0.776   5.688  -0.447  1.00  0.00     0.001 A 
HETATM    8  C12 LIG X 999       1.761   4.735  -0.710  1.00  0.00     0.001 A 
HETATM    9  C13 LIG X 999       1.466   3.373  -0.619  1.00  0.00     0.014 A 
HETATM   10  C14 LIG X 999       0.171   2.946  -0.264  1.00  0.00     0.006 A 
ENDROOT
BRANCH   1  11
HETATM   11  N1  LIG X 999       0.845   0.579  -0.455  1.00  0.00    -0.221 NA
HETATM   12  C1  LIG X 999       1.224  -0.382   0.339  1.00  0.00     0.176 C 
BRANCH  12  13
HETATM   13  O1  LIG X 999       0.767  -0.475   1.657  1.00  0.00    -0.344 OA
HETATM   14  H1  LIG X 999       0.194   0.235   2.094  1.00  0.00     0.219 HD
ENDBRANCH  12  13
BRANCH  12  15
HETATM   15  C15 LIG X 999       2.176  -1.387  -0.151  1.00  0.00     0.053 A 
HETATM   16  C16 LIG X 999       2.771  -1.451  -1.399  1.00  0.00     0.156 A 
HETATM   17  N3  LIG X 999       3.583  -2.525  -1.446  1.00  0.00    -0.185 NA
HETATM   18  N4  LIG X 999       3.502  -3.139  -0.275  1.00  0.00    -0.285 N 
HETATM   19  C17 LIG X 999       4.286  -4.313   0.083  1.00  0.00     0.179 C 
HETATM   20  C18 LIG X 999       2.667  -2.472   0.543  1.00  0.00     0.129 A 
ENDBRANCH  12  15
ENDBRANCH   1  11
BRANCH   2  21
HETATM   21  O2  LIG X 999      -1.769  -0.186   0.199  1.00  0.00    -0.254 OA
BRANCH  21  22
HETATM   22  C4  LIG X 999      -2.684  -0.801   1.067  1.00  0.00     0.461 C 
HETATM   23  O3  LIG X 999      -3.155  -0.172   2.054  1.00  0.00    -0.230 OA
HETATM   24  N2  LIG X 999      -3.023  -2.188   0.878  1.00  0.00     0.009 N 
HETATM   25  H2  LIG X 999      -3.734  -2.475   1.592  1.00  0.00     0.292 HD
HETATM   26  C5  LIG X 999      -1.824  -3.023   1.055  1.00  0.00     0.282 C 
HETATM   27  C6  LIG X 999      -3.604  -2.386  -0.458  1.00  0.00     0.282 C 
ENDBRANCH  21  22
ENDBRANCH   2  21
TORSDOF 5
