REMARK  6 active torsions:
REMARK  status: ('A' for Active; 'I' for Inactive)
REMARK    1  A    between atoms: C6_6  and  N1_7 
REMARK       I    between atoms: N1_7  and  C7_9 
REMARK    2  A    between atoms: C7_9  and  O2_11 
REMARK    3  A    between atoms: O2_11  and  C8_12 
REMARK    4  A    between atoms: C8_12  and  C10_14 
REMARK    5  A    between atoms: C10_14  and  O3_15 
REMARK    6  A    between atoms: C12_17  and  N2_18 
ROOT
HETATM    1  N2  LIG X 999       0.803   3.667   0.901  1.00  0.00    -0.070 NA
HETATM    2  N3  LIG X 999       1.162   4.843   0.987  1.00  0.00    -0.162 NA
HETATM    3  N4  LIG X 999       1.519   6.017   1.074  1.00  0.00     0.068 N 
ENDROOT
BRANCH   1   4
HETATM    4  C12 LIG X 999       1.689   2.619   0.479  1.00  0.00     0.120 A 
HETATM    5  C6  LIG X 999       1.203   1.298   0.400  1.00  0.00     0.069 A 
HETATM    6  C5  LIG X 999       2.066   0.263  -0.002  1.00  0.00     0.044 A 
HETATM    7  C4  LIG X 999       3.394   0.536  -0.355  1.00  0.00    -0.024 A 
HETATM    8  C3  LIG X 999       4.253  -0.497  -0.763  1.00  0.00     0.012 A 
HETATM    9  C14 LIG X 999       3.876   1.863  -0.294  1.00  0.00    -0.024 A 
HETATM   10  C2  LIG X 999       5.576  -0.213  -1.113  1.00  0.00     0.001 A 
HETATM   11  C1  LIG X 999       6.052   1.099  -1.056  1.00  0.00     0.001 A 
HETATM   12  C15 LIG X 999       5.208   2.136  -0.648  1.00  0.00     0.012 A 
HETATM   13  C13 LIG X 999       3.023   2.893   0.124  1.00  0.00     0.049 A 
BRANCH   5  14
HETATM   14  N1  LIG X 999      -0.153   1.008   0.785  1.00  0.00    -0.300 N 
HETATM   15  H5  LIG X 999      -0.587   1.564   1.556  1.00  0.00     0.171 HD
HETATM   16  C7  LIG X 999      -0.988   0.055   0.114  1.00  0.00     0.365 C 
HETATM   17  O1  LIG X 999      -0.629  -0.447  -0.987  1.00  0.00    -0.238 OA
BRANCH  16  18
HETATM   18  O2  LIG X 999      -2.227  -0.276   0.674  1.00  0.00    -0.297 OA
BRANCH  18  19
HETATM   19  C8  LIG X 999      -3.118  -1.238   0.107  1.00  0.00     0.153 C 
HETATM   20  C9  LIG X 999      -2.603  -2.655   0.378  1.00  0.00     0.042 C 
BRANCH  19  21
HETATM   21  C10 LIG X 999      -4.510  -1.048   0.714  1.00  0.00     0.199 C 
BRANCH  21  22
HETATM   22  O3  LIG X 999      -4.973   0.253   0.415  1.00  0.00    -0.393 OA
HETATM   23  C11 LIG X 999      -6.249   0.438   0.984  1.00  0.00     0.201 C 
ENDBRANCH  21  22
ENDBRANCH  19  21
ENDBRANCH  18  19
ENDBRANCH  16  18
ENDBRANCH   5  14
ENDBRANCH   1   4
TORSDOF 6
