REMARK  4 active torsions:
REMARK  status: ('A' for Active; 'I' for Inactive)
REMARK    1  A    between atoms: C5_5  and  O1_6 
REMARK    2  A    between atoms: O1_6  and  C6_7 
REMARK       I    between atoms: C6_7  and  N1_9 
REMARK    3  A    between atoms: C9_13  and  N2_14 
REMARK    4  A    between atoms: C11_19  and  N5_20 
ROOT
HETATM    1  N2  LIG X 999      -2.635   1.482   0.280  1.00  0.00    -0.068 NA
HETATM    2  N3  LIG X 999      -3.186   2.524   0.635  1.00  0.00    -0.162 NA
HETATM    3  N4  LIG X 999      -3.741   3.562   0.992  1.00  0.00     0.068 N 
ENDROOT
BRANCH   1   4
HETATM    4  C9  LIG X 999      -1.205   1.319   0.279  1.00  0.00     0.151 C 
HETATM    5  C5  LIG X 999      -0.695   0.009   0.291  1.00  0.00     0.114 C 
HETATM    6  C4  LIG X 999      -1.310  -1.011   1.049  1.00  0.00     0.040 C 
HETATM    7  C3  LIG X 999      -1.988  -0.817   2.271  1.00  0.00     0.003 C 
HETATM    8  C2  LIG X 999      -1.874   0.308   3.112  1.00  0.00     0.000 C 
HETATM    9  C1  LIG X 999      -0.807   1.214   3.087  1.00  0.00     0.000 C 
HETATM   10  C13 LIG X 999       0.491   0.826   2.749  1.00  0.00     0.002 C 
HETATM   11  C12 LIG X 999       1.341   1.582   1.935  1.00  0.00     0.036 C 
HETATM   12  C11 LIG X 999       0.937   2.471   0.902  1.00  0.00     0.117 C 
HETATM   13  C10 LIG X 999      -0.338   2.441   0.275  1.00  0.00     0.100 C 
HETATM   14 CL1  LIG X 999      -0.830   3.869  -0.641  1.00  0.00    -0.079 Cl
BRANCH   5  15
HETATM   15  O1  LIG X 999       0.441  -0.251  -0.492  1.00  0.00    -0.254 OA
BRANCH  15  16
HETATM   16  C6  LIG X 999       1.391  -1.259  -0.260  1.00  0.00     0.461 C 
HETATM   17  O2  LIG X 999       1.337  -1.971   0.781  1.00  0.00    -0.230 OA
HETATM   18  N1  LIG X 999       2.492  -1.422  -1.175  1.00  0.00     0.009 N 
HETATM   19  H5  LIG X 999       3.058  -2.258  -0.895  1.00  0.00     0.292 HD
HETATM   20  C7  LIG X 999       1.988  -1.643  -2.539  1.00  0.00     0.282 C 
HETATM   21  C8  LIG X 999       3.358  -0.235  -1.123  1.00  0.00     0.282 C 
ENDBRANCH  15  16
ENDBRANCH   5  15
BRANCH  12  22
HETATM   22  N5  LIG X 999       1.881   3.437   0.409  1.00  0.00    -0.071 NA
HETATM   23  N6  LIG X 999       3.011   3.569   0.884  1.00  0.00    -0.162 NA
HETATM   24  N7  LIG X 999       4.138   3.702   1.357  1.00  0.00     0.068 N 
ENDBRANCH  12  22
ENDBRANCH   1   4
TORSDOF 4
