REMARK  3 active torsions:
REMARK  status: ('A' for Active; 'I' for Inactive)
REMARK    1  A    between atoms: C2_2  and  O1_3 
REMARK    2  A    between atoms: O1_3  and  C3_4 
REMARK       I    between atoms: C3_4  and  N1_6 
REMARK    3  A    between atoms: N1_6  and  C4_7 
ROOT
HETATM    1  C4  LIG X 999       0.298  -3.885  -0.690  1.00  0.00     0.063 A 
HETATM    2  C5  LIG X 999      -0.116  -4.584   0.451  1.00  0.00     0.032 A 
HETATM    3  C6  LIG X 999      -0.169  -3.953   1.696  1.00  0.00     0.014 A 
HETATM    4  C7  LIG X 999       0.208  -2.609   1.821  1.00  0.00    -0.025 A 
HETATM    5  C8  LIG X 999       0.160  -1.964   3.072  1.00  0.00     0.021 A 
HETATM    6  C9  LIG X 999       0.551  -0.626   3.149  1.00  0.00    -0.024 A 
HETATM    7  C10 LIG X 999       0.983   0.055   2.052  1.00  0.00    -0.024 A 
HETATM    8  C11 LIG X 999       1.053  -0.550   0.796  1.00  0.00     0.021 A 
HETATM    9  C12 LIG X 999       0.656  -1.896   0.673  1.00  0.00    -0.023 A 
HETATM   10  C13 LIG X 999       0.706  -2.544  -0.571  1.00  0.00     0.044 A 
HETATM   11  C14 LIG X 999       1.364   1.437   2.415  1.00  0.00     0.276 C 
HETATM   12  N2  LIG X 999       0.967   1.600   3.850  1.00  0.00    -0.067 N 
HETATM   13  C15 LIG X 999      -0.203   2.505   3.953  1.00  0.00     0.272 C 
HETATM   14  C16 LIG X 999       2.084   2.166   4.640  1.00  0.00     0.272 C 
HETATM   15  C17 LIG X 999       0.604   0.235   4.349  1.00  0.00     0.276 C 
ENDROOT
BRANCH   1  16
HETATM   16  N1  LIG X 999       0.348  -4.583  -1.942  1.00  0.00    -0.188 NA
HETATM   17  C3  LIG X 999       0.238  -3.989  -3.239  1.00  0.00     0.387 C 
HETATM   18  O2  LIG X 999       0.537  -4.673  -4.254  1.00  0.00    -0.236 OA
BRANCH  17  19
HETATM   19  O1  LIG X 999      -0.243  -2.684  -3.383  1.00  0.00    -0.303 OA
BRANCH  19  20
HETATM   20  C2  LIG X 999      -0.371  -2.044  -4.648  1.00  0.00     0.176 C 
HETATM   21  C1  LIG X 999      -0.895  -0.631  -4.451  1.00  0.00     0.034 C 
ENDBRANCH  19  20
ENDBRANCH  17  19
ENDBRANCH   1  16
TORSDOF 3
