REMARK  9 active torsions:
REMARK  status: ('A' for Active; 'I' for Inactive)
REMARK    1  A    between atoms: O1_2  and  C2_3 
REMARK    2  A    between atoms: C4_6  and  N1_7 
REMARK    3  A    between atoms: C6_9  and  C7_10 
REMARK    4  A    between atoms: C7_10  and  C8_11 
REMARK    5  A    between atoms: C8_11  and  O3_12 
REMARK    6  A    between atoms: O3_12  and  C9_13 
REMARK    7  A    between atoms: C18_22  and  C19_23 
REMARK    8  A    between atoms: C20_27  and  O5_28 
REMARK    9  A    between atoms: C21_29  and  O6_30 
ROOT
HETATM    1  N1  LIG X 999       0.135  -0.525   1.211  1.00  0.00    -0.276 N 
HETATM    2  C5  LIG X 999       0.556  -1.617   0.538  1.00  0.00     0.141 A 
HETATM    3  C6  LIG X 999       1.464  -2.259   1.354  1.00  0.00     0.075 A 
HETATM    4  N2  LIG X 999       1.600  -1.544   2.487  1.00  0.00    -0.162 NA
HETATM    5  N3  LIG X 999       0.783  -0.508   2.368  1.00  0.00    -0.217 N 
HETATM    6  H20 LIG X 999       0.721   0.255   3.076  1.00  0.00     0.210 HD
ENDROOT
BRANCH   3   7
HETATM    7  C7  LIG X 999       2.323  -3.426   0.981  1.00  0.00     0.089 C 
BRANCH   7   8
HETATM    8  C8  LIG X 999       3.722  -2.989   0.528  1.00  0.00     0.181 C 
BRANCH   8   9
HETATM    9  O3  LIG X 999       3.667  -2.248  -0.695  1.00  0.00    -0.350 OA
BRANCH   9  10
HETATM   10  C9  LIG X 999       3.306  -0.893  -0.822  1.00  0.00     0.082 A 
HETATM   11  C10 LIG X 999       3.562   0.025   0.211  1.00  0.00     0.038 A 
HETATM   12  C11 LIG X 999       3.186   1.357   0.089  1.00  0.00     0.015 A 
HETATM   13  C12 LIG X 999       2.547   1.810  -1.067  1.00  0.00    -0.025 A 
HETATM   14  C13 LIG X 999       2.157   3.155  -1.163  1.00  0.00     0.012 A 
HETATM   15  C17 LIG X 999       2.289   0.911  -2.136  1.00  0.00    -0.010 A 
HETATM   16  C14 LIG X 999       1.508   3.620  -2.305  1.00  0.00     0.001 A 
HETATM   17  C15 LIG X 999       1.230   2.747  -3.354  1.00  0.00     0.001 A 
HETATM   18  C16 LIG X 999       1.607   1.404  -3.273  1.00  0.00     0.013 A 
HETATM   19  C18 LIG X 999       2.689  -0.451  -2.017  1.00  0.00     0.046 A 
BRANCH  19  20
HETATM   20  C19 LIG X 999       2.466  -1.417  -3.123  1.00  0.00     0.273 C 
HETATM   21  O4  LIG X 999       2.260  -2.638  -2.891  1.00  0.00    -0.301 OA
ENDBRANCH  19  20
ENDBRANCH   9  10
ENDBRANCH   8   9
ENDBRANCH   7   8
ENDBRANCH   3   7
BRANCH   1  22
HETATM   22  C4  LIG X 999      -0.679   0.599   0.708  1.00  0.00     0.164 C 
HETATM   23  C3  LIG X 999      -1.778   0.977   1.720  1.00  0.00     0.201 C 
HETATM   24  O2  LIG X 999      -2.504   2.114   1.286  1.00  0.00    -0.356 OA
HETATM   25  C2  LIG X 999      -3.227   1.853   0.093  1.00  0.00     0.290 C 
HETATM   26  C21 LIG X 999      -2.275   1.464  -1.068  1.00  0.00     0.204 C 
HETATM   27  C20 LIG X 999      -1.334   0.308  -0.662  1.00  0.00     0.178 C 
BRANCH  25  28
HETATM   28  O1  LIG X 999      -4.189   0.830   0.320  1.00  0.00    -0.363 OA
HETATM   29  C1  LIG X 999      -5.405   1.126  -0.330  1.00  0.00     0.204 C 
ENDBRANCH  25  28
BRANCH  26  30
HETATM   30  O6  LIG X 999      -1.540   2.575  -1.520  1.00  0.00    -0.388 OA
HETATM   31  H24 LIG X 999      -1.099   2.997  -0.738  1.00  0.00     0.210 HD
ENDBRANCH  26  30
BRANCH  27  32
HETATM   32  O5  LIG X 999      -2.068  -0.890  -0.596  1.00  0.00    -0.391 OA
HETATM   33  H22 LIG X 999      -2.195  -1.202  -1.530  1.00  0.00     0.210 HD
ENDBRANCH  27  32
ENDBRANCH   1  22
TORSDOF 9
