REMARK  4 active torsions:
REMARK  status: ('A' for Active; 'I' for Inactive)
REMARK    1  A    between atoms: C2_2  and  C3_3 
REMARK    2  A    between atoms: C3_3  and  C5_5 
REMARK       I    between atoms: C5_5  and  N1_7 
REMARK    3  A    between atoms: N1_7  and  C6_8 
REMARK    4  A    between atoms: C7_9  and  O2_10 
ROOT
HETATM    1  C6  LIG X 999       0.080  -1.434  -0.089  1.00  0.00     0.104 A 
HETATM    2  C7  LIG X 999       1.216  -0.721   0.352  1.00  0.00     0.098 A 
HETATM    3  C9  LIG X 999       2.491  -1.304   0.233  1.00  0.00     0.040 A 
HETATM    4  C10 LIG X 999       2.638  -2.591  -0.283  1.00  0.00     0.015 A 
HETATM    5  C11 LIG X 999       1.517  -3.325  -0.683  1.00  0.00    -0.024 A 
HETATM    6  C12 LIG X 999       1.668  -4.628  -1.185  1.00  0.00     0.012 A 
HETATM    7  C13 LIG X 999       0.549  -5.361  -1.584  1.00  0.00     0.001 A 
HETATM    8  C14 LIG X 999      -0.726  -4.803  -1.488  1.00  0.00     0.001 A 
HETATM    9  C15 LIG X 999      -0.892  -3.507  -0.993  1.00  0.00     0.014 A 
HETATM   10  C16 LIG X 999       0.225  -2.751  -0.581  1.00  0.00     0.006 A 
ENDROOT
BRANCH   1  11
HETATM   11  N1  LIG X 999      -1.233  -0.860   0.018  1.00  0.00    -0.210 NA
HETATM   12  C5  LIG X 999      -1.586   0.477  -0.360  1.00  0.00     0.247 C 
HETATM   13  O1  LIG X 999      -0.788   1.180  -1.038  1.00  0.00    -0.271 OA
BRANCH  12  14
HETATM   14  C3  LIG X 999      -2.944   1.023  -0.007  1.00  0.00     0.076 C 
HETATM   15  C4  LIG X 999      -4.028   0.232  -0.746  1.00  0.00     0.020 C 
BRANCH  14  16
HETATM   16  C2  LIG X 999      -3.189   0.989   1.515  1.00  0.00     0.009 C 
HETATM   17  C1  LIG X 999      -2.241   1.915   2.277  1.00  0.00     0.006 C 
ENDBRANCH  14  16
ENDBRANCH  12  14
ENDBRANCH   1  11
BRANCH   2  18
HETATM   18  O2  LIG X 999       1.042   0.547   0.930  1.00  0.00    -0.354 OA
HETATM   19  C8  LIG X 999       2.097   1.368   1.422  1.00  0.00     0.210 C 
ENDBRANCH   2  18
TORSDOF 4
