REMARK  2 active torsions:
REMARK  status: ('A' for Active; 'I' for Inactive)
REMARK    1  A    between atoms: C8_9  and  N2_10 
REMARK    2  A    between atoms: C14_16  and  O1_17 
ROOT
HETATM    1  C1  LIG X 999      -0.175  -3.280  -2.015  1.00  0.00     0.287 C 
HETATM    2  N1  LIG X 999       0.119  -2.721  -0.683  1.00  0.00    -0.002 N 
HETATM    3  C2  LIG X 999       0.169  -3.761   0.360  1.00  0.00     0.287 C 
HETATM    4  C3  LIG X 999      -0.844  -1.700  -0.337  1.00  0.00     0.222 A 
HETATM    5  C4  LIG X 999      -0.256  -0.523  -0.184  1.00  0.00     0.003 A 
HETATM    6  C5  LIG X 999      -0.824   0.706   0.147  1.00  0.00     0.026 A 
HETATM    7  C6  LIG X 999       0.029   1.826   0.250  1.00  0.00    -0.023 A 
HETATM    8  C7  LIG X 999      -0.490   3.086   0.580  1.00  0.00     0.041 A 
HETATM    9  C8  LIG X 999       0.359   4.198   0.682  1.00  0.00     0.026 A 
HETATM   10  C9  LIG X 999       1.734   4.048   0.452  1.00  0.00     0.030 A 
HETATM   11  C10 LIG X 999       2.268   2.799   0.122  1.00  0.00     0.014 A 
HETATM   12  C11 LIG X 999       1.431   1.680   0.017  1.00  0.00    -0.025 A 
HETATM   13  C12 LIG X 999       1.964   0.417  -0.316  1.00  0.00     0.029 A 
HETATM   14  C13 LIG X 999       1.085  -0.662  -0.407  1.00  0.00     0.035 A 
HETATM   15  C14 LIG X 999       1.328  -1.929  -0.699  1.00  0.00     0.257 A 
ENDROOT
BRANCH   9  16
HETATM   16  N2  LIG X 999      -0.176   5.481   1.019  1.00  0.00    -0.399 N 
HETATM   17  H10 LIG X 999      -1.198   5.605   1.193  1.00  0.00     0.156 HD
HETATM   18  H11 LIG X 999       0.447   6.316   1.098  1.00  0.00     0.156 HD
ENDBRANCH   9  16
BRANCH  15  19
HETATM   19  O1  LIG X 999       2.595  -2.435  -0.985  1.00  0.00    -0.340 OA
HETATM   20  H15 LIG X 999       2.730  -3.414  -1.202  1.00  0.00     0.219 HD
ENDBRANCH  15  19
TORSDOF 2
