REMARK  8 active torsions:
REMARK  status: ('A' for Active; 'I' for Inactive)
REMARK    1  A    between atoms: N2_3  and  N3_4 
REMARK    2  A    between atoms: C1_5  and  C2_6 
REMARK    3  A    between atoms: C3_8  and  C4_9 
REMARK    4  A    between atoms: N4_19  and  C14_20 
REMARK    5  A    between atoms: C14_20  and  N5_22 
REMARK    6  A    between atoms: N5_22  and  C15_25 
REMARK    7  A    between atoms: C16_26  and  C17_27 
REMARK    8  A    between atoms: C17_27  and  O3_29 
ROOT
HETATM    1  C2  LIG X 999       2.821  -1.748  -1.973  1.00  0.00     0.259 C 
HETATM    2  O1  LIG X 999       1.766  -0.828  -1.767  1.00  0.00    -0.335 OA
HETATM    3  C3  LIG X 999       1.226  -1.126  -0.505  1.00  0.00     0.279 C 
HETATM    4  N4  LIG X 999       2.162  -2.024   0.143  1.00  0.00    -0.246 N 
HETATM    5  N6  LIG X 999       3.241  -2.316  -0.687  1.00  0.00    -0.200 NA
HETATM    6  H19 LIG X 999       4.057  -1.783  -0.303  1.00  0.00     0.150 HD
ENDROOT
BRANCH   4   7
HETATM    7  C14 LIG X 999       2.113  -2.454   1.524  1.00  0.00     0.293 C 
HETATM    8  S1  LIG X 999       3.354  -3.340   2.139  1.00  0.00    -0.032 SA
BRANCH   7   9
HETATM    9  N5  LIG X 999       0.959  -2.192   2.353  1.00  0.00     0.013 N 
HETATM   10  H12 LIG X 999       0.129  -2.568   1.849  1.00  0.00     0.293 HD
HETATM   11  H13 LIG X 999       1.035  -2.702   3.264  1.00  0.00     0.293 HD
BRANCH   9  12
HETATM   12  C15 LIG X 999       0.796  -0.786   2.644  1.00  0.00     0.164 A 
HETATM   13  C16 LIG X 999      -0.450  -0.154   2.792  1.00  0.00     0.114 A 
HETATM   14  S2  LIG X 999      -0.172   1.473   3.112  1.00  0.00    -0.094 SA
HETATM   15  C19 LIG X 999       1.504   1.400   3.119  1.00  0.00     0.053 A 
HETATM   16  C20 LIG X 999       1.881   0.090   2.868  1.00  0.00     0.046 A 
BRANCH  13  17
HETATM   17  C17 LIG X 999      -1.798  -0.750   2.758  1.00  0.00     0.302 C 
HETATM   18  O2  LIG X 999      -1.955  -1.998   2.834  1.00  0.00    -0.259 OA
BRANCH  17  19
HETATM   19  O3  LIG X 999      -2.911   0.093   2.681  1.00  0.00    -0.322 OA
HETATM   20  C18 LIG X 999      -4.247  -0.394   2.731  1.00  0.00     0.213 C 
ENDBRANCH  17  19
ENDBRANCH  13  17
ENDBRANCH   9  12
ENDBRANCH   7   9
ENDBRANCH   4   7
BRANCH   3  21
HETATM   21  C4  LIG X 999      -0.157  -1.740  -0.683  1.00  0.00     0.003 A 
HETATM   22  C5  LIG X 999      -0.265  -3.133  -0.872  1.00  0.00     0.012 A 
HETATM   23  C6  LIG X 999      -1.508  -3.747  -1.007  1.00  0.00     0.002 A 
HETATM   24  C7  LIG X 999      -2.673  -2.987  -0.986  1.00  0.00     0.012 A 
HETATM   25  C8  LIG X 999      -2.604  -1.594  -0.860  1.00  0.00    -0.025 A 
HETATM   26  C9  LIG X 999      -3.787  -0.838  -0.878  1.00  0.00     0.012 A 
HETATM   27  C13 LIG X 999      -1.343  -0.949  -0.728  1.00  0.00    -0.015 A 
HETATM   28  C10 LIG X 999      -3.736   0.551  -0.774  1.00  0.00     0.001 A 
HETATM   29  C11 LIG X 999      -2.507   1.199  -0.670  1.00  0.00     0.001 A 
HETATM   30  C12 LIG X 999      -1.320   0.464  -0.656  1.00  0.00     0.013 A 
ENDBRANCH   3  21
BRANCH   1  31
HETATM   31  C1  LIG X 999       3.952  -1.076  -2.700  1.00  0.00     0.164 C 
HETATM   32  N3  LIG X 999       3.745  -0.547  -3.862  1.00  0.00    -0.143 NA
BRANCH  32  33
HETATM   33  N2  LIG X 999       4.786   0.077  -4.559  1.00  0.00    -0.052 NA
HETATM   34  N1  LIG X 999       4.567   0.593  -5.698  1.00  0.00    -0.184 NA
HETATM   35  H1  LIG X 999       5.343   1.058  -6.218  1.00  0.00     0.214 HD
ENDBRANCH  32  33
ENDBRANCH   1  31
TORSDOF 8
