REMARK  1 active torsions:
REMARK  status: ('A' for Active; 'I' for Inactive)
REMARK    1  A    between atoms: C3_3  and  N1_4 
ROOT
HETATM    1  N1  LIG X 999      -1.256   3.522  -1.231  1.00  0.00    -0.072 NA
HETATM    2  N2  LIG X 999      -1.948   3.033  -2.124  1.00  0.00    -0.162 NA
HETATM    3  N3  LIG X 999      -2.640   2.548  -3.019  1.00  0.00     0.068 N 
ENDROOT
BRANCH   1   4
HETATM    4  C3  LIG X 999      -0.059   2.888  -0.757  1.00  0.00     0.104 A 
HETATM    5  C2  LIG X 999       1.065   3.699  -0.559  1.00  0.00     0.035 A 
HETATM    6  C1  LIG X 999       2.288   3.150  -0.173  1.00  0.00     0.003 A 
HETATM    7  C10 LIG X 999       2.408   1.778   0.035  1.00  0.00     0.012 A 
HETATM    8  C9  LIG X 999       1.294   0.941  -0.111  1.00  0.00    -0.023 A 
HETATM    9  C4  LIG X 999       0.031   1.494  -0.491  1.00  0.00     0.006 A 
HETATM   10  C8  LIG X 999       1.417  -0.439   0.143  1.00  0.00     0.021 A 
HETATM   11  C5  LIG X 999      -1.097   0.639  -0.542  1.00  0.00     0.024 A 
HETATM   12  C6  LIG X 999      -0.928  -0.723  -0.288  1.00  0.00    -0.023 A 
HETATM   13  C7  LIG X 999       0.285  -1.244   0.034  1.00  0.00    -0.024 A 
HETATM   14  C14 LIG X 999      -1.967  -1.775  -0.265  1.00  0.00     0.276 C 
HETATM   15  C11 LIG X 999       0.175  -2.694   0.299  1.00  0.00     0.276 C 
HETATM   16  N4  LIG X 999      -1.231  -3.063  -0.061  1.00  0.00    -0.067 N 
HETATM   17  C12 LIG X 999      -1.242  -3.857  -1.313  1.00  0.00     0.272 C 
HETATM   18  C13 LIG X 999      -1.856  -3.859   1.019  1.00  0.00     0.272 C 
ENDBRANCH   1   4
TORSDOF 1
