REMARK  1 active torsions:
REMARK  status: ('A' for Active; 'I' for Inactive)
REMARK    1  A    between atoms: C2_2  and  N1_3 
ROOT
HETATM    1  N1  LIG X 999       1.110  -5.240   2.393  1.00  0.00    -0.073 NA
HETATM    2  N2  LIG X 999       1.747  -5.877   3.233  1.00  0.00    -0.162 NA
HETATM    3  N3  LIG X 999       2.382  -6.514   4.071  1.00  0.00     0.068 N 
ENDROOT
BRANCH   1   4
HETATM    4  C2  LIG X 999       1.191  -3.812   2.288  1.00  0.00     0.094 A 
HETATM    5  C1  LIG X 999       2.009  -3.053   3.147  1.00  0.00     0.035 A 
HETATM    6  C10 LIG X 999       2.069  -1.663   3.023  1.00  0.00     0.014 A 
HETATM    7  C9  LIG X 999       1.314  -1.008   2.041  1.00  0.00    -0.025 A 
HETATM    8  C4  LIG X 999       0.485  -1.770   1.169  1.00  0.00    -0.023 A 
HETATM    9  C8  LIG X 999       1.367   0.394   1.911  1.00  0.00     0.021 A 
HETATM   10  C3  LIG X 999       0.433  -3.165   1.304  1.00  0.00     0.046 A 
HETATM   11  C5  LIG X 999      -0.278  -1.116   0.181  1.00  0.00     0.021 A 
HETATM   12  C6  LIG X 999      -0.193   0.273   0.081  1.00  0.00    -0.024 A 
HETATM   13  C7  LIG X 999       0.601   1.001   0.915  1.00  0.00    -0.024 A 
HETATM   14  C14 LIG X 999      -0.914   1.161  -0.856  1.00  0.00     0.276 C 
HETATM   15  C11 LIG X 999       0.484   2.444   0.613  1.00  0.00     0.276 C 
HETATM   16  N4  LIG X 999      -0.357   2.531  -0.623  1.00  0.00    -0.067 N 
HETATM   17  C12 LIG X 999      -1.449   3.516  -0.444  1.00  0.00     0.272 C 
HETATM   18  C13 LIG X 999       0.478   2.943  -1.776  1.00  0.00     0.272 C 
ENDBRANCH   1   4
TORSDOF 1
