REMARK  6 active torsions:
REMARK  status: ('A' for Active; 'I' for Inactive)
REMARK    1  A    between atoms: C3_3  and  C4_4 
REMARK    2  A    between atoms: C4_4  and  C5_5 
REMARK    3  A    between atoms: C5_5  and  S1_6 
REMARK    4  A    between atoms: S1_6  and  C6_7 
REMARK    5  A    between atoms: N3_19  and  C16_20 
REMARK    6  A    between atoms: C16_20  and  C17_21 
ROOT
HETATM    1  C1  LIG X 999      -2.556  -0.266  -2.376  1.00  0.00     0.072 C 
HETATM    2  C2  LIG X 999      -1.302  -0.606  -3.123  1.00  0.00     0.047 A 
HETATM    3  C3  LIG X 999      -0.609  -1.805  -3.108  1.00  0.00     0.048 A 
HETATM    4  N1  LIG X 999       0.532  -1.613  -3.796  1.00  0.00    -0.286 N 
HETATM    5  N2  LIG X 999       0.560  -0.355  -4.207  1.00  0.00    -0.020 NA
HETATM    6  N3  LIG X 999      -0.541   0.269  -3.818  1.00  0.00    -0.271 N 
HETATM    7  H15 LIG X 999       1.299  -2.305  -3.951  1.00  0.00     0.184 HD
ENDROOT
BRANCH   3   8
HETATM    8  C4  LIG X 999      -0.941  -3.063  -2.356  1.00  0.00     0.071 C 
BRANCH   8   9
HETATM    9  C5  LIG X 999      -0.768  -2.892  -0.844  1.00  0.00     0.085 C 
BRANCH   9  10
HETATM   10  S1  LIG X 999       0.933  -2.373  -0.422  1.00  0.00    -0.129 SA
BRANCH  10  11
HETATM   11  C6  LIG X 999       0.571  -2.188   1.333  1.00  0.00     0.011 A 
HETATM   12  C7  LIG X 999       0.854  -3.269   2.177  1.00  0.00     0.019 A 
HETATM   13  C8  LIG X 999       0.601  -3.187   3.546  1.00  0.00     0.002 A 
HETATM   14  C9  LIG X 999       0.058  -2.025   4.092  1.00  0.00     0.012 A 
HETATM   15  C10 LIG X 999      -0.239  -0.929   3.268  1.00  0.00    -0.025 A 
HETATM   16  C11 LIG X 999      -0.799   0.234   3.819  1.00  0.00     0.012 A 
HETATM   17  C15 LIG X 999       0.020  -1.001   1.873  1.00  0.00    -0.009 A 
HETATM   18  C12 LIG X 999      -1.115   1.318   2.999  1.00  0.00     0.001 A 
HETATM   19  C13 LIG X 999      -0.872   1.253   1.628  1.00  0.00     0.001 A 
HETATM   20  C14 LIG X 999      -0.298   0.110   1.065  1.00  0.00     0.013 A 
ENDBRANCH  10  11
ENDBRANCH   9  10
ENDBRANCH   8   9
ENDBRANCH   3   8
BRANCH   6  21
HETATM   21  C16 LIG X 999      -0.754   1.705  -3.980  1.00  0.00     0.229 C 
BRANCH  21  22
HETATM   22  C17 LIG X 999      -0.352   2.429  -2.734  1.00  0.00     0.185 A 
HETATM   23  N4  LIG X 999      -1.063   3.467  -2.214  1.00  0.00    -0.042 NA
HETATM   24  C18 LIG X 999      -0.301   3.784  -1.153  1.00  0.00     0.750 A 
HETATM   25  N5  LIG X 999      -0.563   4.761  -0.251  1.00  0.00    -0.073 NA
HETATM   26  N6  LIG X 999       0.777   3.008  -1.047  1.00  0.00    -0.069 N 
HETATM   27  C19 LIG X 999       0.308   4.944   0.786  1.00  0.00     0.138 A 
HETATM   28  C20 LIG X 999       1.453   4.129   0.912  1.00  0.00     0.040 A 
HETATM   29  C21 LIG X 999       1.680   3.132  -0.046  1.00  0.00     0.139 A 
HETATM   30  N7  LIG X 999       0.778   2.143  -2.038  1.00  0.00    -0.135 NA
ENDBRANCH  21  22
ENDBRANCH   6  21
TORSDOF 6
