REMARK  9 active torsions:
REMARK  status: ('A' for Active; 'I' for Inactive)
REMARK    1  A    between atoms: C6_6  and  C7_7 
REMARK    2  A    between atoms: C8_8  and  C9_9 
REMARK    3  A    between atoms: C9_9  and  O2_11 
REMARK    4  A    between atoms: O2_11  and  C10_12 
REMARK    5  A    between atoms: C10_12  and  C12_14 
REMARK    6  A    between atoms: C10_12  and  C15_17 
REMARK    7  A    between atoms: C12_14  and  C13_15 
REMARK    8  A    between atoms: C15_17  and  N1_18 
REMARK    9  A    between atoms: C16_22  and  N2_23 
ROOT
HETATM    1  N2  LIG X 999       4.983  -1.764   1.729  1.00  0.00    -0.105 NA
HETATM    2  N3  LIG X 999       4.451  -2.535   0.929  1.00  0.00    -0.167 NA
HETATM    3  N4  LIG X 999       3.921  -3.305   0.130  1.00  0.00     0.068 N 
ENDROOT
BRANCH   1   4
HETATM    4  C16 LIG X 999       4.198  -0.791   2.487  1.00  0.00     0.179 C 
HETATM    5  C4  LIG X 999       3.619   0.256   1.553  1.00  0.00    -0.023 A 
HETATM    6  C3  LIG X 999       4.242   1.516   1.377  1.00  0.00    -0.050 A 
HETATM    7  C5  LIG X 999       2.482  -0.063   0.790  1.00  0.00     0.030 A 
HETATM    8  C2  LIG X 999       3.702   2.431   0.458  1.00  0.00     0.009 A 
HETATM    9  C19 LIG X 999       5.396   1.961   2.245  1.00  0.00     0.039 C 
HETATM   10  C1  LIG X 999       2.575   2.099  -0.296  1.00  0.00     0.021 A 
HETATM   11  C6  LIG X 999       1.963   0.853  -0.131  1.00  0.00     0.018 A 
HETATM   12  C18 LIG X 999       6.105   0.796   2.942  1.00  0.00     0.007 C 
HETATM   13  C17 LIG X 999       5.085  -0.157   3.568  1.00  0.00     0.035 C 
BRANCH  11  14
HETATM   14  C7  LIG X 999       0.799   0.514  -0.907  1.00  0.00    -0.056 C 
HETATM   15  C8  LIG X 999      -0.176   0.228  -1.556  1.00  0.00     0.008 C 
BRANCH  15  16
HETATM   16  C9  LIG X 999      -1.337  -0.113  -2.324  1.00  0.00     0.340 C 
HETATM   17  O1  LIG X 999      -1.479   0.375  -3.476  1.00  0.00    -0.249 OA
BRANCH  16  18
HETATM   18  O2  LIG X 999      -2.291  -0.978  -1.769  1.00  0.00    -0.298 OA
BRANCH  18  19
HETATM   19  C10 LIG X 999      -3.509  -1.415  -2.395  1.00  0.00     0.091 C 
HETATM   20  C11 LIG X 999      -3.192  -2.159  -3.713  1.00  0.00     0.048 C 
BRANCH  19  21
HETATM   21  C12 LIG X 999      -4.437  -0.203  -2.707  1.00  0.00     0.039 C 
BRANCH  21  22
HETATM   22  C13 LIG X 999      -4.679   0.729  -1.506  1.00  0.00    -0.002 C 
HETATM   23  C14 LIG X 999      -5.460   1.972  -1.924  1.00  0.00     0.005 C 
ENDBRANCH  21  22
ENDBRANCH  19  21
BRANCH  19  24
HETATM   24  C15 LIG X 999      -4.226  -2.384  -1.411  1.00  0.00     0.267 C 
BRANCH  24  25
HETATM   25  N1  LIG X 999      -3.450  -3.597  -1.135  1.00  0.00    -0.076 N 
HETATM   26  H16 LIG X 999      -3.892  -4.108  -0.337  1.00  0.00     0.274 HD
HETATM   27  H17 LIG X 999      -3.454  -4.231  -1.966  1.00  0.00     0.274 HD
HETATM   28  H18 LIG X 999      -2.467  -3.358  -0.871  1.00  0.00     0.274 HD
ENDBRANCH  24  25
ENDBRANCH  19  24
ENDBRANCH  18  19
ENDBRANCH  16  18
ENDBRANCH  15  16
ENDBRANCH  11  14
ENDBRANCH   1   4
TORSDOF 9
