REMARK  3 active torsions:
REMARK  status: ('A' for Active; 'I' for Inactive)
REMARK    1  A    between atoms: C3_3  and  S1_4 
REMARK    2  A    between atoms: S1_4  and  C4_7 
REMARK    3  A    between atoms: C6_9  and  N1_10 
ROOT
HETATM    1  C1  LIG X 999      -2.234   0.520   4.116  1.00  0.00     0.013 C 
HETATM    2  C2  LIG X 999      -1.215   0.764   3.520  1.00  0.00    -0.102 C 
HETATM    3  C3  LIG X 999       0.021   1.061   2.793  1.00  0.00     0.233 C 
ENDROOT
BRANCH   3   4
HETATM    4  S1  LIG X 999       0.584  -0.380   1.899  1.00  0.00     0.160 S 
HETATM    5  O1  LIG X 999       1.748   0.027   1.040  1.00  0.00    -0.227 OA
HETATM    6  O2  LIG X 999       1.058  -1.392   2.904  1.00  0.00    -0.227 OA
BRANCH   4   7
HETATM    7  C4  LIG X 999      -0.728  -1.117   0.885  1.00  0.00     0.123 C 
HETATM    8  C5  LIG X 999      -0.413  -2.581   0.527  1.00  0.00     0.055 C 
HETATM    9  C6  LIG X 999       0.799  -2.710  -0.418  1.00  0.00     0.170 C 
HETATM   10  C7  LIG X 999       0.865  -1.635  -1.479  1.00  0.00     0.011 C 
HETATM   11  C8  LIG X 999       0.142  -0.505  -1.424  1.00  0.00    -0.050 C 
HETATM   12  C9  LIG X 999       0.431   0.603  -2.364  1.00  0.00     0.017 C 
HETATM   13  C13 LIG X 999      -1.007  -0.352  -0.427  1.00  0.00     0.060 C 
HETATM   14  C10 LIG X 999      -0.112   1.796  -2.127  1.00  0.00    -0.024 C 
HETATM   15  C11 LIG X 999      -0.988   2.047  -1.024  1.00  0.00    -0.027 C 
HETATM   16  C17 LIG X 999       0.089   3.051  -2.886  1.00  0.00     0.276 C 
HETATM   17  C12 LIG X 999      -1.402   1.092  -0.188  1.00  0.00    -0.007 C 
HETATM   18  C14 LIG X 999      -1.369   3.478  -1.016  1.00  0.00     0.275 C 
HETATM   19  N4  LIG X 999      -0.500   4.139  -2.042  1.00  0.00    -0.067 N 
HETATM   20  C15 LIG X 999       0.585   4.894  -1.368  1.00  0.00     0.272 C 
HETATM   21  C16 LIG X 999      -1.291   5.075  -2.873  1.00  0.00     0.272 C 
BRANCH   9  22
HETATM   22  N1  LIG X 999       0.773  -4.018  -1.065  1.00  0.00    -0.106 NA
HETATM   23  N2  LIG X 999       1.701  -4.815  -0.928  1.00  0.00    -0.167 NA
HETATM   24  N3  LIG X 999       2.628  -5.612  -0.793  1.00  0.00     0.068 N 
ENDBRANCH   9  22
ENDBRANCH   4   7
ENDBRANCH   3   4
TORSDOF 3
