REMARK  3 active torsions:
REMARK  status: ('A' for Active; 'I' for Inactive)
REMARK    1  A    between atoms: C3_3  and  S1_4 
REMARK    2  A    between atoms: S1_4  and  C4_5 
REMARK    3  A    between atoms: C8_9  and  N1_10 
ROOT
HETATM    1  C1  LIG X 999      -4.220   1.647  -1.435  1.00  0.00     0.013 C 
HETATM    2  C2  LIG X 999      -3.912   0.561  -1.009  1.00  0.00    -0.107 C 
HETATM    3  C3  LIG X 999      -3.535  -0.756  -0.492  1.00  0.00     0.172 C 
ENDROOT
BRANCH   3   4
HETATM    4  S1  LIG X 999      -3.032  -0.629   1.257  1.00  0.00    -0.117 SA
BRANCH   4   5
HETATM    5  C4  LIG X 999      -1.416   0.079   0.901  1.00  0.00     0.015 A 
HETATM    6  C5  LIG X 999      -1.291   1.499   0.884  1.00  0.00     0.020 A 
HETATM    7  C6  LIG X 999      -0.051   2.122   0.608  1.00  0.00     0.018 A 
HETATM    8  C7  LIG X 999       1.041   1.294   0.360  1.00  0.00     0.026 A 
HETATM    9  C8  LIG X 999       2.375   1.524   0.060  1.00  0.00     0.175 A 
HETATM   10  C10 LIG X 999       0.907  -0.053   0.388  1.00  0.00     0.019 A 
HETATM   11  N4  LIG X 999       3.037   0.341  -0.091  1.00  0.00    -0.337 N 
HETATM   12  H6  LIG X 999       4.046   0.201  -0.318  1.00  0.00     0.167 HD
HETATM   13  C9  LIG X 999       2.109  -0.620   0.116  1.00  0.00     0.046 A 
HETATM   14  C14 LIG X 999       2.260  -2.082   0.078  1.00  0.00     0.033 A 
HETATM   15  C13 LIG X 999       1.171  -2.844   0.323  1.00  0.00     0.034 A 
HETATM   16  C12 LIG X 999      -0.165  -2.220   0.626  1.00  0.00     0.060 A 
HETATM   17  C11 LIG X 999      -0.269  -0.727   0.650  1.00  0.00     0.022 A 
HETATM   18  N5  LIG X 999      -1.193  -2.970   0.864  1.00  0.00    -0.299 NA
HETATM   19  H7  LIG X 999      -1.133  -4.012   0.851  1.00  0.00     0.187 HD
BRANCH   9  20
HETATM   20  N1  LIG X 999       2.977   2.813  -0.073  1.00  0.00    -0.053 NA
HETATM   21  N2  LIG X 999       4.172   2.933  -0.342  1.00  0.00    -0.160 NA
HETATM   22  N3  LIG X 999       5.366   3.055  -0.610  1.00  0.00     0.068 N 
ENDBRANCH   9  20
ENDBRANCH   4   5
ENDBRANCH   3   4
TORSDOF 3
