REMARK  3 active torsions:
REMARK  status: ('A' for Active; 'I' for Inactive)
REMARK    1  A    between atoms: C1_1  and  C2_6 
REMARK    2  A    between atoms: N1_2  and  N2_3 
REMARK    3  A    between atoms: C2_6  and  C3_8 
ROOT
HETATM    1  C3  LIG X 999      -0.413  -0.540  -0.733  1.00  0.00     0.016 A 
HETATM    2  C4  LIG X 999      -1.781  -0.221  -0.636  1.00  0.00     0.016 A 
HETATM    3  C5  LIG X 999      -2.390  -0.065   0.611  1.00  0.00     0.013 A 
HETATM    4  C6  LIG X 999      -1.644  -0.219   1.787  1.00  0.00    -0.026 A 
HETATM    5  C7  LIG X 999      -2.249  -0.065   3.044  1.00  0.00     0.012 A 
HETATM    6  C8  LIG X 999      -1.492  -0.218   4.210  1.00  0.00     0.001 A 
HETATM    7  C9  LIG X 999      -0.131  -0.524   4.129  1.00  0.00     0.001 A 
HETATM    8  C10 LIG X 999       0.482  -0.680   2.883  1.00  0.00     0.012 A 
HETATM    9  C11 LIG X 999      -0.266  -0.529   1.704  1.00  0.00    -0.025 A 
HETATM   10  C12 LIG X 999       0.339  -0.683   0.448  1.00  0.00     0.028 A 
ENDROOT
BRANCH   1  11
HETATM   11  C2  LIG X 999       0.249  -0.702  -2.052  1.00  0.00     0.201 C 
HETATM   12  O1  LIG X 999       1.494  -0.517  -2.145  1.00  0.00    -0.286 OA
BRANCH  11  13
HETATM   13  C1  LIG X 999      -0.502  -1.098  -3.257  1.00  0.00     0.195 C 
HETATM   14  N1  LIG X 999       0.086  -1.127  -4.412  1.00  0.00    -0.164 NA
BRANCH  14  15
HETATM   15  N2  LIG X 999      -0.594  -1.512  -5.577  1.00  0.00    -0.177 N 
HETATM   16  H2  LIG X 999      -1.601  -1.787  -5.546  1.00  0.00     0.214 HD
HETATM   17  N3  LIG X 999       0.021  -1.526  -6.687  1.00  0.00    -0.031 N 
ENDBRANCH  14  15
ENDBRANCH  11  13
ENDBRANCH   1  11
TORSDOF 3
