REMARK  4 active torsions:
REMARK  status: ('A' for Active; 'I' for Inactive)
REMARK    1  A    between atoms: O1_2  and  C1_3 
REMARK    2  A    between atoms: C1_3  and  C3_8 
REMARK    3  A    between atoms: C2_4  and  N1_5 
REMARK    4  A    between atoms: C11_16  and  N4_17 
ROOT
HETATM    1  N1  LIG X 999       1.000  -2.492   3.484  1.00  0.00    -0.082 NA
HETATM    2  N2  LIG X 999       2.114  -2.657   3.980  1.00  0.00    -0.163 NA
HETATM    3  N3  LIG X 999       3.227  -2.822   4.476  1.00  0.00     0.068 N 
ENDROOT
BRANCH   1   4
HETATM    4  C2  LIG X 999       0.785  -1.478   2.503  1.00  0.00     0.188 C 
HETATM    5  C1  LIG X 999      -0.428  -1.302   1.965  1.00  0.00     0.068 C 
BRANCH   5   6
HETATM    6  O1  LIG X 999      -1.474  -2.128   2.377  1.00  0.00    -0.363 OA
HETATM    7  H1  LIG X 999      -2.408  -2.036   1.996  1.00  0.00     0.217 HD
ENDBRANCH   5   6
BRANCH   5   8
HETATM    8  C3  LIG X 999      -0.689  -0.235   0.918  1.00  0.00     0.050 C 
HETATM    9  C4  LIG X 999       0.082  -0.520  -0.382  1.00  0.00     0.050 C 
HETATM   10  C5  LIG X 999      -0.025   0.610  -1.379  1.00  0.00    -0.049 A 
HETATM   11  C6  LIG X 999       0.327   0.364  -2.716  1.00  0.00     0.007 A 
HETATM   12  C10 LIG X 999      -0.362   1.929  -0.980  1.00  0.00    -0.024 A 
HETATM   13  C7  LIG X 999       0.317   1.397  -3.655  1.00  0.00     0.001 A 
HETATM   14  C8  LIG X 999      -0.033   2.691  -3.268  1.00  0.00     0.001 A 
HETATM   15  C9  LIG X 999      -0.374   2.956  -1.940  1.00  0.00     0.010 A 
HETATM   16  C11 LIG X 999      -0.805   2.248   0.432  1.00  0.00     0.179 C 
HETATM   17  C12 LIG X 999      -0.350   1.173   1.438  1.00  0.00     0.046 C 
BRANCH  16  18
HETATM   18  N4  LIG X 999      -2.259   2.386   0.448  1.00  0.00    -0.105 NA
HETATM   19  N5  LIG X 999      -2.849   2.818   1.439  1.00  0.00    -0.167 NA
HETATM   20  N6  LIG X 999      -3.438   3.250   2.429  1.00  0.00     0.068 N 
ENDBRANCH  16  18
ENDBRANCH   5   8
ENDBRANCH   1   4
TORSDOF 4
