REMARK  2 active torsions:
REMARK  status: ('A' for Active; 'I' for Inactive)
REMARK    1  A    between atoms: C4_4  and  O1_5 
REMARK    2  A    between atoms: C10_11  and  N1_12 
ROOT
HETATM    1  N1  LIG X 999       1.831  -1.154   0.064  1.00  0.00    -0.072 NA
HETATM    2  N2  LIG X 999       2.547  -2.124  -0.188  1.00  0.00    -0.162 NA
HETATM    3  N3  LIG X 999       3.264  -3.091  -0.439  1.00  0.00     0.068 N 
ENDROOT
BRANCH   1   4
HETATM    4  C10 LIG X 999       0.460  -1.074  -0.359  1.00  0.00     0.101 C 
HETATM    5  C9  LIG X 999      -0.222   0.143  -0.185  1.00  0.00     0.007 C 
HETATM    6  C8  LIG X 999      -1.585   0.312   0.004  1.00  0.00    -0.022 C 
HETATM    7  C12 LIG X 999       0.441   1.475  -0.214  1.00  0.00     0.278 C 
HETATM    8  C7  LIG X 999      -2.523  -0.660   0.396  1.00  0.00     0.012 C 
HETATM    9  C15 LIG X 999      -1.924   1.745  -0.167  1.00  0.00     0.276 C 
HETATM   10  C6  LIG X 999      -2.179  -1.846   1.055  1.00  0.00     0.037 C 
HETATM   11  C4  LIG X 999      -1.080  -1.937   1.923  1.00  0.00     0.068 C 
HETATM   12  C3  LIG X 999      -0.261  -3.082   1.939  1.00  0.00     0.037 C 
HETATM   13  C2  LIG X 999       0.018  -3.880   0.815  1.00  0.00     0.003 C 
HETATM   14  C1  LIG X 999      -0.124  -3.489  -0.529  1.00  0.00     0.002 C 
HETATM   15  C11 LIG X 999      -0.177  -2.164  -0.987  1.00  0.00     0.035 C 
HETATM   16  N4  LIG X 999      -0.640   2.484  -0.006  1.00  0.00    -0.067 N 
HETATM   17  C13 LIG X 999      -0.549   3.048   1.363  1.00  0.00     0.272 C 
HETATM   18  C14 LIG X 999      -0.538   3.583  -0.992  1.00  0.00     0.272 C 
BRANCH  11  19
HETATM   19  O1  LIG X 999      -0.821  -0.846   2.769  1.00  0.00    -0.356 OA
HETATM   20  C5  LIG X 999       0.327  -0.730   3.603  1.00  0.00     0.210 C 
ENDBRANCH  11  19
ENDBRANCH   1   4
TORSDOF 2
