REMARK  8 active torsions:
REMARK  status: ('A' for Active; 'I' for Inactive)
REMARK    1  A    between atoms: C6_6  and  O1_7 
REMARK    2  A    between atoms: O1_7  and  C7_8 
REMARK    3  A    between atoms: C7_8  and  C8_9 
REMARK    4  A    between atoms: C13_14  and  N1_15 
REMARK    5  A    between atoms: C15_17  and  C16_18 
REMARK    6  A    between atoms: C16_18  and  C17_19 
REMARK    7  A    between atoms: C17_19  and  S1_20 
REMARK    8  A    between atoms: S1_20  and  C18_21 
ROOT
HETATM    1  N1  LIG X 999      -1.319  -1.517   2.584  1.00  0.00    -0.247 N 
HETATM    2  C14 LIG X 999      -0.065  -1.675   3.031  1.00  0.00     0.143 A 
HETATM    3  C15 LIG X 999       0.323  -0.446   3.517  1.00  0.00     0.070 A 
HETATM    4  N2  LIG X 999      -0.700   0.415   3.366  1.00  0.00    -0.163 NA
HETATM    5  N3  LIG X 999      -1.691  -0.268   2.813  1.00  0.00     0.009 NA
ENDROOT
BRANCH   1   6
HETATM    6  C13 LIG X 999      -2.120  -2.513   1.931  1.00  0.00     0.062 A 
HETATM    7  C8  LIG X 999      -2.683  -2.305   0.641  1.00  0.00    -0.006 A 
HETATM    8  C9  LIG X 999      -3.417  -3.345   0.042  1.00  0.00     0.012 A 
HETATM    9  C10 LIG X 999      -3.595  -4.566   0.698  1.00  0.00     0.001 A 
HETATM   10  C11 LIG X 999      -3.030  -4.773   1.955  1.00  0.00     0.002 A 
HETATM   11  C12 LIG X 999      -2.294  -3.755   2.567  1.00  0.00     0.032 A 
BRANCH   7  12
HETATM   12  C7  LIG X 999      -2.454  -1.045  -0.166  1.00  0.00     0.209 C 
BRANCH  12  13
HETATM   13  O1  LIG X 999      -1.553  -1.282  -1.231  1.00  0.00    -0.381 OA
BRANCH  13  14
HETATM   14  C6  LIG X 999      -0.201  -1.114  -0.829  1.00  0.00     0.122 C 
HETATM   15  C5  LIG X 999       0.694  -2.007  -1.701  1.00  0.00     0.032 C 
HETATM   16  C4  LIG X 999       0.736  -1.527  -3.155  1.00  0.00     0.003 C 
HETATM   17  C3  LIG X 999       1.210  -0.070  -3.246  1.00  0.00     0.004 C 
HETATM   18  C2  LIG X 999       0.361   0.881  -2.381  1.00  0.00    -0.016 C 
HETATM   19  C1  LIG X 999      -1.007   1.178  -3.011  1.00  0.00     0.010 C 
HETATM   20  C28 LIG X 999       0.250   0.363  -0.932  1.00  0.00     0.036 C 
ENDBRANCH  13  14
ENDBRANCH  12  13
ENDBRANCH   7  12
ENDBRANCH   1   6
BRANCH   3  21
HETATM   21  C16 LIG X 999       1.720  -0.040   3.875  1.00  0.00     0.073 C 
BRANCH  21  22
HETATM   22  C17 LIG X 999       2.603  -0.060   2.628  1.00  0.00     0.085 C 
BRANCH  22  23
HETATM   23  S1  LIG X 999       4.121   0.923   2.883  1.00  0.00    -0.129 SA
BRANCH  23  24
HETATM   24  C18 LIG X 999       3.580   2.291   1.838  1.00  0.00     0.011 A 
HETATM   25  C19 LIG X 999       2.932   3.374   2.447  1.00  0.00     0.019 A 
HETATM   26  C20 LIG X 999       2.464   4.444   1.683  1.00  0.00     0.002 A 
HETATM   27  C21 LIG X 999       2.640   4.448   0.298  1.00  0.00     0.012 A 
HETATM   28  C22 LIG X 999       3.286   3.376  -0.335  1.00  0.00    -0.025 A 
HETATM   29  C23 LIG X 999       3.456   3.379  -1.728  1.00  0.00     0.012 A 
HETATM   30  C27 LIG X 999       3.764   2.281   0.434  1.00  0.00    -0.009 A 
HETATM   31  C24 LIG X 999       4.090   2.310  -2.361  1.00  0.00     0.001 A 
HETATM   32  C25 LIG X 999       4.558   1.229  -1.613  1.00  0.00     0.001 A 
HETATM   33  C26 LIG X 999       4.399   1.210  -0.228  1.00  0.00     0.013 A 
ENDBRANCH  23  24
ENDBRANCH  22  23
ENDBRANCH  21  22
ENDBRANCH   3  21
TORSDOF 8
