REMARK  1 active torsions:
REMARK  status: ('A' for Active; 'I' for Inactive)
REMARK    1  A    between atoms: C6_7  and  N1_8 
ROOT
HETATM    1  N1  LIG X 999      -2.714   0.263  -0.253  1.00  0.00    -0.068 NA
HETATM    2  N2  LIG X 999      -3.708  -0.162  -0.845  1.00  0.00    -0.162 NA
HETATM    3  N3  LIG X 999      -4.704  -0.583  -1.431  1.00  0.00     0.068 N 
ENDROOT
BRANCH   1   4
HETATM    4  C6  LIG X 999      -1.370  -0.160  -0.547  1.00  0.00     0.152 A 
HETATM    5  C5  LIG X 999      -0.315   0.401   0.201  1.00  0.00     0.079 A 
HETATM    6  C4  LIG X 999       1.022   0.017  -0.051  1.00  0.00    -0.002 A 
HETATM    7 CL1  LIG X 999      -0.703   1.590   1.453  1.00  0.00    -0.081 Cl
HETATM    8  C3  LIG X 999       2.102   0.558   0.678  1.00  0.00     0.014 A 
HETATM    9  C9  LIG X 999       1.293  -0.939  -1.063  1.00  0.00    -0.021 A 
HETATM   10  C2  LIG X 999       3.413   0.158   0.406  1.00  0.00     0.001 A 
HETATM   11  C1  LIG X 999       3.669  -0.782  -0.592  1.00  0.00     0.001 A 
HETATM   12  C10 LIG X 999       2.616  -1.330  -1.325  1.00  0.00     0.012 A 
HETATM   13  C8  LIG X 999       0.240  -1.491  -1.800  1.00  0.00     0.055 A 
HETATM   14  C7  LIG X 999      -1.079  -1.111  -1.551  1.00  0.00     0.141 A 
HETATM   15  O1  LIG X 999      -2.088  -1.690  -2.313  1.00  0.00    -0.189 OA
ENDBRANCH   1   4
TORSDOF 1
