REMARK  5 active torsions:
REMARK  status: ('A' for Active; 'I' for Inactive)
REMARK    1  A    between atoms: O1_2  and  C1_3 
REMARK    2  A    between atoms: C1_3  and  C15_22 
REMARK    3  A    between atoms: N1_4  and  C2_5 
REMARK    4  A    between atoms: C3_6  and  O2_7 
REMARK    5  A    between atoms: O2_7  and  C4_8 
REMARK       I    between atoms: C4_8  and  N2_10 
ROOT
HETATM    1  C2  LIG X 999       0.152   0.198   0.661  1.00  0.00     0.104 A 
HETATM    2  C3  LIG X 999       0.912   1.380   0.674  1.00  0.00     0.110 A 
HETATM    3  C7  LIG X 999       1.606   1.750   1.839  1.00  0.00     0.041 A 
HETATM    4  C8  LIG X 999       1.578   0.935   2.969  1.00  0.00     0.015 A 
HETATM    5  C9  LIG X 999       0.865  -0.270   2.956  1.00  0.00    -0.024 A 
HETATM    6  C10 LIG X 999       0.862  -1.099   4.089  1.00  0.00     0.012 A 
HETATM    7  C11 LIG X 999       0.170  -2.311   4.070  1.00  0.00     0.001 A 
HETATM    8  C12 LIG X 999      -0.518  -2.709   2.923  1.00  0.00     0.001 A 
HETATM    9  C13 LIG X 999      -0.527  -1.893   1.789  1.00  0.00     0.014 A 
HETATM   10  C14 LIG X 999       0.149  -0.655   1.793  1.00  0.00     0.006 A 
ENDROOT
BRANCH   1  11
HETATM   11  N1  LIG X 999      -0.576  -0.130  -0.531  1.00  0.00    -0.221 NA
HETATM   12  C1  LIG X 999      -1.874  -0.160  -0.600  1.00  0.00     0.176 C 
BRANCH  12  13
HETATM   13  O1  LIG X 999      -2.641   0.163   0.522  1.00  0.00    -0.344 OA
HETATM   14  H1  LIG X 999      -3.652   0.150   0.507  1.00  0.00     0.219 HD
ENDBRANCH  12  13
BRANCH  12  15
HETATM   15  C15 LIG X 999      -2.517  -0.528  -1.875  1.00  0.00     0.053 A 
HETATM   16  C16 LIG X 999      -1.885  -0.854  -3.063  1.00  0.00     0.156 A 
HETATM   17  N3  LIG X 999      -2.813  -1.117  -4.004  1.00  0.00    -0.185 NA
HETATM   18  N4  LIG X 999      -4.003  -0.981  -3.440  1.00  0.00    -0.285 N 
HETATM   19  C17 LIG X 999      -5.262  -1.120  -4.157  1.00  0.00     0.179 C 
HETATM   20  C18 LIG X 999      -3.868  -0.612  -2.153  1.00  0.00     0.129 A 
ENDBRANCH  12  15
ENDBRANCH   1  11
BRANCH   2  21
HETATM   21  O2  LIG X 999       0.911   2.190  -0.472  1.00  0.00    -0.254 OA
BRANCH  21  22
HETATM   22  C4  LIG X 999       1.965   3.021  -0.878  1.00  0.00     0.461 C 
HETATM   23  O3  LIG X 999       3.126   2.861  -0.406  1.00  0.00    -0.230 OA
HETATM   24  N2  LIG X 999       1.727   4.011  -1.899  1.00  0.00     0.009 N 
HETATM   25  H2  LIG X 999       0.702   4.031  -2.114  1.00  0.00     0.292 HD
HETATM   26  C5  LIG X 999       2.449   3.654  -3.130  1.00  0.00     0.282 C 
HETATM   27  C6  LIG X 999       2.123   5.346  -1.425  1.00  0.00     0.282 C 
ENDBRANCH  21  22
ENDBRANCH   2  21
TORSDOF 5
