REMARK  2 active torsions:
REMARK  status: ('A' for Active; 'I' for Inactive)
REMARK    1  A    between atoms: C1_1  and  N1_2 
REMARK    2  A    between atoms: C2_5  and  C3_7 
ROOT
HETATM    1  N1  LIG X 999      -3.683  -2.950  -2.349  1.00  0.00    -0.082 NA
HETATM    2  N2  LIG X 999      -4.841  -2.559  -2.501  1.00  0.00    -0.163 NA
HETATM    3  N3  LIG X 999      -5.997  -2.169  -2.652  1.00  0.00     0.068 N 
ENDROOT
BRANCH   1   4
HETATM    4  C1  LIG X 999      -2.826  -2.327  -1.393  1.00  0.00     0.196 C 
HETATM    5  C2  LIG X 999      -1.573  -2.767  -1.223  1.00  0.00     0.137 C 
HETATM    6  O1  LIG X 999      -1.134  -3.855  -1.972  1.00  0.00    -0.190 OA
BRANCH   5   7
HETATM    7  C3  LIG X 999      -0.641  -2.149  -0.244  1.00  0.00     0.003 A 
HETATM    8  C4  LIG X 999       0.367  -2.938   0.336  1.00  0.00     0.015 A 
HETATM    9  C5  LIG X 999       1.266  -2.390   1.253  1.00  0.00     0.013 A 
HETATM   10  C6  LIG X 999       1.182  -1.036   1.601  1.00  0.00    -0.026 A 
HETATM   11  C7  LIG X 999       2.082  -0.475   2.521  1.00  0.00     0.012 A 
HETATM   12  C11 LIG X 999       0.182  -0.224   1.015  1.00  0.00    -0.025 A 
HETATM   13  C8  LIG X 999       1.991   0.879   2.855  1.00  0.00     0.001 A 
HETATM   14  C9  LIG X 999       1.006   1.682   2.275  1.00  0.00     0.001 A 
HETATM   15  C10 LIG X 999       0.104   1.136   1.357  1.00  0.00     0.012 A 
HETATM   16  C12 LIG X 999      -0.719  -0.783   0.095  1.00  0.00     0.026 A 
ENDBRANCH   5   7
ENDBRANCH   1   4
TORSDOF 2
