REMARK  4 active torsions:
REMARK  status: ('A' for Active; 'I' for Inactive)
REMARK    1  A    between atoms: C3_3  and  O1_4 
REMARK    2  A    between atoms: O1_4  and  C4_5 
REMARK    3  A    between atoms: C9_12  and  N2_13 
REMARK    4  A    between atoms: C11_17  and  C12_18 
ROOT
HETATM    1  C1  LIG X 999       1.188   3.387   4.854  1.00  0.00     0.014 C 
HETATM    2  C2  LIG X 999       0.878   3.015   3.749  1.00  0.00    -0.091 C 
HETATM    3  C3  LIG X 999       0.502   2.564   2.410  1.00  0.00     0.268 C 
ENDROOT
BRANCH   3   4
HETATM    4  O1  LIG X 999       1.068   1.279   2.174  1.00  0.00    -0.339 OA
BRANCH   4   5
HETATM    5  C4  LIG X 999       0.916   0.537   0.990  1.00  0.00     0.085 A 
HETATM    6  C5  LIG X 999       0.147   1.050  -0.102  1.00  0.00     0.052 A 
HETATM    7  C6  LIG X 999      -0.001   0.301  -1.286  1.00  0.00     0.008 A 
HETATM    8  C7  LIG X 999       0.625  -0.924  -1.324  1.00  0.00     0.018 A 
HETATM    9  C15 LIG X 999      -0.765   0.684  -2.515  1.00  0.00     0.059 A 
HETATM   10  C8  LIG X 999       0.597  -1.785  -2.372  1.00  0.00     0.046 A 
HETATM   11  C10 LIG X 999       1.366  -1.456  -0.316  1.00  0.00     0.042 A 
HETATM   12  N1  LIG X 999       1.311  -2.889  -2.078  1.00  0.00    -0.337 N 
HETATM   13  C13 LIG X 999      -0.138  -1.458  -3.604  1.00  0.00     0.033 A 
HETATM   14  H5  LIG X 999       1.464  -3.717  -2.695  1.00  0.00     0.167 HD
HETATM   15  C9  LIG X 999       1.787  -2.694  -0.816  1.00  0.00     0.176 A 
HETATM   16  C14 LIG X 999      -0.788  -0.276  -3.667  1.00  0.00     0.034 A 
HETATM   17  C11 LIG X 999       1.544  -0.747   0.889  1.00  0.00     0.050 A 
HETATM   18  N5  LIG X 999      -1.402   1.808  -2.618  1.00  0.00    -0.300 NA
HETATM   19  H9  LIG X 999      -1.433   2.525  -1.862  1.00  0.00     0.187 HD
BRANCH  15  20
HETATM   20  N2  LIG X 999       2.601  -3.641  -0.122  1.00  0.00    -0.053 NA
HETATM   21  N3  LIG X 999       2.925  -4.710  -0.642  1.00  0.00    -0.160 NA
HETATM   22  N4  LIG X 999       3.248  -5.777  -1.160  1.00  0.00     0.068 N 
ENDBRANCH  15  20
BRANCH  17  23
HETATM   23  C12 LIG X 999       2.350  -1.314   1.998  1.00  0.00     0.273 C 
HETATM   24  O2  LIG X 999       2.515  -0.689   3.079  1.00  0.00    -0.301 OA
ENDBRANCH  17  23
ENDBRANCH   4   5
ENDBRANCH   3   4
TORSDOF 4
