REMARK  8 active torsions:
REMARK  status: ('A' for Active; 'I' for Inactive)
REMARK    1  A    between atoms: C3_3  and  S1_4 
REMARK    2  A    between atoms: S1_4  and  C4_7 
REMARK    3  A    between atoms: C9_14  and  O3_15 
REMARK    4  A    between atoms: O3_15  and  C10_16 
REMARK    5  A    between atoms: C10_16  and  C11_17 
REMARK    6  A    between atoms: C11_17  and  C12_18 
REMARK    7  A    between atoms: C12_18  and  N1_19 
REMARK    8  A    between atoms: C15_24  and  N4_25 
ROOT
HETATM    1  C1  LIG X 999       0.563   4.976  -3.844  1.00  0.00     0.013 C 
HETATM    2  C2  LIG X 999       0.419   3.956  -4.471  1.00  0.00    -0.102 C 
HETATM    3  C3  LIG X 999       0.240   2.716  -5.229  1.00  0.00     0.233 C 
ENDROOT
BRANCH   3   4
HETATM    4  S1  LIG X 999       1.314   1.440  -4.593  1.00  0.00     0.159 S 
HETATM    5  O1  LIG X 999       2.740   1.814  -4.888  1.00  0.00    -0.227 OA
HETATM    6  O2  LIG X 999       0.994   0.146  -5.288  1.00  0.00    -0.227 OA
BRANCH   4   7
HETATM    7  C4  LIG X 999       1.109   1.238  -2.819  1.00  0.00     0.116 C 
HETATM    8  C5  LIG X 999       2.124   0.221  -2.279  1.00  0.00     0.061 C 
HETATM    9  C6  LIG X 999       1.868  -0.176  -0.837  1.00  0.00    -0.025 A 
HETATM   10  C7  LIG X 999       2.873  -0.848  -0.105  1.00  0.00     0.065 A 
HETATM   11  C14 LIG X 999       0.596   0.020  -0.245  1.00  0.00    -0.020 A 
HETATM   12 CL1  LIG X 999       4.445  -1.186  -0.839  1.00  0.00    -0.082 Cl
HETATM   13  C8  LIG X 999       2.626  -1.269   1.214  1.00  0.00     0.089 A 
HETATM   14 CL2  LIG X 999       3.878  -2.095   2.141  1.00  0.00    -0.080 Cl
HETATM   15  C9  LIG X 999       1.378  -1.044   1.810  1.00  0.00     0.092 A 
HETATM   16  C13 LIG X 999       0.372  -0.397   1.075  1.00  0.00     0.048 A 
HETATM   17  C15 LIG X 999      -0.523   0.744  -0.964  1.00  0.00     0.180 C 
HETATM   18  C16 LIG X 999      -0.315   0.785  -2.483  1.00  0.00     0.055 C 
BRANCH  15  19
HETATM   19  O3  LIG X 999       1.182  -1.474   3.135  1.00  0.00    -0.349 OA
BRANCH  19  20
HETATM   20  C10 LIG X 999      -0.042  -1.393   3.865  1.00  0.00     0.177 C 
BRANCH  20  21
HETATM   21  C11 LIG X 999      -1.018  -2.483   3.405  1.00  0.00     0.051 C 
BRANCH  21  22
HETATM   22  C12 LIG X 999      -2.350  -2.405   4.156  1.00  0.00     0.191 C 
BRANCH  22  23
HETATM   23  N1  LIG X 999      -3.079  -1.204   3.769  1.00  0.00    -0.116 NA
HETATM   24  N2  LIG X 999      -3.375  -0.345   4.601  1.00  0.00    -0.168 NA
HETATM   25  N3  LIG X 999      -3.669   0.513   5.431  1.00  0.00     0.068 N 
ENDBRANCH  22  23
ENDBRANCH  21  22
ENDBRANCH  20  21
ENDBRANCH  19  20
ENDBRANCH  15  19
BRANCH  17  26
HETATM   26  N4  LIG X 999      -0.623   2.106  -0.444  1.00  0.00    -0.105 NA
HETATM   27  N5  LIG X 999      -1.624   2.482   0.167  1.00  0.00    -0.167 NA
HETATM   28  N6  LIG X 999      -2.624   2.858   0.777  1.00  0.00     0.068 N 
ENDBRANCH  17  26
ENDBRANCH   4   7
ENDBRANCH   3   4
TORSDOF 8
