REMARK  5 active torsions:
REMARK  status: ('A' for Active; 'I' for Inactive)
REMARK    1  A    between atoms: C3_3  and  C4_4 
REMARK    2  A    between atoms: C4_4  and  S1_5 
REMARK    3  A    between atoms: S1_5  and  C5_6 
REMARK    4  A    between atoms: C6_7  and  N1_8 
REMARK    5  A    between atoms: C10_12  and  N2_13 
ROOT
HETATM    1  C1  LIG X 999       4.115  -4.659   2.451  1.00  0.00     0.112 C 
HETATM    2  C2  LIG X 999       3.846  -3.368   1.819  1.00  0.00    -0.110 C 
HETATM    3  C3  LIG X 999       3.619  -2.307   1.293  1.00  0.00    -0.097 C 
ENDROOT
BRANCH   3   4
HETATM    4  C4  LIG X 999       3.333  -1.023   0.650  1.00  0.00     0.173 C 
BRANCH   4   5
HETATM    5  S1  LIG X 999       3.103  -1.247  -1.147  1.00  0.00    -0.115 SA
BRANCH   5   6
HETATM    6  C5  LIG X 999       1.460  -2.002  -1.006  1.00  0.00     0.038 A 
HETATM    7  C6  LIG X 999       1.341  -3.410  -0.990  1.00  0.00     0.043 A 
HETATM    8  C7  LIG X 999       0.083  -3.997  -0.836  1.00  0.00     0.031 A 
HETATM    9  C8  LIG X 999      -1.065  -3.218  -0.726  1.00  0.00     0.017 A 
HETATM   10  C9  LIG X 999      -0.994  -1.815  -0.788  1.00  0.00     0.002 A 
HETATM   11  C10 LIG X 999      -2.165  -1.001  -0.701  1.00  0.00     0.045 A 
HETATM   12  C14 LIG X 999       0.293  -1.197  -0.917  1.00  0.00    -0.004 A 
HETATM   13  C11 LIG X 999      -2.006   0.392  -0.722  1.00  0.00     0.003 A 
HETATM   14  C12 LIG X 999      -0.782   0.970  -0.837  1.00  0.00    -0.021 A 
HETATM   15  C18 LIG X 999      -3.054   1.440  -0.633  1.00  0.00     0.278 C 
HETATM   16  C13 LIG X 999       0.378   0.214  -0.941  1.00  0.00     0.023 A 
HETATM   17  C15 LIG X 999      -0.890   2.445  -0.822  1.00  0.00     0.276 C 
HETATM   18  N3  LIG X 999      -2.355   2.741  -0.875  1.00  0.00    -0.067 N 
HETATM   19  C16 LIG X 999      -2.727   3.736   0.157  1.00  0.00     0.272 C 
HETATM   20  C17 LIG X 999      -2.717   3.272  -2.211  1.00  0.00     0.272 C 
BRANCH   7  21
HETATM   21  N1  LIG X 999       2.484  -4.266  -1.130  1.00  0.00    -0.398 N 
HETATM   22  H6  LIG X 999       3.444  -3.897  -1.304  1.00  0.00     0.156 HD
HETATM   23  H7  LIG X 999       2.377  -5.304  -1.084  1.00  0.00     0.156 HD
ENDBRANCH   7  21
BRANCH  11  24
HETATM   24  N2  LIG X 999      -3.488  -1.555  -0.608  1.00  0.00    -0.398 N 
HETATM   25  H10 LIG X 999      -4.302  -0.953  -0.353  1.00  0.00     0.156 HD
HETATM   26  H11 LIG X 999      -3.713  -2.532  -0.889  1.00  0.00     0.156 HD
ENDBRANCH  11  24
ENDBRANCH   5   6
ENDBRANCH   4   5
ENDBRANCH   3   4
TORSDOF 5
