REMARK  3 active torsions:
REMARK  status: ('A' for Active; 'I' for Inactive)
REMARK    1  A    between atoms: C3_3  and  O1_4 
REMARK    2  A    between atoms: O1_4  and  C4_5 
REMARK    3  A    between atoms: C5_7  and  C6_8 
ROOT
HETATM    1  C1  LIG X 999       3.404   1.812   6.446  1.00  0.00     0.014 C 
HETATM    2  C2  LIG X 999       2.727   1.972   5.461  1.00  0.00    -0.091 C 
HETATM    3  C3  LIG X 999       1.907   2.168   4.266  1.00  0.00     0.270 C 
ENDROOT
BRANCH   3   4
HETATM    4  O1  LIG X 999       1.824   0.943   3.547  1.00  0.00    -0.317 OA
BRANCH   4   5
HETATM    5  C4  LIG X 999       1.101   0.823   2.358  1.00  0.00     0.217 C 
HETATM    6  O2  LIG X 999       0.446   1.932   1.829  1.00  0.00    -0.164 OA
HETATM    7  C5  LIG X 999       1.079  -0.359   1.731  1.00  0.00     0.078 C 
BRANCH   7   8
HETATM    8  C6  LIG X 999       0.351  -0.621   0.469  1.00  0.00    -0.031 A 
HETATM    9  C7  LIG X 999       0.931  -1.477  -0.480  1.00  0.00     0.012 A 
HETATM   10  C8  LIG X 999       0.269  -1.770  -1.675  1.00  0.00     0.013 A 
HETATM   11  C9  LIG X 999      -0.996  -1.224  -1.933  1.00  0.00    -0.026 A 
HETATM   12  C10 LIG X 999      -1.670  -1.512  -3.130  1.00  0.00     0.012 A 
HETATM   13  C14 LIG X 999      -1.603  -0.380  -0.972  1.00  0.00    -0.025 A 
HETATM   14  C11 LIG X 999      -2.936  -0.971  -3.370  1.00  0.00     0.001 A 
HETATM   15  C12 LIG X 999      -3.538  -0.141  -2.420  1.00  0.00     0.001 A 
HETATM   16  C13 LIG X 999      -2.877   0.154  -1.224  1.00  0.00     0.012 A 
HETATM   17  C15 LIG X 999      -0.930  -0.091   0.226  1.00  0.00     0.024 A 
ENDBRANCH   7   8
ENDBRANCH   4   5
ENDBRANCH   3   4
TORSDOF 3
