REMARK  5 active torsions:
REMARK  status: ('A' for Active; 'I' for Inactive)
REMARK    1  A    between atoms: C1_1  and  N1_2 
REMARK    2  A    between atoms: C2_5  and  O1_6 
REMARK    3  A    between atoms: C2_5  and  C5_12 
REMARK    4  A    between atoms: O1_6  and  C3_7 
REMARK    5  A    between atoms: C3_7  and  C4_9 
ROOT
HETATM    1  N1  LIG X 999      -3.232   2.063   1.758  1.00  0.00    -0.082 NA
HETATM    2  N2  LIG X 999      -3.525   2.905   2.606  1.00  0.00    -0.163 NA
HETATM    3  N3  LIG X 999      -3.817   3.747   3.454  1.00  0.00     0.068 N 
ENDROOT
BRANCH   1   4
HETATM    4  C1  LIG X 999      -1.938   2.058   1.156  1.00  0.00     0.193 C 
HETATM    5  C2  LIG X 999      -1.623   1.139   0.237  1.00  0.00     0.101 C 
BRANCH   5   6
HETATM    6  O1  LIG X 999      -2.596   0.207  -0.154  1.00  0.00    -0.324 OA
BRANCH   6   7
HETATM    7  C3  LIG X 999      -2.492  -1.213   0.015  1.00  0.00     0.273 C 
HETATM    8 CL1  LIG X 999      -1.113  -1.922  -0.877  1.00  0.00    -0.090 Cl
BRANCH   7   9
HETATM    9  C4  LIG X 999      -2.481  -1.623   1.496  1.00  0.00     0.309 C 
HETATM   10  F1  LIG X 999      -3.542  -1.030   2.154  1.00  0.00    -0.229 F 
HETATM   11 CL2  LIG X 999      -0.960  -1.190   2.328  1.00  0.00    -0.086 Cl
ENDBRANCH   7   9
ENDBRANCH   6   7
ENDBRANCH   5   6
BRANCH   5  12
HETATM   12  C5  LIG X 999      -0.290   1.152  -0.408  1.00  0.00    -0.000 A 
HETATM   13  C6  LIG X 999      -0.194   1.026  -1.803  1.00  0.00     0.015 A 
HETATM   14  C7  LIG X 999       1.053   1.035  -2.433  1.00  0.00     0.013 A 
HETATM   15  C8  LIG X 999       2.225   1.172  -1.676  1.00  0.00    -0.026 A 
HETATM   16  C9  LIG X 999       3.483   1.179  -2.299  1.00  0.00     0.012 A 
HETATM   17  C13 LIG X 999       2.139   1.304  -0.269  1.00  0.00    -0.025 A 
HETATM   18  C10 LIG X 999       4.644   1.315  -1.533  1.00  0.00     0.001 A 
HETATM   19  C11 LIG X 999       4.559   1.445  -0.144  1.00  0.00     0.001 A 
HETATM   20  C12 LIG X 999       3.313   1.440   0.489  1.00  0.00     0.012 A 
HETATM   21  C14 LIG X 999       0.882   1.296   0.355  1.00  0.00     0.026 A 
ENDBRANCH   5  12
ENDBRANCH   1   4
TORSDOF 5
