REMARK  1 active torsions:
REMARK  status: ('A' for Active; 'I' for Inactive)
REMARK    1  A    between atoms: C6_6  and  N1_7 
ROOT
HETATM    1  N1  LIG X 999      -0.397  -0.190  -4.355  1.00  0.00    -0.234 NA
HETATM    2  C7  LIG X 999      -1.106   0.785  -4.765  1.00  0.00     0.163 C 
HETATM    3  S1  LIG X 999      -2.003   2.019  -5.284  1.00  0.00    -0.055 SA
ENDROOT
BRANCH   1   4
HETATM    4  C6  LIG X 999      -0.075  -0.422  -2.974  1.00  0.00     0.059 A 
HETATM    5  C5  LIG X 999      -0.527   0.428  -1.944  1.00  0.00     0.044 A 
HETATM    6  C4  LIG X 999      -0.189   0.165  -0.608  1.00  0.00    -0.024 A 
HETATM    7  C3  LIG X 999      -0.636   1.007   0.423  1.00  0.00     0.012 A 
HETATM    8  C10 LIG X 999       0.610  -0.961  -0.294  1.00  0.00    -0.026 A 
HETATM    9  C2  LIG X 999      -0.293   0.735   1.750  1.00  0.00     0.001 A 
HETATM   10  C1  LIG X 999       0.496  -0.377   2.059  1.00  0.00     0.001 A 
HETATM   11  C11 LIG X 999       0.948  -1.223   1.043  1.00  0.00     0.012 A 
HETATM   12  C9  LIG X 999       1.056  -1.802  -1.323  1.00  0.00     0.014 A 
HETATM   13  C8  LIG X 999       0.715  -1.532  -2.651  1.00  0.00     0.032 A 
ENDBRANCH   1   4
TORSDOF 1
