REMARK  4 active torsions:
REMARK  status: ('A' for Active; 'I' for Inactive)
REMARK    1  A    between atoms: C2_2  and  N1_3 
REMARK    2  A    between atoms: C3_6  and  O1_7 
REMARK    3  A    between atoms: O1_7  and  C4_8 
REMARK    4  A    between atoms: C4_8  and  C5_9 
ROOT
HETATM    1  N1  LIG X 999      -4.016   0.944   1.460  1.00  0.00    -0.070 NA
HETATM    2  N2  LIG X 999      -5.040   1.322   0.889  1.00  0.00    -0.162 NA
HETATM    3  N3  LIG X 999      -6.066   1.701   0.326  1.00  0.00     0.068 N 
ENDROOT
BRANCH   1   4
HETATM    4  C2  LIG X 999      -2.849   0.463   0.769  1.00  0.00     0.127 A 
HETATM    5  C1  LIG X 999      -1.753   0.078   1.552  1.00  0.00     0.049 A 
HETATM    6  C14 LIG X 999      -0.578  -0.399   0.961  1.00  0.00    -0.023 A 
HETATM    7  C9  LIG X 999      -0.495  -0.496  -0.453  1.00  0.00    -0.022 A 
HETATM    8  C13 LIG X 999       0.521  -0.779   1.757  1.00  0.00     0.021 A 
HETATM    9  C8  LIG X 999      -1.588  -0.114  -1.239  1.00  0.00     0.051 A 
HETATM   10  C10 LIG X 999       0.688  -0.973  -1.053  1.00  0.00     0.021 A 
HETATM   11  C3  LIG X 999      -2.772   0.370  -0.644  1.00  0.00     0.102 A 
HETATM   12  C11 LIG X 999       1.752  -1.346  -0.231  1.00  0.00    -0.024 A 
HETATM   13  C12 LIG X 999       1.671  -1.253   1.125  1.00  0.00    -0.024 A 
HETATM   14  C18 LIG X 999       3.082  -1.847  -0.639  1.00  0.00     0.276 C 
HETATM   15  C15 LIG X 999       2.940  -1.682   1.751  1.00  0.00     0.276 C 
HETATM   16  N4  LIG X 999       3.782  -2.214   0.633  1.00  0.00    -0.067 N 
HETATM   17  C16 LIG X 999       3.897  -3.688   0.741  1.00  0.00     0.272 C 
HETATM   18  C17 LIG X 999       5.139  -1.621   0.673  1.00  0.00     0.272 C 
BRANCH  11  19
HETATM   19  O1  LIG X 999      -3.877   0.759  -1.423  1.00  0.00    -0.337 OA
BRANCH  19  20
HETATM   20  C4  LIG X 999      -3.931   0.774  -2.849  1.00  0.00     0.269 C 
BRANCH  20  21
HETATM   21  C5  LIG X 999      -3.080   1.844  -3.382  1.00  0.00    -0.080 C 
HETATM   22  C6  LIG X 999      -2.376   2.721  -3.816  1.00  0.00    -0.109 C 
HETATM   23  C7  LIG X 999      -1.519   3.784  -4.340  1.00  0.00     0.112 C 
ENDBRANCH  20  21
ENDBRANCH  19  20
ENDBRANCH  11  19
ENDBRANCH   1   4
TORSDOF 4
