REMARK  1 active torsions:
REMARK  status: ('A' for Active; 'I' for Inactive)
REMARK    1  A    between atoms: C2_5  and  C3_6 
ROOT
HETATM    1  C3  LIG X 999       0.444  -0.416   0.087  1.00  0.00     0.028 A 
HETATM    2  C4  LIG X 999       1.468  -0.944  -0.719  1.00  0.00     0.017 A 
HETATM    3  C5  LIG X 999       1.270  -1.154  -2.083  1.00  0.00     0.002 A 
HETATM    4  C6  LIG X 999       0.049  -0.841  -2.672  1.00  0.00     0.012 A 
HETATM    5  C7  LIG X 999      -0.987  -0.294  -1.903  1.00  0.00    -0.025 A 
HETATM    6  C8  LIG X 999      -2.208   0.037  -2.513  1.00  0.00     0.012 A 
HETATM    7  C9  LIG X 999      -3.235   0.613  -1.765  1.00  0.00     0.001 A 
HETATM    8  C10 LIG X 999      -3.050   0.874  -0.408  1.00  0.00     0.001 A 
HETATM    9  C11 LIG X 999      -1.843   0.548   0.215  1.00  0.00     0.013 A 
HETATM   10  C12 LIG X 999      -0.797  -0.062  -0.512  1.00  0.00    -0.011 A 
ENDROOT
BRANCH   1  11
HETATM   11  C2  LIG X 999       0.700  -0.295   1.542  1.00  0.00     0.177 A 
HETATM   12  O1  LIG X 999      -0.183  -0.548   2.487  1.00  0.00    -0.258 OA
HETATM   13  C1  LIG X 999       0.461  -0.345   3.612  1.00  0.00     0.260 A 
HETATM   14  N1  LIG X 999      -0.068  -0.487   4.784  1.00  0.00    -0.261 NA
HETATM   15  N3  LIG X 999       1.734   0.027   3.395  1.00  0.00    -0.262 N 
HETATM   16  H1  LIG X 999       0.486  -0.314   5.652  1.00  0.00     0.190 HD
HETATM   17  N2  LIG X 999       1.887   0.056   2.083  1.00  0.00    -0.276 N 
HETATM   18  H10 LIG X 999       2.472   0.253   4.098  1.00  0.00     0.190 HD
HETATM   19  H9  LIG X 999       2.768   0.315   1.587  1.00  0.00     0.189 HD
ENDBRANCH   1  11
TORSDOF 1
