REMARK  9 active torsions:
REMARK  status: ('A' for Active; 'I' for Inactive)
REMARK    1  A    between atoms: C6_6  and  C7_7 
REMARK    2  A    between atoms: C8_8  and  C9_9 
REMARK    3  A    between atoms: C9_9  and  O2_11 
REMARK    4  A    between atoms: O2_11  and  C10_12 
REMARK    5  A    between atoms: C10_12  and  C12_14 
REMARK    6  A    between atoms: C10_12  and  C13_18 
REMARK    7  A    between atoms: C12_14  and  N1_15 
REMARK    8  A    between atoms: C13_18  and  C14_19 
REMARK    9  A    between atoms: C16_21  and  N2_22 
ROOT
HETATM    1  N2  LIG X 999       5.811   1.132   1.862  1.00  0.00    -0.105 NA
HETATM    2  N3  LIG X 999       5.873   0.271   2.740  1.00  0.00    -0.167 NA
HETATM    3  N4  LIG X 999       5.936  -0.589   3.617  1.00  0.00     0.068 N 
ENDROOT
BRANCH   1   4
HETATM    4  C16 LIG X 999       5.052   2.364   2.064  1.00  0.00     0.179 C 
HETATM    5  C4  LIG X 999       3.923   2.457   1.050  1.00  0.00    -0.023 A 
HETATM    6  C3  LIG X 999       3.598   3.682   0.414  1.00  0.00    -0.050 A 
HETATM    7  C5  LIG X 999       3.102   1.335   0.830  1.00  0.00     0.030 A 
HETATM    8  C2  LIG X 999       2.518   3.733  -0.481  1.00  0.00     0.009 A 
HETATM    9  C19 LIG X 999       4.437   4.922   0.609  1.00  0.00     0.039 C 
HETATM   10  C1  LIG X 999       1.733   2.603  -0.712  1.00  0.00     0.021 A 
HETATM   11  C6  LIG X 999       2.018   1.405  -0.053  1.00  0.00     0.018 A 
HETATM   12  C18 LIG X 999       5.254   4.872   1.900  1.00  0.00     0.007 C 
HETATM   13  C17 LIG X 999       6.020   3.554   1.983  1.00  0.00     0.035 C 
BRANCH  11  14
HETATM   14  C7  LIG X 999       1.196   0.246  -0.279  1.00  0.00    -0.056 C 
HETATM   15  C8  LIG X 999       0.506  -0.724  -0.469  1.00  0.00     0.008 C 
BRANCH  15  16
HETATM   16  C9  LIG X 999      -0.319  -1.875  -0.696  1.00  0.00     0.340 C 
HETATM   17  O1  LIG X 999       0.164  -2.869  -1.299  1.00  0.00    -0.249 OA
BRANCH  16  18
HETATM   18  O2  LIG X 999      -1.647  -1.857  -0.247  1.00  0.00    -0.298 OA
BRANCH  18  19
HETATM   19  C10 LIG X 999      -2.620  -2.902  -0.413  1.00  0.00     0.094 C 
HETATM   20  C11 LIG X 999      -2.101  -4.212   0.227  1.00  0.00     0.048 C 
BRANCH  19  21
HETATM   21  C12 LIG X 999      -3.911  -2.463   0.325  1.00  0.00     0.304 C 
BRANCH  21  22
HETATM   22  N1  LIG X 999      -3.692  -2.351   1.767  1.00  0.00     0.081 N 
HETATM   23  H9  LIG X 999      -4.614  -2.147   2.215  1.00  0.00     0.312 HD
HETATM   24  H10 LIG X 999      -3.085  -1.518   1.944  1.00  0.00     0.312 HD
ENDBRANCH  21  22
ENDBRANCH  19  21
BRANCH  19  25
HETATM   25  C13 LIG X 999      -2.918  -3.163  -1.923  1.00  0.00     0.039 C 
BRANCH  25  26
HETATM   26  C14 LIG X 999      -3.592  -2.018  -2.709  1.00  0.00    -0.002 C 
HETATM   27  C15 LIG X 999      -2.739  -0.755  -2.816  1.00  0.00     0.005 C 
ENDBRANCH  25  26
ENDBRANCH  19  25
ENDBRANCH  18  19
ENDBRANCH  16  18
ENDBRANCH  15  16
ENDBRANCH  11  14
ENDBRANCH   1   4
TORSDOF 9
