REMARK  3 active torsions:
REMARK  status: ('A' for Active; 'I' for Inactive)
REMARK    1  A    between atoms: C3_3  and  O1_4 
REMARK    2  A    between atoms: O1_4  and  C4_5 
REMARK    3  A    between atoms: C5_7  and  C6_8 
ROOT
HETATM    1  C1  LIG X 999       3.865   2.227   3.136  1.00  0.00     0.014 C 
HETATM    2  C2  LIG X 999       3.626   2.641   2.029  1.00  0.00    -0.091 C 
HETATM    3  C3  LIG X 999       3.337   3.141   0.685  1.00  0.00     0.270 C 
ENDROOT
BRANCH   3   4
HETATM    4  O1  LIG X 999       2.512   2.204   0.005  1.00  0.00    -0.317 OA
BRANCH   4   5
HETATM    5  C4  LIG X 999       2.076   2.404  -1.308  1.00  0.00     0.217 C 
HETATM    6  O2  LIG X 999       2.430   3.564  -1.992  1.00  0.00    -0.164 OA
HETATM    7  C5  LIG X 999       1.300   1.501  -1.915  1.00  0.00     0.079 C 
BRANCH   7   8
HETATM    8  C6  LIG X 999       0.878   0.230  -1.277  1.00  0.00    -0.020 A 
HETATM    9  C7  LIG X 999       1.848  -0.586  -0.666  1.00  0.00     0.012 A 
HETATM   10  C8  LIG X 999       1.498  -1.810  -0.097  1.00  0.00     0.002 A 
HETATM   11  C9  LIG X 999       0.178  -2.252  -0.136  1.00  0.00     0.012 A 
HETATM   12  C10 LIG X 999      -0.811  -1.469  -0.747  1.00  0.00    -0.025 A 
HETATM   13  C11 LIG X 999      -2.139  -1.922  -0.784  1.00  0.00     0.012 A 
HETATM   14  C15 LIG X 999      -0.470  -0.216  -1.326  1.00  0.00    -0.015 A 
HETATM   15  C12 LIG X 999      -3.132  -1.144  -1.381  1.00  0.00     0.001 A 
HETATM   16  C13 LIG X 999      -2.811   0.092  -1.940  1.00  0.00     0.001 A 
HETATM   17  C14 LIG X 999      -1.494   0.558  -1.914  1.00  0.00     0.013 A 
ENDBRANCH   7   8
ENDBRANCH   4   5
ENDBRANCH   3   4
TORSDOF 3
