REMARK  4 active torsions:
REMARK  status: ('A' for Active; 'I' for Inactive)
REMARK       I    between atoms: N1_1  and  C1_2 
REMARK    1  A    between atoms: C1_2  and  C2_4 
REMARK    2  A    between atoms: C11_13  and  O2_14 
REMARK    3  A    between atoms: O2_14  and  C12_15 
REMARK    4  A    between atoms: C12_15  and  C13_17 
ROOT
HETATM    1  C2  LIG X 999      -0.100  -2.137   0.837  1.00  0.00     0.066 A 
HETATM    2  C3  LIG X 999       1.013  -2.839   0.342  1.00  0.00     0.032 A 
HETATM    3  C4  LIG X 999       2.016  -2.177  -0.379  1.00  0.00    -0.025 A 
HETATM    4  C5  LIG X 999       3.126  -2.882  -0.874  1.00  0.00     0.012 A 
HETATM    5  C6  LIG X 999       4.114  -2.214  -1.601  1.00  0.00     0.001 A 
HETATM    6  C7  LIG X 999       4.003  -0.843  -1.843  1.00  0.00     0.001 A 
HETATM    7  C8  LIG X 999       2.902  -0.131  -1.358  1.00  0.00     0.012 A 
HETATM    8  C9  LIG X 999       1.904  -0.790  -0.623  1.00  0.00    -0.023 A 
HETATM    9  C10 LIG X 999       0.795  -0.087  -0.135  1.00  0.00     0.050 A 
HETATM   10  C11 LIG X 999      -0.201  -0.745   0.610  1.00  0.00     0.096 A 
ENDROOT
BRANCH  10  11
HETATM   11  O2  LIG X 999      -1.312  -0.046   1.110  1.00  0.00    -0.274 OA
BRANCH  11  12
HETATM   12  C12 LIG X 999      -1.308   1.291   1.532  1.00  0.00     0.298 C 
HETATM   13  O3  LIG X 999      -0.219   1.880   1.777  1.00  0.00    -0.259 OA
BRANCH  12  14
HETATM   14  C13 LIG X 999      -2.593   1.992   1.748  1.00  0.00     0.039 A 
HETATM   15  C14 LIG X 999      -3.812   1.330   1.511  1.00  0.00     0.017 A 
HETATM   16  C15 LIG X 999      -5.027   1.991   1.714  1.00  0.00     0.001 A 
HETATM   17  C16 LIG X 999      -5.040   3.317   2.154  1.00  0.00     0.000 A 
HETATM   18  C17 LIG X 999      -3.836   3.985   2.392  1.00  0.00     0.001 A 
HETATM   19  C18 LIG X 999      -2.618   3.329   2.191  1.00  0.00     0.017 A 
ENDBRANCH  12  14
ENDBRANCH  11  12
ENDBRANCH  10  11
BRANCH   1  20
HETATM   20  C1  LIG X 999      -1.156  -2.865   1.584  1.00  0.00     0.252 C 
HETATM   21  N1  LIG X 999      -0.839  -4.004   2.388  1.00  0.00    -0.366 N 
HETATM   22  H1  LIG X 999       0.149  -4.281   2.575  1.00  0.00     0.159 HD
HETATM   23  H2  LIG X 999      -1.602  -4.535   2.865  1.00  0.00     0.159 HD
HETATM   24  O1  LIG X 999      -2.355  -2.482   1.516  1.00  0.00    -0.268 OA
ENDBRANCH   1  20
TORSDOF 4
