REMARK  4 active torsions:
REMARK  status: ('A' for Active; 'I' for Inactive)
REMARK    1  A    between atoms: C3_3  and  O1_4 
REMARK    2  A    between atoms: O1_4  and  C4_5 
REMARK    3  A    between atoms: C4_5  and  O2_6 
REMARK    4  A    between atoms: C5_8  and  C6_9 
ROOT
HETATM    1  C1  LIG X 999       2.974  -3.040   0.481  1.00  0.00     0.014 C 
HETATM    2  C2  LIG X 999       2.462  -2.384  -0.390  1.00  0.00    -0.091 C 
HETATM    3  C3  LIG X 999       1.838  -1.587  -1.446  1.00  0.00     0.266 C 
ENDROOT
BRANCH   3   4
HETATM    4  O1  LIG X 999       2.092  -0.224  -1.197  1.00  0.00    -0.319 OA
BRANCH   4   5
HETATM    5  C4  LIG X 999       1.272   0.553  -2.041  1.00  0.00     0.314 A 
HETATM    6  O3  LIG X 999       1.271   1.901  -1.637  1.00  0.00    -0.312 OA
HETATM    7  C5  LIG X 999       0.047   1.207  -1.515  1.00  0.00     0.254 A 
BRANCH   5   8
HETATM    8  O2  LIG X 999       1.444   0.441  -3.427  1.00  0.00    -0.341 OA
HETATM    9  H4  LIG X 999       2.399   0.646  -3.595  1.00  0.00     0.215 HD
ENDBRANCH   5   8
BRANCH   7  10
HETATM   10  C6  LIG X 999      -0.307   0.909  -0.084  1.00  0.00    -0.021 A 
HETATM   11  C7  LIG X 999      -1.054  -0.240   0.212  1.00  0.00     0.011 A 
HETATM   12  C8  LIG X 999      -1.406  -0.538   1.531  1.00  0.00     0.013 A 
HETATM   13  C9  LIG X 999      -1.029   0.321   2.572  1.00  0.00    -0.026 A 
HETATM   14  C10 LIG X 999      -1.377   0.032   3.901  1.00  0.00     0.012 A 
HETATM   15  C14 LIG X 999      -0.296   1.497   2.280  1.00  0.00    -0.025 A 
HETATM   16  C11 LIG X 999      -1.001   0.900   4.930  1.00  0.00     0.001 A 
HETATM   17  C12 LIG X 999      -0.279   2.061   4.642  1.00  0.00     0.001 A 
HETATM   18  C13 LIG X 999       0.074   2.361   3.323  1.00  0.00     0.012 A 
HETATM   19  C15 LIG X 999       0.053   1.787   0.952  1.00  0.00     0.022 A 
ENDBRANCH   7  10
ENDBRANCH   4   5
ENDBRANCH   3   4
TORSDOF 4
