REMARK  9 active torsions:
REMARK  status: ('A' for Active; 'I' for Inactive)
REMARK    1  A    between atoms: C1_3  and  C2_4 
REMARK    2  A    between atoms: C1_3  and  N6_26 
REMARK    3  A    between atoms: C3_5  and  C4_6 
REMARK    4  A    between atoms: C4_6  and  O2_8 
REMARK    5  A    between atoms: O2_8  and  C5_9 
REMARK    6  A    between atoms: C5_9  and  C8_16 
REMARK    7  A    between atoms: N2_10  and  C6_11 
REMARK    8  A    between atoms: C6_11  and  C7_12 
REMARK    9  A    between atoms: C7_12  and  N3_13 
ROOT
HETATM    1  N3  LIG X 999      -0.575  -1.089  -5.267  1.00  0.00    -0.114 NA
HETATM    2  N4  LIG X 999       0.635  -1.036  -5.490  1.00  0.00    -0.168 NA
HETATM    3  N5  LIG X 999       1.844  -0.982  -5.712  1.00  0.00     0.068 N 
ENDROOT
BRANCH   1   4
HETATM    4  C7  LIG X 999      -1.086  -1.607  -4.004  1.00  0.00     0.211 C 
BRANCH   4   5
HETATM    5  C6  LIG X 999      -0.689  -0.696  -2.844  1.00  0.00     0.176 C 
BRANCH   5   6
HETATM    6  N2  LIG X 999      -1.260  -1.213  -1.602  1.00  0.00    -0.264 NA
HETATM    7  C5  LIG X 999      -1.270  -0.601  -0.450  1.00  0.00     0.178 C 
BRANCH   7   8
HETATM    8  O2  LIG X 999      -1.907  -1.176   0.659  1.00  0.00    -0.256 OA
BRANCH   8   9
HETATM    9  C4  LIG X 999      -2.541  -2.428   0.685  1.00  0.00     0.289 C 
HETATM   10  O1  LIG X 999      -2.559  -3.171  -0.333  1.00  0.00    -0.260 OA
BRANCH   9  11
HETATM   11  C3  LIG X 999      -3.196  -2.898   1.916  1.00  0.00     0.086 C 
HETATM   12  C2  LIG X 999      -3.238  -2.148   3.026  1.00  0.00     0.055 C 
BRANCH  12  13
HETATM   13  C1  LIG X 999      -3.897  -2.571   4.285  1.00  0.00     0.113 C 
HETATM   14  N1  LIG X 999      -4.128  -3.817   4.563  1.00  0.00    -0.284 NA
HETATM   15  H1  LIG X 999      -3.872  -4.612   3.939  1.00  0.00     0.188 HD
BRANCH  13  16
HETATM   16  N6  LIG X 999      -4.245  -1.575   5.248  1.00  0.00    -0.384 N 
HETATM   17  H15 LIG X 999      -4.692  -1.845   6.152  1.00  0.00     0.157 HD
HETATM   18  H16 LIG X 999      -4.064  -0.563   5.060  1.00  0.00     0.157 HD
ENDBRANCH  13  16
ENDBRANCH  12  13
ENDBRANCH   9  11
ENDBRANCH   8   9
ENDBRANCH   7   8
BRANCH   7  19
HETATM   19  C8  LIG X 999      -0.655   0.730  -0.264  1.00  0.00     0.018 A 
HETATM   20  C9  LIG X 999      -1.448   1.798   0.180  1.00  0.00     0.017 A 
HETATM   21  C10 LIG X 999      -0.885   3.061   0.383  1.00  0.00     0.013 A 
HETATM   22  C11 LIG X 999       0.484   3.267   0.159  1.00  0.00    -0.026 A 
HETATM   23  C12 LIG X 999       1.059   4.532   0.359  1.00  0.00     0.012 A 
HETATM   24  C16 LIG X 999       1.295   2.187  -0.265  1.00  0.00    -0.025 A 
HETATM   25  C13 LIG X 999       2.427   4.722   0.141  1.00  0.00     0.001 A 
HETATM   26  C14 LIG X 999       3.228   3.656  -0.275  1.00  0.00     0.001 A 
HETATM   27  C15 LIG X 999       2.667   2.391  -0.477  1.00  0.00     0.012 A 
HETATM   28  C17 LIG X 999       0.721   0.922  -0.465  1.00  0.00     0.028 A 
ENDBRANCH   7  19
ENDBRANCH   5   6
ENDBRANCH   4   5
ENDBRANCH   1   4
TORSDOF 9
