REMARK  12 active torsions:
REMARK  status: ('A' for Active; 'I' for Inactive)
REMARK    1  A    between atoms: C2_2  and  O1_3 
REMARK    2  A    between atoms: O1_3  and  C3_4 
REMARK    3  A    between atoms: C3_4  and  C5_6 
REMARK    4  A    between atoms: C5_6  and  O2_7 
REMARK    5  A    between atoms: O2_7  and  C6_8 
REMARK    6  A    between atoms: C6_8  and  C7_9 
REMARK    7  A    between atoms: C12_14  and  N1_15 
REMARK    8  A    between atoms: C14_17  and  C15_18 
REMARK    9  A    between atoms: C15_18  and  C16_19 
REMARK   10  A    between atoms: C16_19  and  N2_20 
REMARK   11  A    between atoms: N2_20  and  S1_21 
REMARK   12  A    between atoms: S1_21  and  C17_24 
ROOT
HETATM    1  N1  LIG X 999       1.327   0.412  -0.147  1.00  0.00    -0.249 N 
HETATM    2  C13 LIG X 999       0.676  -0.361   0.747  1.00  0.00     0.140 A 
HETATM    3  C14 LIG X 999      -0.620   0.105   0.794  1.00  0.00     0.042 A 
HETATM    4  N3  LIG X 999      -0.720   1.121  -0.083  1.00  0.00    -0.286 N 
HETATM    5  N4  LIG X 999       0.466   1.289  -0.643  1.00  0.00    -0.015 NA
HETATM    6  H30 LIG X 999      -1.574   1.674  -0.316  1.00  0.00     0.184 HD
ENDROOT
BRANCH   3   7
HETATM    7  C15 LIG X 999      -1.761  -0.484   1.563  1.00  0.00     0.082 C 
BRANCH   7   8
HETATM    8  C16 LIG X 999      -2.331  -1.693   0.826  1.00  0.00     0.169 C 
BRANCH   8   9
HETATM    9  N2  LIG X 999      -3.440  -2.254   1.594  1.00  0.00    -0.202 NA
BRANCH   9  10
HETATM   10  S1  LIG X 999      -4.062  -3.659   0.784  1.00  0.00     0.279 S 
HETATM   11  O3  LIG X 999      -4.509  -3.294  -0.605  1.00  0.00    -0.199 OA
HETATM   12  O4  LIG X 999      -5.250  -4.178   1.544  1.00  0.00    -0.199 OA
BRANCH  10  13
HETATM   13  C17 LIG X 999      -2.827  -4.914   0.713  1.00  0.00     0.082 A 
HETATM   14  C18 LIG X 999      -2.594  -5.726   1.830  1.00  0.00     0.026 A 
HETATM   15  C19 LIG X 999      -1.598  -6.706   1.797  1.00  0.00     0.014 A 
HETATM   16  C20 LIG X 999      -0.817  -6.878   0.646  1.00  0.00    -0.026 A 
HETATM   17  C21 LIG X 999       0.191  -7.854   0.603  1.00  0.00     0.012 A 
HETATM   18  C25 LIG X 999      -1.044  -6.056  -0.485  1.00  0.00    -0.025 A 
HETATM   19  C22 LIG X 999       0.967  -8.011  -0.549  1.00  0.00     0.001 A 
HETATM   20  C23 LIG X 999       0.745  -7.198  -1.663  1.00  0.00     0.001 A 
HETATM   21  C24 LIG X 999      -0.257  -6.223  -1.635  1.00  0.00     0.012 A 
HETATM   22  C26 LIG X 999      -2.050  -5.078  -0.442  1.00  0.00     0.037 A 
ENDBRANCH  10  13
ENDBRANCH   9  10
ENDBRANCH   8   9
ENDBRANCH   7   8
ENDBRANCH   3   7
BRANCH   1  23
HETATM   23  C12 LIG X 999       2.691   0.263  -0.583  1.00  0.00     0.062 A 
HETATM   24  C7  LIG X 999       3.514   1.388  -0.855  1.00  0.00    -0.006 A 
HETATM   25  C8  LIG X 999       4.821   1.185  -1.335  1.00  0.00     0.011 A 
HETATM   26  C9  LIG X 999       5.322  -0.106  -1.508  1.00  0.00     0.001 A 
HETATM   27  C10 LIG X 999       4.526  -1.211  -1.212  1.00  0.00     0.002 A 
HETATM   28  C11 LIG X 999       3.220  -1.030  -0.753  1.00  0.00     0.032 A 
BRANCH  24  29
HETATM   29  C6  LIG X 999       3.025   2.799  -0.658  1.00  0.00     0.208 C 
BRANCH  29  30
HETATM   30  O2  LIG X 999       2.274   3.182  -1.790  1.00  0.00    -0.384 OA
BRANCH  30  31
HETATM   31  C5  LIG X 999       1.700   4.454  -1.575  1.00  0.00     0.199 C 
BRANCH  31  32
HETATM   32  C3  LIG X 999       0.803   4.807  -2.767  1.00  0.00     0.141 C 
HETATM   33  C4  LIG X 999       0.226   6.212  -2.598  1.00  0.00     0.042 C 
BRANCH  32  34
HETATM   34  O1  LIG X 999      -0.274   3.883  -2.831  1.00  0.00    -0.385 OA
BRANCH  34  35
HETATM   35  C2  LIG X 999      -0.147   3.035  -3.952  1.00  0.00     0.163 C 
HETATM   36  C1  LIG X 999      -1.282   2.023  -3.947  1.00  0.00     0.033 C 
ENDBRANCH  34  35
ENDBRANCH  32  34
ENDBRANCH  31  32
ENDBRANCH  30  31
ENDBRANCH  29  30
ENDBRANCH  24  29
ENDBRANCH   1  23
TORSDOF 12
