REMARK  9 active torsions:
REMARK  status: ('A' for Active; 'I' for Inactive)
REMARK    1  A    between atoms: O1_2  and  C1_3 
REMARK    2  A    between atoms: C1_3  and  C16_24 
REMARK    3  A    between atoms: N1_4  and  C2_5 
REMARK    4  A    between atoms: C2_5  and  O2_6 
REMARK    5  A    between atoms: N2_8  and  C3_10 
REMARK    6  A    between atoms: C3_10  and  C4_11 
REMARK    7  A    between atoms: C4_11  and  C5_12 
REMARK    8  A    between atoms: C5_12  and  O3_13 
REMARK    9  A    between atoms: O3_13  and  C6_14 
ROOT
HETATM    1  C2  LIG X 999      -0.192  -2.448   2.340  1.00  0.00     0.241 C 
HETATM    2  N2  LIG X 999       0.124  -1.383   3.034  1.00  0.00    -0.355 N 
HETATM    3  H3  LIG X 999       0.732  -0.652   2.601  1.00  0.00     0.163 HD
ENDROOT
BRANCH   2   4
HETATM    4  C3  LIG X 999      -0.404  -1.058   4.362  1.00  0.00     0.125 C 
BRANCH   4   5
HETATM    5  C4  LIG X 999      -1.848  -0.529   4.285  1.00  0.00     0.046 C 
BRANCH   5   6
HETATM    6  C5  LIG X 999      -1.968   0.724   3.411  1.00  0.00     0.177 C 
BRANCH   6   7
HETATM    7  O3  LIG X 999      -1.797   0.368   2.041  1.00  0.00    -0.351 OA
BRANCH   7   8
HETATM    8  C6  LIG X 999      -1.677   1.280   0.984  1.00  0.00     0.069 A 
HETATM    9  C7  LIG X 999      -1.846   2.666   1.158  1.00  0.00     0.037 A 
HETATM   10  C8  LIG X 999      -1.698   3.537   0.074  1.00  0.00     0.015 A 
HETATM   11  C9  LIG X 999      -1.380   3.036  -1.196  1.00  0.00    -0.026 A 
HETATM   12  C10 LIG X 999      -1.223   3.902  -2.290  1.00  0.00     0.012 A 
HETATM   13  C14 LIG X 999      -1.214   1.642  -1.378  1.00  0.00    -0.023 A 
HETATM   14  C11 LIG X 999      -0.902   3.389  -3.550  1.00  0.00     0.001 A 
HETATM   15  C12 LIG X 999      -0.738   2.013  -3.729  1.00  0.00     0.001 A 
HETATM   16  C13 LIG X 999      -0.893   1.140  -2.649  1.00  0.00     0.012 A 
HETATM   17  C15 LIG X 999      -1.369   0.777  -0.285  1.00  0.00     0.049 A 
ENDBRANCH   7   8
ENDBRANCH   6   7
ENDBRANCH   5   6
ENDBRANCH   4   5
ENDBRANCH   2   4
BRANCH   1  18
HETATM   18  N1  LIG X 999       0.290  -2.619   0.998  1.00  0.00    -0.184 NA
HETATM   19  C1  LIG X 999       1.475  -2.311   0.553  1.00  0.00     0.176 C 
BRANCH  19  20
HETATM   20  O1  LIG X 999       2.460  -1.862   1.438  1.00  0.00    -0.344 OA
HETATM   21  H1  LIG X 999       3.356  -1.511   1.126  1.00  0.00     0.219 HD
ENDBRANCH  19  20
BRANCH  19  22
HETATM   22  C16 LIG X 999       1.766  -2.462  -0.895  1.00  0.00     0.017 A 
HETATM   23  C17 LIG X 999       3.084  -2.644  -1.357  1.00  0.00     0.017 A 
HETATM   24  C18 LIG X 999       3.346  -2.768  -2.725  1.00  0.00     0.025 A 
HETATM   25  C19 LIG X 999       2.299  -2.716  -3.649  1.00  0.00     0.034 A 
HETATM   26 CL1  LIG X 999       2.631  -2.866  -5.364  1.00  0.00    -0.084 Cl
HETATM   27  C20 LIG X 999       0.985  -2.551  -3.203  1.00  0.00     0.025 A 
HETATM   28  C21 LIG X 999       0.718  -2.431  -1.836  1.00  0.00     0.017 A 
ENDBRANCH  19  22
ENDBRANCH   1  18
BRANCH   1  29
HETATM   29  O2  LIG X 999      -1.058  -3.424   2.841  1.00  0.00    -0.331 OA
HETATM   30  H2  LIG X 999      -1.443  -3.411   3.776  1.00  0.00     0.221 HD
ENDBRANCH   1  29
TORSDOF 9
