REMARK  2 active torsions:
REMARK  status: ('A' for Active; 'I' for Inactive)
REMARK    1  A    between atoms: C4_4  and  O1_5 
REMARK    2  A    between atoms: C10_11  and  N1_12 
ROOT
HETATM    1  N1  LIG X 999       1.540  -1.095  -1.528  1.00  0.00    -0.072 NA
HETATM    2  N2  LIG X 999       2.226  -2.098  -1.730  1.00  0.00    -0.162 NA
HETATM    3  N3  LIG X 999       2.911  -3.099  -1.932  1.00  0.00     0.068 N 
ENDROOT
BRANCH   1   4
HETATM    4  C10 LIG X 999       0.958  -0.808  -0.248  1.00  0.00     0.101 C 
HETATM    5  C9  LIG X 999       0.197   0.375  -0.118  1.00  0.00     0.007 C 
HETATM    6  C8  LIG X 999      -0.817   0.630   0.794  1.00  0.00    -0.022 C 
HETATM    7  C12 LIG X 999       0.495   1.622  -0.876  1.00  0.00     0.278 C 
HETATM    8  C7  LIG X 999      -1.503  -0.308   1.577  1.00  0.00     0.012 C 
HETATM    9  C15 LIG X 999      -1.031   2.092   0.891  1.00  0.00     0.276 C 
HETATM   10  C6  LIG X 999      -1.735  -1.616   1.135  1.00  0.00     0.037 C 
HETATM   11  C4  LIG X 999      -1.610  -2.746   1.968  1.00  0.00     0.068 C 
HETATM   12  C3  LIG X 999      -0.690  -2.812   3.034  1.00  0.00     0.037 C 
HETATM   13  C2  LIG X 999       0.475  -2.034   3.180  1.00  0.00     0.003 C 
HETATM   14  C1  LIG X 999       1.114  -1.330   2.152  1.00  0.00     0.002 C 
HETATM   15  C11 LIG X 999       1.085  -1.730   0.809  1.00  0.00     0.035 C 
HETATM   16  N4  LIG X 999      -0.423   2.671  -0.340  1.00  0.00    -0.067 N 
HETATM   17  C13 LIG X 999       0.318   3.914  -0.025  1.00  0.00     0.272 C 
HETATM   18  C14 LIG X 999      -1.481   2.977  -1.333  1.00  0.00     0.272 C 
BRANCH  11  19
HETATM   19  O1  LIG X 999      -2.389  -3.890   1.739  1.00  0.00    -0.356 OA
HETATM   20  C5  LIG X 999      -3.377  -4.002   0.719  1.00  0.00     0.210 C 
ENDBRANCH  11  19
ENDBRANCH   1   4
TORSDOF 2
