REMARK  1 active torsions:
REMARK  status: ('A' for Active; 'I' for Inactive)
REMARK    1  A    between atoms: N1_1  and  C1_2 
ROOT
HETATM    1  C1  LIG X 999      -0.665   1.818  -0.683  1.00  0.00     0.026 A 
HETATM    2  C2  LIG X 999       0.538   1.889   0.033  1.00  0.00     0.030 A 
HETATM    3  C3  LIG X 999       0.810   0.974   1.054  1.00  0.00     0.014 A 
HETATM    4  C4  LIG X 999      -0.121  -0.025   1.371  1.00  0.00    -0.026 A 
HETATM    5  C5  LIG X 999       0.141  -0.950   2.394  1.00  0.00     0.012 A 
HETATM    6  C6  LIG X 999      -0.796  -1.941   2.700  1.00  0.00     0.001 A 
HETATM    7  C7  LIG X 999      -1.998  -2.017   1.990  1.00  0.00     0.001 A 
HETATM    8  C8  LIG X 999      -2.271  -1.103   0.969  1.00  0.00     0.012 A 
HETATM    9  C9  LIG X 999      -1.339  -0.102   0.651  1.00  0.00    -0.024 A 
HETATM   10  C10 LIG X 999      -1.601   0.822  -0.372  1.00  0.00     0.041 A 
ENDROOT
BRANCH   1  11
HETATM   11  N1  LIG X 999      -0.936   2.759  -1.726  1.00  0.00    -0.399 N 
HETATM   12  H1  LIG X 999      -1.829   2.716  -2.266  1.00  0.00     0.156 HD
HETATM   13  H2  LIG X 999      -0.245   3.505  -1.966  1.00  0.00     0.156 HD
ENDBRANCH   1  11
TORSDOF 1
