REMARK  7 active torsions:
REMARK  status: ('A' for Active; 'I' for Inactive)
REMARK    1  A    between atoms: C2_2  and  C3_3 
REMARK    2  A    between atoms: C3_3  and  N1_4 
REMARK    3  A    between atoms: N1_4  and  C5_6 
REMARK    4  A    between atoms: C5_6  and  C7_8 
REMARK    5  A    between atoms: C7_8  and  C8_9 
REMARK    6  A    between atoms: N4_12  and  C9_13 
REMARK    7  A    between atoms: C19_23  and  C20_24 
ROOT
HETATM    1  C8  LIG X 999       1.168   0.542   0.724  1.00  0.00     0.050 A 
HETATM    2  N2  LIG X 999       0.392  -0.019   1.669  1.00  0.00    -0.286 N 
HETATM    3  N3  LIG X 999      -0.070  -1.165   1.200  1.00  0.00    -0.019 NA
HETATM    4  N4  LIG X 999       0.385  -1.373  -0.028  1.00  0.00    -0.273 N 
HETATM    5  C19 LIG X 999       1.176  -0.323  -0.362  1.00  0.00     0.050 A 
HETATM    6  H15 LIG X 999       0.173   0.364   2.615  1.00  0.00     0.184 HD
ENDROOT
BRANCH   4   7
HETATM    7  C9  LIG X 999       0.089  -2.578  -0.822  1.00  0.00     0.114 C 
HETATM    8  C10 LIG X 999      -1.440  -2.860  -0.855  1.00  0.00     0.028 C 
HETATM    9  C11 LIG X 999      -1.861  -4.121  -0.082  1.00  0.00     0.003 C 
HETATM   10  C12 LIG X 999      -1.111  -4.233   1.246  1.00  0.00     0.009 C 
HETATM   11  C13 LIG X 999       0.418  -4.371   1.042  1.00  0.00     0.018 C 
HETATM   12  C14 LIG X 999       1.164  -3.787   2.223  1.00  0.00    -0.021 C 
HETATM   13  C18 LIG X 999       0.910  -3.800  -0.329  1.00  0.00     0.040 C 
HETATM   14  C15 LIG X 999       2.401  -3.304   2.097  1.00  0.00    -0.004 C 
HETATM   15  C16 LIG X 999       3.060  -3.232   0.785  1.00  0.00    -0.004 C 
HETATM   16  C17 LIG X 999       2.392  -3.503  -0.337  1.00  0.00    -0.019 C 
ENDBRANCH   4   7
BRANCH   5  17
HETATM   17  C20 LIG X 999       1.864  -0.128  -1.689  1.00  0.00     0.056 C 
HETATM   18  C21 LIG X 999       0.894   0.420  -2.730  1.00  0.00     0.011 C 
ENDBRANCH   5  17
BRANCH   1  19
HETATM   19  C7  LIG X 999       1.854   1.873   0.886  1.00  0.00     0.095 C 
BRANCH  19  20
HETATM   20  C5  LIG X 999       0.828   3.015   1.002  1.00  0.00     0.224 C 
HETATM   21  C6  LIG X 999       1.510   4.324   1.451  1.00  0.00     0.043 C 
BRANCH  20  22
HETATM   22  N1  LIG X 999       0.052   3.139  -0.266  1.00  0.00     0.092 N 
HETATM   23  C4  LIG X 999       0.688   3.989  -1.290  1.00  0.00     0.310 C 
BRANCH  22  24
HETATM   24  C3  LIG X 999      -1.349   3.547  -0.036  1.00  0.00     0.299 C 
BRANCH  24  25
HETATM   25  C2  LIG X 999      -2.151   2.391   0.498  1.00  0.00    -0.007 C 
HETATM   26  C1  LIG X 999      -2.308   1.265  -0.203  1.00  0.00     0.008 C 
ENDBRANCH  24  25
ENDBRANCH  22  24
ENDBRANCH  20  22
ENDBRANCH  19  20
ENDBRANCH   1  19
TORSDOF 7
