REMARK  3 active torsions:
REMARK  status: ('A' for Active; 'I' for Inactive)
REMARK    1  A    between atoms: C3_3  and  S1_4 
REMARK    2  A    between atoms: S1_4  and  C4_7 
REMARK    3  A    between atoms: C13_16  and  N1_17 
ROOT
HETATM    1  C1  LIG X 999       3.138   3.082  -3.312  1.00  0.00     0.013 C 
HETATM    2  C2  LIG X 999       2.072   2.959  -3.861  1.00  0.00    -0.102 C 
HETATM    3  C3  LIG X 999       0.775   2.808  -4.524  1.00  0.00     0.238 C 
ENDROOT
BRANCH   3   4
HETATM    4  S1  LIG X 999      -0.545   3.029  -3.347  1.00  0.00     0.185 S 
HETATM    5  O1  LIG X 999      -1.866   2.870  -4.045  1.00  0.00    -0.222 OA
HETATM    6  O2  LIG X 999      -0.476   4.413  -2.763  1.00  0.00    -0.222 OA
BRANCH   4   7
HETATM    7  C4  LIG X 999      -0.407   1.830  -2.064  1.00  0.00     0.060 A 
HETATM    8  C5  LIG X 999      -0.981   0.565  -2.222  1.00  0.00     0.024 A 
HETATM    9  C6  LIG X 999      -0.849  -0.397  -1.220  1.00  0.00     0.011 A 
HETATM   10  C7  LIG X 999      -0.135  -0.113  -0.044  1.00  0.00    -0.022 A 
HETATM   11  C8  LIG X 999       0.445   1.168   0.121  1.00  0.00    -0.048 A 
HETATM   12  C13 LIG X 999      -0.071  -1.167   1.049  1.00  0.00     0.217 C 
HETATM   13  C9  LIG X 999       0.314   2.123  -0.900  1.00  0.00     0.031 A 
HETATM   14  C10 LIG X 999       1.317   1.499   1.309  1.00  0.00     0.039 C 
HETATM   15  C11 LIG X 999       1.076   0.572   2.502  1.00  0.00     0.007 C 
HETATM   16  C12 LIG X 999       1.066  -0.890   2.054  1.00  0.00     0.038 C 
BRANCH  12  17
HETATM   17  N1  LIG X 999      -1.370  -1.270   1.731  1.00  0.00    -0.071 N 
HETATM   18  H14 LIG X 999      -1.316  -1.969   2.507  1.00  0.00     0.275 HD
HETATM   19  H15 LIG X 999      -2.099  -1.598   1.056  1.00  0.00     0.275 HD
HETATM   20  H16 LIG X 999      -1.665  -0.345   2.118  1.00  0.00     0.275 HD
ENDBRANCH  12  17
ENDBRANCH   4   7
ENDBRANCH   3   4
TORSDOF 3
