REMARK  1 active torsions:
REMARK  status: ('A' for Active; 'I' for Inactive)
REMARK    1  A    between atoms: C11_13  and  N2_14 
ROOT
HETATM    1  N2  LIG X 999      -3.382   1.608  -1.586  1.00  0.00    -0.053 NA
HETATM    2  N3  LIG X 999      -4.231   2.377  -1.134  1.00  0.00    -0.160 NA
HETATM    3  N4  LIG X 999      -5.079   3.145  -0.683  1.00  0.00     0.068 N 
ENDROOT
BRANCH   1   4
HETATM    4  C11 LIG X 999      -2.491   0.900  -0.723  1.00  0.00     0.175 A 
HETATM    5  C10 LIG X 999      -1.507   0.017  -1.145  1.00  0.00     0.026 A 
HETATM    6  C5  LIG X 999      -0.912  -0.414  -0.008  1.00  0.00     0.017 A 
HETATM    7  C9  LIG X 999      -1.077  -0.448  -2.389  1.00  0.00     0.016 A 
HETATM    8  C4  LIG X 999      -1.502   0.176   1.059  1.00  0.00     0.046 A 
HETATM    9  C6  LIG X 999       0.129  -1.312   0.041  1.00  0.00     0.005 A 
HETATM   10  C3  LIG X 999      -1.042  -0.120   2.427  1.00  0.00     0.033 A 
HETATM   11  N5  LIG X 999      -2.488   0.999   0.638  1.00  0.00    -0.337 N 
HETATM   12  C2  LIG X 999      -0.020  -0.994   2.586  1.00  0.00     0.034 A 
HETATM   13  C1  LIG X 999       0.633  -1.648   1.398  1.00  0.00     0.059 A 
HETATM   14  N1  LIG X 999       1.611  -2.484   1.550  1.00  0.00    -0.300 NA
HETATM   15  H1  LIG X 999       1.979  -2.732   2.496  1.00  0.00     0.187 HD
HETATM   16  H7  LIG X 999      -3.113   1.585   1.235  1.00  0.00     0.167 HD
HETATM   17  C7  LIG X 999       0.600  -1.812  -1.192  1.00  0.00     0.015 A 
HETATM   18  C8  LIG X 999      -0.006  -1.377  -2.404  1.00  0.00     0.002 A 
ENDBRANCH   1   4
TORSDOF 1
