REMARK  1 active torsions:
REMARK  status: ('A' for Active; 'I' for Inactive)
REMARK    1  A    between atoms: C12_13  and  N2_14 
ROOT
HETATM    1  C1  LIG X 999       3.065   2.141   0.397  1.00  0.00     0.272 C 
HETATM    2  N1  LIG X 999       2.384   1.710  -0.848  1.00  0.00    -0.067 N 
HETATM    3  C2  LIG X 999       3.388   1.597  -1.931  1.00  0.00     0.272 C 
HETATM    4  C3  LIG X 999       1.696   0.400  -0.627  1.00  0.00     0.276 C 
HETATM    5  C4  LIG X 999       0.250   0.708  -0.618  1.00  0.00    -0.021 A 
HETATM    6  C5  LIG X 999      -0.793  -0.165  -0.329  1.00  0.00     0.022 A 
HETATM    7  C6  LIG X 999      -2.114   0.311  -0.395  1.00  0.00    -0.023 A 
HETATM    8  C7  LIG X 999      -3.179  -0.557  -0.112  1.00  0.00     0.012 A 
HETATM    9  C8  LIG X 999      -4.495  -0.105  -0.191  1.00  0.00     0.001 A 
HETATM   10  C9  LIG X 999      -4.762   1.213  -0.559  1.00  0.00     0.001 A 
HETATM   11  C10 LIG X 999      -3.716   2.095  -0.845  1.00  0.00     0.014 A 
HETATM   12  C11 LIG X 999      -2.372   1.670  -0.758  1.00  0.00     0.001 A 
HETATM   13  C12 LIG X 999      -1.274   2.538  -1.038  1.00  0.00     0.045 A 
HETATM   14  C13 LIG X 999       0.024   2.006  -0.959  1.00  0.00     0.003 A 
HETATM   15  C14 LIG X 999       1.316   2.692  -1.216  1.00  0.00     0.278 C 
ENDROOT
BRANCH  13  16
HETATM   16  N2  LIG X 999      -1.449   3.922  -1.386  1.00  0.00    -0.398 N 
HETATM   17  H14 LIG X 999      -0.644   4.493  -1.726  1.00  0.00     0.156 HD
HETATM   18  H15 LIG X 999      -2.344   4.434  -1.244  1.00  0.00     0.156 HD
ENDBRANCH  13  16
TORSDOF 1
