REMARK  1 active torsions:
REMARK  status: ('A' for Active; 'I' for Inactive)
REMARK    1  A    between atoms: C2_5  and  C3_6 
ROOT
HETATM    1  C3  LIG X 999       0.212   0.486  -0.319  1.00  0.00     0.030 A 
HETATM    2  C4  LIG X 999       0.999   0.857  -1.429  1.00  0.00     0.017 A 
HETATM    3  C5  LIG X 999       0.926   0.168  -2.636  1.00  0.00     0.002 A 
HETATM    4  C6  LIG X 999       0.067  -0.912  -2.775  1.00  0.00     0.012 A 
HETATM    5  C7  LIG X 999      -0.735  -1.320  -1.703  1.00  0.00    -0.025 A 
HETATM    6  C8  LIG X 999      -1.595  -2.417  -1.873  1.00  0.00     0.012 A 
HETATM    7  C9  LIG X 999      -2.405  -2.846  -0.826  1.00  0.00     0.001 A 
HETATM    8  C10 LIG X 999      -2.366  -2.188   0.399  1.00  0.00     0.001 A 
HETATM    9  C11 LIG X 999      -1.517  -1.094   0.589  1.00  0.00     0.013 A 
HETATM   10  C12 LIG X 999      -0.679  -0.629  -0.454  1.00  0.00    -0.011 A 
ENDROOT
BRANCH   1  11
HETATM   11  C2  LIG X 999       0.380   1.304   0.922  1.00  0.00     0.203 A 
HETATM   12  O1  LIG X 999      -0.256   1.125   2.061  1.00  0.00    -0.255 OA
HETATM   13  C1  LIG X 999       0.200   2.059   2.858  1.00  0.00     0.262 A 
HETATM   14  N1  LIG X 999      -0.179   2.225   4.082  1.00  0.00    -0.260 NA
HETATM   15  N3  LIG X 999       1.111   2.823   2.244  1.00  0.00    -0.238 N 
HETATM   16  H1  LIG X 999      -0.895   1.597   4.510  1.00  0.00     0.190 HD
HETATM   17  N2  LIG X 999       1.234   2.353   1.014  1.00  0.00    -0.145 NA
HETATM   18  H9  LIG X 999       1.636   3.637   2.635  1.00  0.00     0.193 HD
ENDBRANCH   1  11
TORSDOF 1
