REMARK  7 active torsions:
REMARK  status: ('A' for Active; 'I' for Inactive)
REMARK       I    between atoms: C1_2  and  N1_3 
REMARK       I    between atoms: C1_2  and  N2_17 
REMARK    1  A    between atoms: N1_3  and  C2_4 
REMARK    2  A    between atoms: C2_4  and  C3_5 
REMARK    3  A    between atoms: C3_5  and  O2_6 
REMARK    4  A    between atoms: O2_6  and  C4_7 
REMARK    5  A    between atoms: N2_17  and  C14_18 
REMARK    6  A    between atoms: C14_18  and  O3_19 
REMARK    7  A    between atoms: O3_19  and  C15_20 
ROOT
HETATM    1  O1  LIG X 999       3.809   1.616   1.956  1.00  0.00    -0.245 OA
HETATM    2  C1  LIG X 999       3.091   0.792   1.330  1.00  0.00     0.339 C 
HETATM    3  N1  LIG X 999       3.709  -0.050   0.348  1.00  0.00    -0.234 NA
HETATM    4  N2  LIG X 999       1.687   0.710   1.613  1.00  0.00    -0.320 N 
HETATM    5  H12 LIG X 999       1.117  -0.066   1.212  1.00  0.00     0.166 HD
ENDROOT
BRANCH   3   6
HETATM    6  C2  LIG X 999       3.020  -0.941  -0.582  1.00  0.00     0.181 C 
BRANCH   6   7
HETATM    7  C3  LIG X 999       2.385  -0.155  -1.729  1.00  0.00     0.197 C 
BRANCH   7   8
HETATM    8  O2  LIG X 999       1.292   0.618  -1.245  1.00  0.00    -0.349 OA
BRANCH   8   9
HETATM    9  C4  LIG X 999       0.491   1.456  -2.033  1.00  0.00     0.069 A 
HETATM   10  C5  LIG X 999       0.701   1.619  -3.415  1.00  0.00     0.037 A 
HETATM   11  C6  LIG X 999      -0.124   2.467  -4.160  1.00  0.00     0.015 A 
HETATM   12  C7  LIG X 999      -1.170   3.162  -3.536  1.00  0.00    -0.026 A 
HETATM   13  C8  LIG X 999      -2.006   4.014  -4.274  1.00  0.00     0.012 A 
HETATM   14  C12 LIG X 999      -1.387   3.000  -2.146  1.00  0.00    -0.023 A 
HETATM   15  C9  LIG X 999      -3.045   4.700  -3.639  1.00  0.00     0.001 A 
HETATM   16  C10 LIG X 999      -3.259   4.541  -2.268  1.00  0.00     0.001 A 
HETATM   17  C11 LIG X 999      -2.434   3.695  -1.521  1.00  0.00     0.012 A 
HETATM   18  C13 LIG X 999      -0.552   2.148  -1.408  1.00  0.00     0.049 A 
ENDBRANCH   8   9
ENDBRANCH   7   8
ENDBRANCH   6   7
ENDBRANCH   3   6
BRANCH   4  19
HETATM   19  C14 LIG X 999       1.021   1.706   2.451  1.00  0.00     0.302 C 
BRANCH  19  20
HETATM   20  O3  LIG X 999      -0.391   1.502   2.445  1.00  0.00    -0.332 OA
BRANCH  20  21
HETATM   21  C15 LIG X 999      -1.052   0.407   3.025  1.00  0.00     0.070 A 
HETATM   22  C16 LIG X 999      -0.371  -0.596   3.745  1.00  0.00     0.037 A 
HETATM   23  C17 LIG X 999      -1.080  -1.666   4.300  1.00  0.00     0.003 A 
HETATM   24  C18 LIG X 999      -2.467  -1.745   4.145  1.00  0.00     0.000 A 
HETATM   25  C19 LIG X 999      -3.147  -0.753   3.435  1.00  0.00     0.003 A 
HETATM   26  C20 LIG X 999      -2.442   0.319   2.878  1.00  0.00     0.037 A 
ENDBRANCH  20  21
ENDBRANCH  19  20
ENDBRANCH   4  19
TORSDOF 7
