REMARK  1 active torsions:
REMARK  status: ('A' for Active; 'I' for Inactive)
REMARK    1  A    between atoms: N1_2  and  C1_3 
ROOT
HETATM    1  C1  LIG X 999       3.154   0.703   0.193  1.00  0.00     0.120 C 
HETATM    2  C2  LIG X 999       2.765  -0.599  -0.121  1.00  0.00     0.057 C 
HETATM    3  C3  LIG X 999       1.409  -0.914  -0.288  1.00  0.00    -0.045 C 
HETATM    4  C4  LIG X 999       1.112  -2.251  -0.924  1.00  0.00     0.049 C 
HETATM    5  C5  LIG X 999       0.418   0.075   0.009  1.00  0.00     0.008 C 
HETATM    6  C6  LIG X 999      -0.994  -0.167   0.094  1.00  0.00    -0.013 C 
HETATM    7  C7  LIG X 999      -1.555  -1.451   0.289  1.00  0.00     0.013 C 
HETATM    8  C8  LIG X 999      -2.939  -1.640   0.306  1.00  0.00     0.001 C 
HETATM    9  C9  LIG X 999      -3.798  -0.553   0.181  1.00  0.00     0.001 C 
HETATM   10  C10 LIG X 999      -3.278   0.736   0.095  1.00  0.00     0.012 C 
HETATM   11  C11 LIG X 999      -1.889   0.942   0.091  1.00  0.00    -0.025 C 
HETATM   12  C12 LIG X 999      -1.393   2.246   0.142  1.00  0.00     0.014 C 
HETATM   13  C13 LIG X 999      -0.029   2.474   0.252  1.00  0.00     0.031 C 
HETATM   14  C14 LIG X 999       0.881   1.411   0.198  1.00  0.00     0.045 C 
HETATM   15  N2  LIG X 999       2.215   1.677   0.306  1.00  0.00    -0.341 N 
HETATM   16  H12 LIG X 999       2.533   2.658   0.483  1.00  0.00     0.167 HD
ENDROOT
BRANCH   1  17
HETATM   17  N1  LIG X 999       4.408   1.001   0.336  1.00  0.00    -0.284 NA
HETATM   18  H1  LIG X 999       5.170   0.291   0.243  1.00  0.00     0.188 HD
ENDBRANCH   1  17
TORSDOF 1
