REMARK  3 active torsions:
REMARK  status: ('A' for Active; 'I' for Inactive)
REMARK    1  A    between atoms: C3_3  and  N1_4 
REMARK    2  A    between atoms: N1_4  and  S1_5 
REMARK    3  A    between atoms: S1_5  and  C4_8 
ROOT
HETATM    1  C1  LIG X 999      -2.677  -0.272   1.006  1.00  0.00     0.014 C 
HETATM    2  C2  LIG X 999      -2.530  -1.429   0.703  1.00  0.00    -0.095 C 
HETATM    3  C3  LIG X 999      -2.343  -2.836   0.331  1.00  0.00     0.255 C 
ENDROOT
BRANCH   3   4
HETATM    4  N1  LIG X 999      -1.308  -3.446   1.166  1.00  0.00    -0.190 NA
BRANCH   4   5
HETATM    5  S1  LIG X 999       0.271  -3.222   0.469  1.00  0.00     0.279 S 
HETATM    6  O1  LIG X 999       0.339  -3.910  -0.866  1.00  0.00    -0.199 OA
HETATM    7  O2  LIG X 999       1.298  -3.842   1.374  1.00  0.00    -0.199 OA
BRANCH   5   8
HETATM    8  C4  LIG X 999       0.629  -1.506   0.287  1.00  0.00     0.082 A 
HETATM    9  C5  LIG X 999       1.018  -0.755   1.403  1.00  0.00     0.026 A 
HETATM   10  C6  LIG X 999       1.264   0.615   1.283  1.00  0.00     0.014 A 
HETATM   11  C7  LIG X 999       1.119   1.251   0.042  1.00  0.00    -0.026 A 
HETATM   12  C8  LIG X 999       1.358   2.628  -0.090  1.00  0.00     0.012 A 
HETATM   13  C12 LIG X 999       0.723   0.497  -1.090  1.00  0.00    -0.025 A 
HETATM   14  C9  LIG X 999       1.205   3.251  -1.332  1.00  0.00     0.001 A 
HETATM   15  C10 LIG X 999       0.813   2.507  -2.449  1.00  0.00     0.001 A 
HETATM   16  C11 LIG X 999       0.572   1.135  -2.331  1.00  0.00     0.012 A 
HETATM   17  C13 LIG X 999       0.481  -0.879  -0.958  1.00  0.00     0.037 A 
ENDBRANCH   5   8
ENDBRANCH   4   5
ENDBRANCH   3   4
TORSDOF 3
