REMARK  8 active torsions:
REMARK  status: ('A' for Active; 'I' for Inactive)
REMARK    1  A    between atoms: O1_2  and  C1_3 
REMARK    2  A    between atoms: C1_3  and  N1_4 
REMARK    3  A    between atoms: N1_4  and  C2_5 
REMARK    4  A    between atoms: C2_5  and  C3_6 
REMARK    5  A    between atoms: C3_6  and  C4_7 
REMARK    6  A    between atoms: C4_7  and  O2_8 
REMARK    7  A    between atoms: O2_8  and  C5_9 
REMARK    8  A    between atoms: C15_19  and  C16_20 
ROOT
HETATM    1  C4  LIG X 999      -2.616   0.985   2.614  1.00  0.00     0.177 C 
ENDROOT
BRANCH   1   2
HETATM    2  C3  LIG X 999      -2.862  -0.533   2.591  1.00  0.00     0.048 C 
BRANCH   2   3
HETATM    3  C2  LIG X 999      -3.198  -1.065   1.193  1.00  0.00     0.154 C 
BRANCH   3   4
HETATM    4  N1  LIG X 999      -1.970  -1.322   0.453  1.00  0.00    -0.267 NA
BRANCH   4   5
HETATM    5  C1  LIG X 999      -1.954  -1.744  -0.913  1.00  0.00     0.153 C 
HETATM    6  C15 LIG X 999      -0.796  -2.051  -1.514  1.00  0.00     0.034 C 
BRANCH   5   7
HETATM    7  O1  LIG X 999      -3.155  -1.829  -1.619  1.00  0.00    -0.345 OA
HETATM    8  H1  LIG X 999      -3.188  -2.122  -2.589  1.00  0.00     0.219 HD
ENDBRANCH   5   7
BRANCH   6   9
HETATM    9  C16 LIG X 999       0.533  -2.029  -0.794  1.00  0.00     0.004 C 
HETATM   10  C17 LIG X 999       1.677  -1.799  -1.785  1.00  0.00     0.013 C 
HETATM   11  C18 LIG X 999       0.742  -3.334  -0.021  1.00  0.00     0.013 C 
ENDBRANCH   6   9
ENDBRANCH   4   5
ENDBRANCH   3   4
ENDBRANCH   2   3
ENDBRANCH   1   2
BRANCH   1  12
HETATM   12  O2  LIG X 999      -1.719   1.406   1.584  1.00  0.00    -0.351 OA
BRANCH  12  13
HETATM   13  C5  LIG X 999      -0.333   1.186   1.556  1.00  0.00     0.069 A 
HETATM   14  C6  LIG X 999       0.365   0.586   2.622  1.00  0.00     0.037 A 
HETATM   15  C7  LIG X 999       1.739   0.349   2.523  1.00  0.00     0.015 A 
HETATM   16  C8  LIG X 999       2.438   0.715   1.365  1.00  0.00    -0.026 A 
HETATM   17  C9  LIG X 999       3.812   0.459   1.246  1.00  0.00     0.012 A 
HETATM   18  C13 LIG X 999       1.748   1.343   0.301  1.00  0.00    -0.023 A 
HETATM   19  C10 LIG X 999       4.495   0.821   0.081  1.00  0.00     0.001 A 
HETATM   20  C11 LIG X 999       3.814   1.442  -0.969  1.00  0.00     0.001 A 
HETATM   21  C12 LIG X 999       2.445   1.704  -0.862  1.00  0.00     0.012 A 
HETATM   22  C14 LIG X 999       0.369   1.577   0.410  1.00  0.00     0.049 A 
ENDBRANCH  12  13
ENDBRANCH   1  12
TORSDOF 8
