REMARK  3 active torsions:
REMARK  status: ('A' for Active; 'I' for Inactive)
REMARK    1  A    between atoms: C1_2  and  C2_4 
REMARK       I    between atoms: N1_6  and  C4_7 
REMARK    2  A    between atoms: C4_7  and  C5_9 
REMARK    3  A    between atoms: C6_10  and  C7_11 
ROOT
HETATM    1  C5  LIG X 999      -0.578  -1.312   0.370  1.00  0.00     0.000 C 
HETATM    2  C6  LIG X 999      -0.027  -0.277   0.093  1.00  0.00    -0.057 C 
ENDROOT
BRANCH   1   3
HETATM    3  C4  LIG X 999      -1.242  -2.543   0.707  1.00  0.00     0.300 C 
HETATM    4  N1  LIG X 999      -2.375  -2.549   1.588  1.00  0.00    -0.317 N 
HETATM    5  C3  LIG X 999      -2.946  -1.388   2.208  1.00  0.00     0.172 C 
HETATM    6  C17 LIG X 999      -3.114  -3.733   1.963  1.00  0.00     0.298 C 
HETATM    7  C2  LIG X 999      -4.028  -1.979   3.101  1.00  0.00     0.242 C 
HETATM    8  O4  LIG X 999      -4.212  -3.340   2.759  1.00  0.00    -0.354 OA
HETATM    9  O3  LIG X 999      -0.817  -3.623   0.217  1.00  0.00    -0.258 OA
BRANCH   7  10
HETATM   10  C1  LIG X 999      -5.324  -1.239   2.957  1.00  0.00     0.204 C 
HETATM   11  O1  LIG X 999      -5.642  -0.352   3.792  1.00  0.00    -0.646 OA
HETATM   12  O2  LIG X 999      -6.156  -1.493   1.873  1.00  0.00    -0.646 OA
ENDBRANCH   7  10
ENDBRANCH   1   3
BRANCH   2  13
HETATM   13  C7  LIG X 999       0.627   0.963  -0.234  1.00  0.00     0.019 A 
HETATM   14  C8  LIG X 999       0.302   2.131   0.467  1.00  0.00     0.021 A 
HETATM   15  C9  LIG X 999       0.933   3.338   0.155  1.00  0.00     0.013 A 
HETATM   16  C10 LIG X 999       1.897   3.388  -0.864  1.00  0.00    -0.026 A 
HETATM   17  C11 LIG X 999       2.537   4.595  -1.185  1.00  0.00     0.012 A 
HETATM   18  C15 LIG X 999       2.227   2.208  -1.575  1.00  0.00    -0.025 A 
HETATM   19  C12 LIG X 999       3.496   4.630  -2.202  1.00  0.00     0.001 A 
HETATM   20  C13 LIG X 999       3.821   3.467  -2.904  1.00  0.00     0.001 A 
HETATM   21  C14 LIG X 999       3.191   2.258  -2.594  1.00  0.00     0.012 A 
HETATM   22  C16 LIG X 999       1.587   1.000  -1.254  1.00  0.00     0.032 A 
ENDBRANCH   2  13
TORSDOF 3
