REMARK  4 active torsions:
REMARK  status: ('A' for Active; 'I' for Inactive)
REMARK    1  A    between atoms: C4_4  and  N1_5 
REMARK    2  A    between atoms: C7_10  and  S1_11 
REMARK    3  A    between atoms: S1_11  and  C8_12 
REMARK    4  A    between atoms: C8_12  and  C9_13 
ROOT
HETATM    1  N1  LIG X 999      -2.311  -2.896   0.505  1.00  0.00    -0.071 NA
HETATM    2  N2  LIG X 999      -3.491  -3.013   0.180  1.00  0.00    -0.162 NA
HETATM    3  N3  LIG X 999      -4.667  -3.139  -0.160  1.00  0.00     0.068 N 
ENDROOT
BRANCH   1   4
HETATM    4  C4  LIG X 999      -1.558  -1.679   0.333  1.00  0.00     0.108 A 
HETATM    5  C3  LIG X 999      -2.166  -0.442   0.035  1.00  0.00     0.008 A 
HETATM    6  C2  LIG X 999      -1.420   0.682  -0.159  1.00  0.00    -0.021 A 
HETATM    7  C15 LIG X 999      -3.609  -0.098  -0.089  1.00  0.00     0.278 C 
HETATM    8  C1  LIG X 999      -0.037   0.676  -0.031  1.00  0.00     0.018 A 
HETATM    9  C18 LIG X 999      -2.285   1.843  -0.462  1.00  0.00     0.276 C 
HETATM   10  C6  LIG X 999       0.617  -0.512   0.353  1.00  0.00    -0.035 A 
HETATM   11  C5  LIG X 999      -0.146  -1.714   0.481  1.00  0.00    -0.018 A 
HETATM   12  C7  LIG X 999       2.131  -0.509   0.503  1.00  0.00     0.081 C 
HETATM   13  C14 LIG X 999       0.518  -3.024   0.852  1.00  0.00     0.042 C 
HETATM   14  C13 LIG X 999       2.034  -3.022   0.645  1.00  0.00     0.006 C 
HETATM   15  C12 LIG X 999       2.648  -1.756   1.231  1.00  0.00     0.020 C 
HETATM   16  N4  LIG X 999      -3.666   1.395  -0.121  1.00  0.00    -0.067 N 
HETATM   17  C16 LIG X 999      -4.047   1.915   1.214  1.00  0.00     0.272 C 
HETATM   18  C17 LIG X 999      -4.641   1.870  -1.127  1.00  0.00     0.272 C 
BRANCH  12  19
HETATM   19  S1  LIG X 999       2.700   0.959   1.458  1.00  0.00    -0.147 SA
BRANCH  19  20
HETATM   20  C8  LIG X 999       3.529   1.822   0.082  1.00  0.00     0.168 C 
BRANCH  20  21
HETATM   21  C9  LIG X 999       4.784   1.147  -0.259  1.00  0.00    -0.097 C 
HETATM   22  C10 LIG X 999       5.815   0.589  -0.546  1.00  0.00    -0.110 C 
HETATM   23  C11 LIG X 999       7.066  -0.086  -0.894  1.00  0.00     0.112 C 
ENDBRANCH  20  21
ENDBRANCH  19  20
ENDBRANCH  12  19
ENDBRANCH   1   4
TORSDOF 4
