REMARK  3 active torsions:
REMARK  status: ('A' for Active; 'I' for Inactive)
REMARK    1  A    between atoms: C3_3  and  O1_4 
REMARK    2  A    between atoms: O1_4  and  C4_5 
REMARK    3  A    between atoms: C13_14  and  C14_15 
ROOT
HETATM    1  C1  LIG X 999      -3.106   4.725  -3.655  1.00  0.00     0.014 C 
HETATM    2  C2  LIG X 999      -2.765   4.171  -2.641  1.00  0.00    -0.091 C 
HETATM    3  C3  LIG X 999      -2.350   3.499  -1.409  1.00  0.00     0.268 C 
ENDROOT
BRANCH   3   4
HETATM    4  O1  LIG X 999      -1.332   2.551  -1.715  1.00  0.00    -0.339 OA
BRANCH   4   5
HETATM    5  C4  LIG X 999      -0.699   1.717  -0.776  1.00  0.00     0.084 A 
HETATM    6  C5  LIG X 999      -1.035   1.778   0.588  1.00  0.00     0.039 A 
HETATM    7  C6  LIG X 999      -0.384   0.976   1.518  1.00  0.00     0.015 A 
HETATM    8  C7  LIG X 999       0.608   0.080   1.110  1.00  0.00    -0.025 A 
HETATM    9  C8  LIG X 999       1.247  -0.730   2.063  1.00  0.00     0.012 A 
HETATM   10  C12 LIG X 999       0.960  -0.017  -0.263  1.00  0.00    -0.010 A 
HETATM   11  C9  LIG X 999       2.221  -1.646   1.670  1.00  0.00     0.001 A 
HETATM   12  C10 LIG X 999       2.559  -1.770   0.324  1.00  0.00     0.001 A 
HETATM   13  C11 LIG X 999       1.935  -0.971  -0.637  1.00  0.00     0.013 A 
HETATM   14  C13 LIG X 999       0.305   0.819  -1.213  1.00  0.00     0.046 A 
BRANCH  14  15
HETATM   15  C14 LIG X 999       0.681   0.792  -2.651  1.00  0.00     0.273 C 
HETATM   16  O2  LIG X 999      -0.161   1.058  -3.550  1.00  0.00    -0.301 OA
ENDBRANCH  14  15
ENDBRANCH   4   5
ENDBRANCH   3   4
TORSDOF 3
