REMARK  1 active torsions:
REMARK  status: ('A' for Active; 'I' for Inactive)
REMARK    1  A    between atoms: C9_10  and  N2_11 
ROOT
HETATM    1  C1  LIG X 999       0.952  -1.501   3.936  1.00  0.00     0.272 C 
HETATM    2  N1  LIG X 999       1.053  -1.642   2.465  1.00  0.00    -0.067 N 
HETATM    3  C2  LIG X 999       2.205  -2.518   2.143  1.00  0.00     0.272 C 
HETATM    4  C3  LIG X 999      -0.206  -2.225   1.902  1.00  0.00     0.276 C 
HETATM    5  C4  LIG X 999      -0.584  -1.345   0.776  1.00  0.00    -0.024 A 
HETATM    6  C5  LIG X 999      -1.629  -1.518  -0.133  1.00  0.00     0.021 A 
HETATM    7  C6  LIG X 999      -1.829  -0.538  -1.125  1.00  0.00    -0.025 A 
HETATM    8  C7  LIG X 999      -2.863  -0.672  -2.062  1.00  0.00     0.014 A 
HETATM    9  C8  LIG X 999      -3.055   0.307  -3.041  1.00  0.00     0.030 A 
HETATM   10  C9  LIG X 999      -2.219   1.432  -3.097  1.00  0.00     0.026 A 
HETATM   11  C10 LIG X 999      -1.182   1.577  -2.164  1.00  0.00     0.041 A 
HETATM   12  C11 LIG X 999      -0.977   0.602  -1.177  1.00  0.00    -0.023 A 
HETATM   13  C12 LIG X 999       0.062   0.742  -0.235  1.00  0.00     0.021 A 
HETATM   14  C13 LIG X 999       0.231  -0.255   0.727  1.00  0.00    -0.024 A 
HETATM   15  C14 LIG X 999       1.230  -0.304   1.816  1.00  0.00     0.276 C 
ENDROOT
BRANCH  10  16
HETATM   16  N2  LIG X 999      -2.424   2.428  -4.102  1.00  0.00    -0.399 N 
HETATM   17  H12 LIG X 999      -3.193   2.331  -4.802  1.00  0.00     0.156 HD
HETATM   18  H13 LIG X 999      -1.808   3.270  -4.154  1.00  0.00     0.156 HD
ENDBRANCH  10  16
TORSDOF 1
