REMARK  3 active torsions:
REMARK  status: ('A' for Active; 'I' for Inactive)
REMARK    1  A    between atoms: C3_3  and  S1_4 
REMARK    2  A    between atoms: S1_4  and  C4_7 
REMARK    3  A    between atoms: C6_9  and  N1_10 
ROOT
HETATM    1  C1  LIG X 999       0.459   5.896   0.130  1.00  0.00     0.013 C 
HETATM    2  C2  LIG X 999       1.163   4.982  -0.217  1.00  0.00    -0.102 C 
HETATM    3  C3  LIG X 999       2.015   3.868  -0.641  1.00  0.00     0.238 C 
ENDROOT
BRANCH   3   4
HETATM    4  S1  LIG X 999       1.428   3.209  -2.192  1.00  0.00     0.186 S 
HETATM    5  O1  LIG X 999       1.575   4.272  -3.245  1.00  0.00    -0.222 OA
HETATM    6  O2  LIG X 999       2.266   2.030  -2.602  1.00  0.00    -0.222 OA
BRANCH   4   7
HETATM    7  C4  LIG X 999      -0.275   2.724  -2.052  1.00  0.00     0.073 A 
HETATM    8  C5  LIG X 999      -1.239   3.506  -2.709  1.00  0.00     0.058 A 
HETATM    9  C6  LIG X 999      -2.599   3.199  -2.639  1.00  0.00     0.095 A 
HETATM   10  C7  LIG X 999      -3.021   2.090  -1.892  1.00  0.00     0.046 A 
HETATM   11  C8  LIG X 999      -2.089   1.293  -1.216  1.00  0.00    -0.021 A 
HETATM   12  C9  LIG X 999      -2.533   0.187  -0.464  1.00  0.00     0.022 A 
HETATM   13  C13 LIG X 999      -0.695   1.604  -1.286  1.00  0.00    -0.004 A 
HETATM   14  C10 LIG X 999      -1.593  -0.586   0.211  1.00  0.00    -0.024 A 
HETATM   15  C11 LIG X 999      -0.267  -0.299   0.154  1.00  0.00    -0.024 A 
HETATM   16  C17 LIG X 999      -1.831  -1.790   1.035  1.00  0.00     0.276 C 
HETATM   17  C12 LIG X 999       0.218   0.780  -0.583  1.00  0.00     0.023 A 
HETATM   18  C14 LIG X 999       0.511  -1.285   0.935  1.00  0.00     0.276 C 
HETATM   19  N4  LIG X 999      -0.502  -2.141   1.630  1.00  0.00    -0.067 N 
HETATM   20  C15 LIG X 999      -0.503  -1.848   3.083  1.00  0.00     0.272 C 
HETATM   21  C16 LIG X 999      -0.202  -3.577   1.428  1.00  0.00     0.272 C 
BRANCH   9  22
HETATM   22  N1  LIG X 999      -3.531   4.038  -3.336  1.00  0.00    -0.073 NA
HETATM   23  N2  LIG X 999      -4.746   3.831  -3.319  1.00  0.00    -0.162 NA
HETATM   24  N3  LIG X 999      -5.958   3.627  -3.303  1.00  0.00     0.068 N 
ENDBRANCH   9  22
ENDBRANCH   4   7
ENDBRANCH   3   4
TORSDOF 3
