REMARK  2 active torsions:
REMARK  status: ('A' for Active; 'I' for Inactive)
REMARK    1  A    between atoms: C2_5  and  C3_6 
REMARK    2  A    between atoms: N3_18  and  C13_19 
ROOT
HETATM    1  H1  LIG X 999       2.325  -3.900   0.441  1.00  0.00     0.190 HD
HETATM    2  N1  LIG X 999       2.589  -2.897   0.316  1.00  0.00    -0.260 NA
HETATM    3  C1  LIG X 999       1.688  -1.999   0.078  1.00  0.00     0.268 A 
HETATM    4  O1  LIG X 999       0.402  -2.254  -0.009  1.00  0.00    -0.257 OA
HETATM    5  C2  LIG X 999      -0.164  -1.080  -0.205  1.00  0.00     0.177 A 
HETATM    6  N2  LIG X 999       0.765  -0.101  -0.254  1.00  0.00    -0.269 N 
HETATM    7  H9  LIG X 999       0.612   0.915  -0.441  1.00  0.00     0.190 HD
HETATM    8  N3  LIG X 999       1.940  -0.684  -0.081  1.00  0.00    -0.212 N 
ENDROOT
BRANCH   5   9
HETATM    9  C3  LIG X 999      -1.615  -0.883  -0.402  1.00  0.00     0.028 A 
HETATM   10  C4  LIG X 999      -2.278  -1.767  -1.267  1.00  0.00     0.017 A 
HETATM   11  C5  LIG X 999      -3.630  -1.599  -1.563  1.00  0.00     0.002 A 
HETATM   12  C6  LIG X 999      -4.348  -0.548  -0.996  1.00  0.00     0.012 A 
HETATM   13  C7  LIG X 999      -3.724   0.331  -0.100  1.00  0.00    -0.025 A 
HETATM   14  C8  LIG X 999      -4.463   1.367   0.492  1.00  0.00     0.012 A 
HETATM   15  C12 LIG X 999      -2.349   0.163   0.222  1.00  0.00    -0.011 A 
HETATM   16  C9  LIG X 999      -3.862   2.221   1.417  1.00  0.00     0.001 A 
HETATM   17  C10 LIG X 999      -2.525   2.041   1.769  1.00  0.00     0.001 A 
HETATM   18  C11 LIG X 999      -1.774   1.017   1.187  1.00  0.00     0.013 A 
ENDBRANCH   5   9
BRANCH   8  19
HETATM   19  C13 LIG X 999       3.199   0.009  -0.036  1.00  0.00     0.105 A 
HETATM   20  C14 LIG X 999       3.304   1.213   0.676  1.00  0.00     0.054 A 
HETATM   21  C15 LIG X 999       4.527   1.887   0.717  1.00  0.00     0.122 A 
HETATM   22  N4  LIG X 999       5.604   1.384   0.059  1.00  0.00    -0.230 NA
HETATM   23  C16 LIG X 999       5.530   0.228  -0.653  1.00  0.00     0.251 A 
HETATM   24  F1  LIG X 999       6.625  -0.228  -1.308  1.00  0.00    -0.181 F 
HETATM   25  C17 LIG X 999       4.326  -0.480  -0.719  1.00  0.00     0.202 A 
HETATM   26  F2  LIG X 999       4.251  -1.600  -1.481  1.00  0.00    -0.199 F 
ENDBRANCH   8  19
TORSDOF 2
