REMARK  2 active torsions:
REMARK  status: ('A' for Active; 'I' for Inactive)
REMARK    1  A    between atoms: C2_5  and  C3_6 
REMARK    2  A    between atoms: N3_17  and  C13_18 
ROOT
HETATM    1  H1  LIG X 999       3.172  -2.670  -0.276  1.00  0.00     0.190 HD
HETATM    2  N1  LIG X 999       2.142  -2.588  -0.420  1.00  0.00    -0.260 NA
HETATM    3  C1  LIG X 999       1.505  -1.465  -0.321  1.00  0.00     0.269 A 
HETATM    4  O1  LIG X 999       0.207  -1.357  -0.454  1.00  0.00    -0.255 OA
HETATM    5  C2  LIG X 999      -0.056  -0.086  -0.228  1.00  0.00     0.203 A 
HETATM    6  N2  LIG X 999       1.074   0.610   0.032  1.00  0.00    -0.137 NA
HETATM    7  N3  LIG X 999       2.061  -0.270  -0.031  1.00  0.00    -0.189 N 
ENDROOT
BRANCH   5   8
HETATM    8  C3  LIG X 999      -1.403   0.527  -0.295  1.00  0.00     0.030 A 
HETATM    9  C4  LIG X 999      -1.493   1.848  -0.769  1.00  0.00     0.017 A 
HETATM   10  C5  LIG X 999      -2.730   2.468  -0.936  1.00  0.00     0.002 A 
HETATM   11  C6  LIG X 999      -3.904   1.785  -0.633  1.00  0.00     0.012 A 
HETATM   12  C7  LIG X 999      -3.852   0.478  -0.132  1.00  0.00    -0.025 A 
HETATM   13  C8  LIG X 999      -5.043  -0.190   0.195  1.00  0.00     0.012 A 
HETATM   14  C12 LIG X 999      -2.596  -0.164   0.059  1.00  0.00    -0.011 A 
HETATM   15  C9  LIG X 999      -5.004  -1.477   0.729  1.00  0.00     0.001 A 
HETATM   16  C10 LIG X 999      -3.779  -2.103   0.955  1.00  0.00     0.001 A 
HETATM   17  C11 LIG X 999      -2.584  -1.456   0.633  1.00  0.00     0.013 A 
ENDBRANCH   5   8
BRANCH   7  18
HETATM   18  C13 LIG X 999       3.445   0.069   0.153  1.00  0.00     0.107 A 
HETATM   19  C14 LIG X 999       4.412  -0.344  -0.776  1.00  0.00     0.054 A 
HETATM   20  C15 LIG X 999       5.746   0.026  -0.592  1.00  0.00     0.122 A 
HETATM   21  N4  LIG X 999       6.101   0.792   0.474  1.00  0.00    -0.230 NA
HETATM   22  C16 LIG X 999       5.184   1.221   1.381  1.00  0.00     0.251 A 
HETATM   23  F1  LIG X 999       5.580   1.986   2.426  1.00  0.00    -0.181 F 
HETATM   24  C17 LIG X 999       3.837   0.875   1.233  1.00  0.00     0.203 A 
HETATM   25  F2  LIG X 999       2.926   1.302   2.144  1.00  0.00    -0.199 F 
ENDBRANCH   7  18
TORSDOF 2
