REMARK  3 active torsions:
REMARK  status: ('A' for Active; 'I' for Inactive)
REMARK    1  A    between atoms: C3_3  and  S1_4 
REMARK    2  A    between atoms: S1_4  and  N1_7 
REMARK    3  A    between atoms: C10_16  and  N4_17 
ROOT
HETATM    1  N1  LIG X 999       1.436   2.317  -2.853  1.00  0.00     0.026 NA
HETATM    2  N2  LIG X 999       2.390   1.540  -2.816  1.00  0.00    -0.150 NA
HETATM    3  N3  LIG X 999       3.343   0.764  -2.777  1.00  0.00     0.069 N 
ENDROOT
BRANCH   1   4
HETATM    4  S1  LIG X 999      -0.166   1.716  -3.094  1.00  0.00     0.311 S 
HETATM    5  O1  LIG X 999      -0.254   1.103  -4.464  1.00  0.00    -0.196 OA
HETATM    6  O2  LIG X 999      -1.143   2.853  -2.999  1.00  0.00    -0.196 OA
BRANCH   4   7
HETATM    7  C3  LIG X 999      -0.552   0.522  -1.858  1.00  0.00     0.084 A 
HETATM    8  C2  LIG X 999      -1.300  -0.615  -2.181  1.00  0.00     0.026 A 
HETATM    9  C1  LIG X 999      -1.610  -1.555  -1.196  1.00  0.00     0.009 A 
HETATM   10  C6  LIG X 999      -1.190  -1.366   0.129  1.00  0.00    -0.050 A 
HETATM   11  C5  LIG X 999      -0.419  -0.224   0.459  1.00  0.00    -0.023 A 
HETATM   12  C7  LIG X 999      -1.478  -2.449   1.143  1.00  0.00     0.039 C 
HETATM   13  C4  LIG X 999      -0.122   0.718  -0.540  1.00  0.00     0.035 A 
HETATM   14  C10 LIG X 999       0.011   0.061   1.881  1.00  0.00     0.179 C 
HETATM   15  C9  LIG X 999       0.002  -1.210   2.751  1.00  0.00     0.035 C 
HETATM   16  C8  LIG X 999      -1.315  -1.969   2.587  1.00  0.00     0.007 C 
BRANCH  14  17
HETATM   17  N4  LIG X 999      -0.874   1.078   2.445  1.00  0.00    -0.105 NA
HETATM   18  N5  LIG X 999      -0.624   1.614   3.525  1.00  0.00    -0.167 NA
HETATM   19  N6  LIG X 999      -0.375   2.149   4.604  1.00  0.00     0.068 N 
ENDBRANCH  14  17
ENDBRANCH   4   7
ENDBRANCH   1   4
TORSDOF 3
