REMARK  5 active torsions:
REMARK  status: ('A' for Active; 'I' for Inactive)
REMARK    1  A    between atoms: C3_3  and  N1_4 
REMARK    2  A    between atoms: N1_4  and  C6_7 
REMARK    3  A    between atoms: C6_7  and  C7_8 
REMARK    4  A    between atoms: C9_10  and  C10_11 
REMARK    5  A    between atoms: C11_15  and  N4_16 
ROOT
HETATM    1  C1  LIG X 999      -2.601  -0.243   3.433  1.00  0.00     0.013 C 
HETATM    2  C2  LIG X 999      -2.922  -0.284   2.272  1.00  0.00    -0.089 C 
HETATM    3  C3  LIG X 999      -3.315  -0.333   0.850  1.00  0.00     0.329 C 
ENDROOT
BRANCH   3   4
HETATM    4  N1  LIG X 999      -3.103  -1.671   0.218  1.00  0.00    -0.061 N 
HETATM    5  C4  LIG X 999      -3.544  -1.592  -1.198  1.00  0.00     0.273 C 
HETATM    6  C5  LIG X 999      -3.956  -2.682   0.895  1.00  0.00     0.273 C 
BRANCH   4   7
HETATM    7  C6  LIG X 999      -1.677  -2.129   0.294  1.00  0.00     0.275 C 
BRANCH   7   8
HETATM    8  C7  LIG X 999      -0.684  -1.214  -0.397  1.00  0.00    -0.035 C 
HETATM    9  C8  LIG X 999      -0.093  -0.204   0.276  1.00  0.00     0.001 C 
HETATM   10  C9  LIG X 999       0.737   0.823  -0.465  1.00  0.00     0.054 C 
HETATM   11  C12 LIG X 999       1.728   1.534   0.490  1.00  0.00     0.023 C 
HETATM   12  C16 LIG X 999       1.568   0.075  -1.550  1.00  0.00     0.028 C 
HETATM   13  C13 LIG X 999       2.651   2.501  -0.279  1.00  0.00     0.002 C 
HETATM   14  C14 LIG X 999       3.405   1.792  -1.416  1.00  0.00     0.001 C 
HETATM   15  C15 LIG X 999       2.451   1.040  -2.359  1.00  0.00     0.010 C 
HETATM   16  C17 LIG X 999       0.674  -0.788  -2.405  1.00  0.00    -0.020 C 
HETATM   17  C18 LIG X 999      -0.347  -1.438  -1.831  1.00  0.00     0.005 C 
BRANCH  10  18
HETATM   18  C10 LIG X 999      -0.240   1.829  -1.054  1.00  0.00     0.182 A 
HETATM   19  N2  LIG X 999      -0.796   2.844  -0.354  1.00  0.00    -0.149 NA
HETATM   20  N3  LIG X 999      -1.625   3.444  -1.191  1.00  0.00    -0.236 N 
HETATM   21  H13 LIG X 999      -2.216   4.273  -0.962  1.00  0.00     0.193 HD
HETATM   22  C11 LIG X 999      -1.558   2.782  -2.354  1.00  0.00     0.301 A 
HETATM   23  O1  LIG X 999      -0.713   1.783  -2.283  1.00  0.00    -0.257 OA
BRANCH  22  24
HETATM   24  N4  LIG X 999      -2.318   3.122  -3.512  1.00  0.00    -0.025 NA
HETATM   25  N5  LIG X 999      -2.217   2.460  -4.546  1.00  0.00    -0.158 NA
HETATM   26  N6  LIG X 999      -2.116   1.799  -5.578  1.00  0.00     0.068 N 
ENDBRANCH  22  24
ENDBRANCH  10  18
ENDBRANCH   7   8
ENDBRANCH   4   7
ENDBRANCH   3   4
TORSDOF 5
