REMARK  1 active torsions:
REMARK  status: ('A' for Active; 'I' for Inactive)
REMARK    1  A    between atoms: C11_13  and  N2_14 
ROOT
HETATM    1  N2  LIG X 999       0.836  -1.425   1.867  1.00  0.00    -0.053 NA
HETATM    2  N3  LIG X 999       0.946  -2.641   2.029  1.00  0.00    -0.160 NA
HETATM    3  N4  LIG X 999       1.055  -3.855   2.192  1.00  0.00     0.068 N 
ENDROOT
BRANCH   1   4
HETATM    4  C11 LIG X 999       0.627  -0.868   0.568  1.00  0.00     0.175 A 
HETATM    5  C10 LIG X 999       0.493   0.485   0.294  1.00  0.00     0.026 A 
HETATM    6  C5  LIG X 999       0.313   0.558  -1.046  1.00  0.00     0.017 A 
HETATM    7  C9  LIG X 999       0.509   1.643   1.071  1.00  0.00     0.016 A 
HETATM    8  C4  LIG X 999       0.337  -0.693  -1.567  1.00  0.00     0.046 A 
HETATM    9  C6  LIG X 999       0.136   1.726  -1.756  1.00  0.00     0.005 A 
HETATM   10  C3  LIG X 999       0.164  -0.907  -3.013  1.00  0.00     0.033 A 
HETATM   11  N5  LIG X 999       0.531  -1.597  -0.581  1.00  0.00    -0.337 N 
HETATM   12  C2  LIG X 999      -0.017   0.175  -3.804  1.00  0.00     0.034 A 
HETATM   13  C1  LIG X 999      -0.044   1.564  -3.232  1.00  0.00     0.059 A 
HETATM   14  N1  LIG X 999      -0.220   2.574  -4.023  1.00  0.00    -0.300 NA
HETATM   15  H1  LIG X 999      -0.249   3.563  -3.692  1.00  0.00     0.187 HD
HETATM   16  H7  LIG X 999       0.593  -2.634  -0.684  1.00  0.00     0.167 HD
HETATM   17  C7  LIG X 999       0.146   2.927  -1.008  1.00  0.00     0.015 A 
HETATM   18  C8  LIG X 999       0.333   2.879   0.402  1.00  0.00     0.002 A 
ENDBRANCH   1   4
TORSDOF 1
