REMARK  3 active torsions:
REMARK  status: ('A' for Active; 'I' for Inactive)
REMARK       I    between atoms: N1_2  and  C3_4 
REMARK    1  A    between atoms: C3_4  and  O2_6 
REMARK    2  A    between atoms: O2_6  and  C4_7 
REMARK    3  A    between atoms: C7_10  and  N2_11 
ROOT
HETATM    1  C4  LIG X 999       0.023  -0.613  -0.959  1.00  0.00     0.092 A 
HETATM    2  C5  LIG X 999      -0.650  -1.586  -1.711  1.00  0.00     0.040 A 
HETATM    3  C6  LIG X 999      -1.510  -2.490  -1.095  1.00  0.00     0.033 A 
HETATM    4  C7  LIG X 999      -1.736  -2.447   0.287  1.00  0.00     0.037 A 
HETATM    5  C8  LIG X 999      -1.102  -1.441   1.065  1.00  0.00     0.003 A 
HETATM    6  C9  LIG X 999      -1.337  -1.302   2.451  1.00  0.00     0.014 A 
HETATM    7  C10 LIG X 999      -0.694  -0.306   3.188  1.00  0.00     0.001 A 
HETATM    8  C11 LIG X 999       0.186   0.574   2.563  1.00  0.00     0.001 A 
HETATM    9  C12 LIG X 999       0.424   0.471   1.194  1.00  0.00     0.015 A 
HETATM   10  C13 LIG X 999      -0.215  -0.524   0.428  1.00  0.00     0.010 A 
ENDROOT
BRANCH   1  11
HETATM   11  O2  LIG X 999       0.892   0.306  -1.571  1.00  0.00    -0.261 OA
BRANCH  11  12
HETATM   12  C3  LIG X 999       1.687   0.049  -2.698  1.00  0.00     0.367 C 
HETATM   13  N1  LIG X 999       2.307   1.143  -3.394  1.00  0.00    -0.336 N 
HETATM   14  C1  LIG X 999       3.153   0.881  -4.561  1.00  0.00     0.154 C 
HETATM   15  C2  LIG X 999       2.077   2.512  -2.925  1.00  0.00     0.154 C 
HETATM   16  O1  LIG X 999       1.900  -1.137  -3.072  1.00  0.00    -0.238 OA
ENDBRANCH  11  12
ENDBRANCH   1  11
BRANCH   4  17
HETATM   17  N2  LIG X 999      -2.603  -3.439   0.860  1.00  0.00    -0.398 N 
HETATM   18  H9  LIG X 999      -3.141  -4.086   0.241  1.00  0.00     0.156 HD
HETATM   19  H10 LIG X 999      -2.653  -3.633   1.882  1.00  0.00     0.156 HD
ENDBRANCH   4  17
TORSDOF 3
