REMARK  2 active torsions:
REMARK  status: ('A' for Active; 'I' for Inactive)
REMARK    1  A    between atoms: C9_10  and  N2_11 
REMARK       I    between atoms: N2_11  and  C10_12 
REMARK    2  A    between atoms: C10_12  and  C11_14 
ROOT
HETATM    1  C11 LIG X 999       5.351  -3.645  -1.816  1.00  0.00     0.282 C 
HETATM    2 CL1  LIG X 999       5.750  -4.352  -0.230  1.00  0.00    -0.099 Cl
HETATM    3  C12 LIG X 999       5.215  -4.716  -2.808  1.00  0.00     0.089 C 
HETATM    4  N3  LIG X 999       5.108  -5.561  -3.591  1.00  0.00    -0.195 NA
ENDROOT
BRANCH   1   5
HETATM    5  C10 LIG X 999       4.077  -2.865  -1.726  1.00  0.00     0.276 C 
HETATM    6  N2  LIG X 999       2.887  -3.498  -1.234  1.00  0.00    -0.212 NA
HETATM    7  O1  LIG X 999       4.046  -1.677  -2.146  1.00  0.00    -0.268 OA
BRANCH   6   8
HETATM    8  C9  LIG X 999       1.668  -2.845  -0.852  1.00  0.00     0.061 A 
HETATM    9  C8  LIG X 999       0.478  -3.581  -0.881  1.00  0.00     0.032 A 
HETATM   10  C7  LIG X 999      -0.733  -2.997  -0.501  1.00  0.00     0.014 A 
HETATM   11  C6  LIG X 999      -0.768  -1.666  -0.068  1.00  0.00    -0.025 A 
HETATM   12  C5  LIG X 999      -1.984  -1.067   0.316  1.00  0.00     0.021 A 
HETATM   13  C14 LIG X 999       0.440  -0.914  -0.011  1.00  0.00    -0.023 A 
HETATM   14  C4  LIG X 999      -1.968   0.257   0.755  1.00  0.00    -0.024 A 
HETATM   15  C3  LIG X 999      -3.116   1.086   1.182  1.00  0.00     0.276 C 
HETATM   16  C16 LIG X 999      -0.812   0.975   0.813  1.00  0.00    -0.024 A 
HETATM   17  N1  LIG X 999      -2.525   2.371   1.674  1.00  0.00    -0.067 N 
HETATM   18  C1  LIG X 999      -3.214   3.530   1.065  1.00  0.00     0.272 C 
HETATM   19  C2  LIG X 999      -2.651   2.456   3.149  1.00  0.00     0.272 C 
HETATM   20  C17 LIG X 999      -1.079   2.351   1.284  1.00  0.00     0.276 C 
HETATM   21  C15 LIG X 999       0.412   0.422   0.435  1.00  0.00     0.021 A 
HETATM   22  C13 LIG X 999       1.649  -1.514  -0.397  1.00  0.00     0.044 A 
ENDBRANCH   6   8
ENDBRANCH   1   5
TORSDOF 2
