REMARK  7 active torsions:
REMARK  status: ('A' for Active; 'I' for Inactive)
REMARK    1  A    between atoms: O1_2  and  C1_3 
REMARK    2  A    between atoms: C1_3  and  C14_20 
REMARK    3  A    between atoms: N1_4  and  C2_5 
REMARK    4  A    between atoms: C2_5  and  O2_6 
REMARK    5  A    between atoms: O2_6  and  C3_7 
REMARK    6  A    between atoms: C3_7  and  O4_9 
REMARK    7  A    between atoms: O4_9  and  C4_10 
ROOT
HETATM    1  C3  LIG X 999      -0.062  -2.370  -0.192  1.00  0.00     0.413 C 
HETATM    2  O3  LIG X 999      -1.137  -2.674  -0.778  1.00  0.00    -0.229 OA
ENDROOT
BRANCH   1   3
HETATM    3  O2  LIG X 999       0.170  -2.789   1.120  1.00  0.00    -0.276 OA
BRANCH   3   4
HETATM    4  C2  LIG X 999      -0.803  -3.493   1.886  1.00  0.00     0.332 C 
BRANCH   4   5
HETATM    5  N1  LIG X 999      -0.355  -3.607   3.271  1.00  0.00    -0.238 NA
HETATM    6  C1  LIG X 999      -0.170  -2.642   4.131  1.00  0.00     0.190 C 
BRANCH   6   7
HETATM    7  O1  LIG X 999       0.276  -2.970   5.408  1.00  0.00    -0.343 OA
HETATM    8  H1  LIG X 999       0.454  -3.932   5.671  1.00  0.00     0.219 HD
ENDBRANCH   6   7
BRANCH   6   9
HETATM    9  C14 LIG X 999      -0.405  -1.208   3.829  1.00  0.00     0.130 A 
HETATM   10  N2  LIG X 999      -0.910  -0.717   2.679  1.00  0.00    -0.169 NA
HETATM   11  N3  LIG X 999      -0.956   0.599   2.793  1.00  0.00    -0.285 N 
HETATM   12  C15 LIG X 999      -1.496   1.484   1.770  1.00  0.00     0.179 C 
HETATM   13  C16 LIG X 999      -0.514   0.972   4.007  1.00  0.00     0.114 A 
HETATM   14  C17 LIG X 999      -0.145  -0.162   4.699  1.00  0.00     0.056 A 
ENDBRANCH   6   9
ENDBRANCH   4   5
ENDBRANCH   3   4
ENDBRANCH   1   3
BRANCH   1  15
HETATM   15  O4  LIG X 999       0.933  -1.641  -0.852  1.00  0.00    -0.256 OA
BRANCH  15  16
HETATM   16  C4  LIG X 999       0.726  -0.835  -1.981  1.00  0.00     0.082 A 
HETATM   17  C5  LIG X 999       1.795  -0.637  -2.863  1.00  0.00     0.038 A 
HETATM   18  C6  LIG X 999       1.646   0.168  -3.995  1.00  0.00     0.015 A 
HETATM   19  C7  LIG X 999       0.422   0.801  -4.254  1.00  0.00    -0.026 A 
HETATM   20  C8  LIG X 999       0.262   1.614  -5.387  1.00  0.00     0.012 A 
HETATM   21  C12 LIG X 999      -0.660   0.624  -3.359  1.00  0.00    -0.023 A 
HETATM   22  C9  LIG X 999      -0.961   2.248  -5.627  1.00  0.00     0.001 A 
HETATM   23  C10 LIG X 999      -2.028   2.076  -4.742  1.00  0.00     0.001 A 
HETATM   24  C11 LIG X 999      -1.881   1.268  -3.611  1.00  0.00     0.012 A 
HETATM   25  C13 LIG X 999      -0.500  -0.189  -2.226  1.00  0.00     0.049 A 
ENDBRANCH  15  16
ENDBRANCH   1  15
TORSDOF 7
