REMARK  7 active torsions:
REMARK  status: ('A' for Active; 'I' for Inactive)
REMARK    1  A    between atoms: C3_3  and  O1_4 
REMARK    2  A    between atoms: C3_3  and  C8_14 
REMARK    3  A    between atoms: C3_3  and  C18_24 
REMARK    4  A    between atoms: O1_4  and  C4_5 
REMARK    5  A    between atoms: C4_5  and  C5_7 
REMARK    6  A    between atoms: C5_7  and  C6_8 
REMARK    7  A    between atoms: C7_11  and  N3_12 
ROOT
HETATM    1  C1  LIG X 999       0.184  -2.362   0.269  1.00  0.00     0.015 C 
HETATM    2  C2  LIG X 999       0.158  -1.156   0.281  1.00  0.00    -0.072 C 
HETATM    3  C3  LIG X 999       0.120   0.330   0.292  1.00  0.00     0.166 C 
ENDROOT
BRANCH   3   4
HETATM    4  O1  LIG X 999      -1.044   0.735  -0.448  1.00  0.00    -0.291 OA
BRANCH   4   5
HETATM    5  C4  LIG X 999      -1.327   0.388  -1.779  1.00  0.00     0.268 C 
HETATM    6  O2  LIG X 999      -0.505  -0.278  -2.466  1.00  0.00    -0.265 OA
BRANCH   5   7
HETATM    7  C5  LIG X 999      -2.621   0.823  -2.384  1.00  0.00     0.194 C 
BRANCH   7   8
HETATM    8  C6  LIG X 999      -3.760   0.290  -1.576  1.00  0.00     0.174 A 
HETATM    9  N1  LIG X 999      -4.316   0.958  -0.544  1.00  0.00    -0.143 NA
HETATM   10  N2  LIG X 999      -5.226   0.146  -0.040  1.00  0.00    -0.106 N 
HETATM   11  C7  LIG X 999      -5.195  -0.987  -0.758  1.00  0.00     0.716 A 
HETATM   12  H4  LIG X 999      -5.838   0.364   0.776  1.00  0.00     0.208 HD
HETATM   13  N4  LIG X 999      -4.275  -0.949  -1.741  1.00  0.00    -0.046 NA
BRANCH  11  14
HETATM   14  N3  LIG X 999      -6.031  -2.112  -0.502  1.00  0.00    -0.231 N 
HETATM   15  H5  LIG X 999      -6.724  -2.087   0.279  1.00  0.00     0.174 HD
HETATM   16  H6  LIG X 999      -5.956  -2.969  -1.093  1.00  0.00     0.174 HD
ENDBRANCH  11  14
ENDBRANCH   7   8
ENDBRANCH   5   7
ENDBRANCH   4   5
ENDBRANCH   3   4
BRANCH   3  17
HETATM   17  C8  LIG X 999       1.388   0.895  -0.377  1.00  0.00    -0.009 A 
HETATM   18  C9  LIG X 999       1.331   2.106  -1.098  1.00  0.00     0.012 A 
HETATM   19  C10 LIG X 999       2.474   2.647  -1.691  1.00  0.00     0.013 A 
HETATM   20  C11 LIG X 999       3.708   1.998  -1.568  1.00  0.00    -0.026 A 
HETATM   21  C12 LIG X 999       4.862   2.536  -2.160  1.00  0.00     0.012 A 
HETATM   22  C16 LIG X 999       3.792   0.793  -0.835  1.00  0.00    -0.025 A 
HETATM   23  C13 LIG X 999       6.089   1.883  -2.023  1.00  0.00     0.001 A 
HETATM   24  C14 LIG X 999       6.175   0.692  -1.296  1.00  0.00     0.001 A 
HETATM   25  C15 LIG X 999       5.032   0.147  -0.703  1.00  0.00     0.012 A 
HETATM   26  C17 LIG X 999       2.640   0.255  -0.243  1.00  0.00     0.023 A 
ENDBRANCH   3  17
BRANCH   3  27
HETATM   27  C18 LIG X 999      -0.041   0.857   1.777  1.00  0.00    -0.003 C 
HETATM   28  C19 LIG X 999      -0.135   2.401   1.806  1.00  0.00     0.019 C 
HETATM   29  C20 LIG X 999       1.145   0.432   2.678  1.00  0.00     0.019 C 
HETATM   30  C21 LIG X 999      -1.346   0.300   2.406  1.00  0.00     0.019 C 
ENDBRANCH   3  27
TORSDOF 7
