REMARK  6 active torsions:
REMARK  status: ('A' for Active; 'I' for Inactive)
REMARK    1  A    between atoms: O1_2  and  C1_3 
REMARK    2  A    between atoms: C1_3  and  O2_15 
REMARK    3  A    between atoms: N1_4  and  C2_5 
REMARK    4  A    between atoms: C6_10  and  C7_11 
REMARK    5  A    between atoms: O2_15  and  C8_16 
REMARK    6  A    between atoms: C9_17  and  C10_18 
REMARK       I    between atoms: C10_18  and  N3_20 
ROOT
HETATM    1  C10 LIG X 999      -1.127   1.844  -2.684  1.00  0.00     0.311 C 
HETATM    2  O3  LIG X 999      -0.894   1.583  -3.894  1.00  0.00    -0.263 OA
HETATM    3  N3  LIG X 999      -1.291   3.213  -2.296  1.00  0.00    -0.028 NA
HETATM    4  N4  LIG X 999      -1.312   3.561  -1.115  1.00  0.00    -0.159 NA
HETATM    5  N5  LIG X 999      -1.331   3.910   0.064  1.00  0.00     0.068 N 
ENDROOT
BRANCH   1   6
HETATM    6  C9  LIG X 999      -1.215   0.733  -1.706  1.00  0.00     0.071 A 
HETATM    7  C8  LIG X 999      -0.259  -0.303  -1.715  1.00  0.00     0.096 A 
HETATM    8  C18 LIG X 999      -0.370  -1.360  -0.794  1.00  0.00     0.050 A 
HETATM    9  C17 LIG X 999      -1.394  -1.369   0.161  1.00  0.00    -0.023 A 
HETATM   10  C12 LIG X 999      -2.344  -0.323   0.178  1.00  0.00    -0.025 A 
HETATM   11  C16 LIG X 999      -1.486  -2.408   1.100  1.00  0.00     0.012 A 
HETATM   12  C11 LIG X 999      -2.254   0.713  -0.761  1.00  0.00     0.032 A 
HETATM   13  C13 LIG X 999      -3.372  -0.335   1.134  1.00  0.00     0.012 A 
HETATM   14  C14 LIG X 999      -3.453  -1.374   2.066  1.00  0.00     0.001 A 
HETATM   15  C15 LIG X 999      -2.512  -2.407   2.049  1.00  0.00     0.001 A 
BRANCH   7  16
HETATM   16  O2  LIG X 999       0.800  -0.257  -2.638  1.00  0.00    -0.272 OA
BRANCH  16  17
HETATM   17  C1  LIG X 999       2.049  -0.866  -2.445  1.00  0.00     0.290 C 
HETATM   18  N1  LIG X 999       2.742  -0.702  -1.352  1.00  0.00    -0.200 NA
BRANCH  17  19
HETATM   19  O1  LIG X 999       2.558  -1.670  -3.458  1.00  0.00    -0.325 OA
HETATM   20  H1  LIG X 999       3.456  -2.130  -3.360  1.00  0.00     0.221 HD
ENDBRANCH  17  19
BRANCH  18  21
HETATM   21  C2  LIG X 999       2.435   0.197  -0.271  1.00  0.00     0.094 A 
HETATM   22  C3  LIG X 999       1.991   1.506  -0.527  1.00  0.00     0.148 A 
HETATM   23  N2  LIG X 999       1.696   2.345   0.499  1.00  0.00    -0.271 NA
HETATM   24  C4  LIG X 999       1.834   1.962   1.793  1.00  0.00     0.117 A 
HETATM   25  C5  LIG X 999       2.311   0.688   2.101  1.00  0.00     0.038 A 
HETATM   26  C6  LIG X 999       2.641  -0.206   1.067  1.00  0.00     0.079 A 
BRANCH  26  27
HETATM   27  C7  LIG X 999       3.165  -1.590   1.381  1.00  0.00     0.419 C 
HETATM   28  F1  LIG X 999       3.407  -1.751   2.735  1.00  0.00    -0.166 F 
HETATM   29  F2  LIG X 999       4.350  -1.806   0.702  1.00  0.00    -0.166 F 
HETATM   30  F3  LIG X 999       2.238  -2.536   0.986  1.00  0.00    -0.166 F 
ENDBRANCH  26  27
ENDBRANCH  18  21
ENDBRANCH  16  17
ENDBRANCH   7  16
ENDBRANCH   1   6
TORSDOF 6
