REMARK  1 active torsions:
REMARK  status: ('A' for Active; 'I' for Inactive)
REMARK    1  A    between atoms: C5_8  and  O1_9 
ROOT
HETATM    1  H1  LIG X 999       2.773   2.210   2.660  1.00  0.00     0.187 HD
HETATM    2  N1  LIG X 999       3.295   1.518   2.080  1.00  0.00    -0.300 NA
HETATM    3  C1  LIG X 999       2.713   0.671   1.290  1.00  0.00     0.059 A 
HETATM    4  C2  LIG X 999       3.550  -0.288   0.493  1.00  0.00     0.034 A 
HETATM    5  C3  LIG X 999       2.983  -1.188  -0.342  1.00  0.00     0.035 A 
HETATM    6  C4  LIG X 999       1.515  -1.209  -0.457  1.00  0.00     0.071 A 
HETATM    7  N2  LIG X 999       0.733  -2.010  -1.219  1.00  0.00    -0.224 NA
HETATM    8  C5  LIG X 999      -0.539  -1.601  -0.939  1.00  0.00     0.174 A 
HETATM    9  C6  LIG X 999      -0.542  -0.565  -0.019  1.00  0.00     0.030 A 
HETATM   10  C7  LIG X 999      -1.539   0.196   0.591  1.00  0.00     0.017 A 
HETATM   11  C8  LIG X 999      -1.127   1.196   1.505  1.00  0.00     0.002 A 
HETATM   12  C9  LIG X 999       0.253   1.407   1.782  1.00  0.00     0.015 A 
HETATM   13  C10 LIG X 999       1.227   0.609   1.138  1.00  0.00     0.005 A 
HETATM   14  C11 LIG X 999       0.759  -0.345   0.260  1.00  0.00     0.020 A 
ENDROOT
BRANCH   8  15
HETATM   15  O1  LIG X 999      -1.674  -2.163  -1.512  1.00  0.00    -0.344 OA
HETATM   16  H4  LIG X 999      -1.593  -2.920  -2.179  1.00  0.00     0.219 HD
ENDBRANCH   8  15
TORSDOF 1
