REMARK  5 active torsions:
REMARK  status: ('A' for Active; 'I' for Inactive)
REMARK    1  A    between atoms: N1_1  and  C1_2 
REMARK    2  A    between atoms: C1_2  and  C2_3 
REMARK    3  A    between atoms: C2_3  and  C3_4 
REMARK    4  A    between atoms: C3_4  and  O1_5 
REMARK    5  A    between atoms: O1_5  and  C4_6 
ROOT
HETATM    1  C4  LIG X 999      -0.343   0.205   0.084  1.00  0.00     0.069 A 
HETATM    2  C5  LIG X 999      -0.364  -0.842  -0.858  1.00  0.00     0.037 A 
HETATM    3  C6  LIG X 999      -0.046  -2.147  -0.473  1.00  0.00     0.015 A 
HETATM    4  C7  LIG X 999       0.296  -2.428   0.856  1.00  0.00    -0.026 A 
HETATM    5  C8  LIG X 999       0.617  -3.736   1.253  1.00  0.00     0.012 A 
HETATM    6  C9  LIG X 999       0.957  -4.002   2.583  1.00  0.00     0.001 A 
HETATM    7  C10 LIG X 999       0.980  -2.968   3.523  1.00  0.00     0.001 A 
HETATM    8  C11 LIG X 999       0.663  -1.662   3.141  1.00  0.00     0.012 A 
HETATM    9  C12 LIG X 999       0.320  -1.381   1.809  1.00  0.00    -0.023 A 
HETATM   10  C13 LIG X 999      -0.001  -0.074   1.413  1.00  0.00     0.049 A 
ENDROOT
BRANCH   1  11
HETATM   11  O1  LIG X 999      -0.655   1.529  -0.257  1.00  0.00    -0.351 OA
BRANCH  11  12
HETATM   12  C3  LIG X 999      -1.034   1.959  -1.563  1.00  0.00     0.177 C 
BRANCH  12  13
HETATM   13  C2  LIG X 999      -1.304   3.466  -1.563  1.00  0.00     0.056 C 
BRANCH  13  14
HETATM   14  C1  LIG X 999      -2.426   3.879  -0.602  1.00  0.00     0.269 C 
BRANCH  14  15
HETATM   15  N1  LIG X 999      -3.718   3.369  -1.055  1.00  0.00     0.078 N 
HETATM   16  H1  LIG X 999      -3.793   2.365  -0.772  1.00  0.00     0.312 HD
HETATM   17  H2  LIG X 999      -4.464   3.874  -0.525  1.00  0.00     0.312 HD
ENDBRANCH  14  15
ENDBRANCH  13  14
ENDBRANCH  12  13
ENDBRANCH  11  12
ENDBRANCH   1  11
TORSDOF 5
