REMARK  4 active torsions:
REMARK  status: ('A' for Active; 'I' for Inactive)
REMARK    1  A    between atoms: C3_4  and  O1_5 
REMARK    2  A    between atoms: C3_4  and  O2_6 
REMARK    3  A    between atoms: O2_6  and  C4_7 
REMARK    4  A    between atoms: C13_16  and  N2_17 
ROOT
HETATM    1  C4  LIG X 999       0.760   0.108  -0.787  1.00  0.00     0.106 A 
HETATM    2  C5  LIG X 999      -0.629  -0.059  -0.898  1.00  0.00     0.040 A 
HETATM    3  C6  LIG X 999      -1.458   1.031  -1.142  1.00  0.00     0.015 A 
HETATM    4  C7  LIG X 999      -0.915   2.308  -1.312  1.00  0.00    -0.024 A 
HETATM    5  C8  LIG X 999      -1.764   3.396  -1.573  1.00  0.00     0.012 A 
HETATM    6  C9  LIG X 999      -1.234   4.669  -1.775  1.00  0.00     0.001 A 
HETATM    7  C10 LIG X 999       0.145   4.867  -1.729  1.00  0.00     0.001 A 
HETATM    8  C11 LIG X 999       1.004   3.797  -1.470  1.00  0.00     0.014 A 
HETATM    9  C12 LIG X 999       0.492   2.500  -1.239  1.00  0.00     0.003 A 
HETATM   10  C13 LIG X 999       1.332   1.385  -0.962  1.00  0.00     0.071 A 
ENDROOT
BRANCH   1  11
HETATM   11  O2  LIG X 999       1.600  -0.988  -0.538  1.00  0.00    -0.272 OA
BRANCH  11  12
HETATM   12  C3  LIG X 999       1.267  -2.099   0.252  1.00  0.00     0.265 C 
HETATM   13  N1  LIG X 999       1.997  -3.189   0.175  1.00  0.00    -0.350 N 
HETATM   14  C1  LIG X 999       1.698  -4.371   0.995  1.00  0.00     0.153 C 
HETATM   15  C2  LIG X 999       3.136  -3.230  -0.754  1.00  0.00     0.153 C 
BRANCH  12  16
HETATM   16  O1  LIG X 999       0.183  -2.001   1.135  1.00  0.00    -0.327 OA
HETATM   17  H7  LIG X 999      -0.123  -2.748   1.745  1.00  0.00     0.221 HD
ENDBRANCH  12  16
ENDBRANCH  11  12
ENDBRANCH   1  11
BRANCH  10  18
HETATM   18  N2  LIG X 999       2.757   1.526  -0.826  1.00  0.00    -0.396 N 
HETATM   19  H14 LIG X 999       3.218   2.439  -0.626  1.00  0.00     0.156 HD
HETATM   20  H15 LIG X 999       3.380   0.689  -0.807  1.00  0.00     0.156 HD
ENDBRANCH  10  18
TORSDOF 4
