REMARK  6 active torsions:
REMARK  status: ('A' for Active; 'I' for Inactive)
REMARK    1  A    between atoms: N1_15  and  C15_17 
REMARK    2  A    between atoms: C15_17  and  C16_18 
REMARK    3  A    between atoms: C16_18  and  C17_19 
REMARK    4  A    between atoms: C17_19  and  C18_20 
REMARK    5  A    between atoms: C18_20  and  C19_21 
REMARK    6  A    between atoms: C19_21  and  N2_22 
ROOT
HETATM    1  C1  LIG X 999      -2.173  -6.071   2.769  1.00  0.00     0.001 C 
HETATM    2  C2  LIG X 999      -0.977  -5.600   3.303  1.00  0.00     0.001 C 
HETATM    3  C3  LIG X 999      -0.613  -4.261   3.145  1.00  0.00     0.013 C 
HETATM    4  C4  LIG X 999      -1.466  -3.343   2.487  1.00  0.00    -0.013 C 
HETATM    5  C5  LIG X 999      -2.622  -3.873   1.845  1.00  0.00    -0.025 C 
HETATM    6  C6  LIG X 999      -2.984  -5.218   2.025  1.00  0.00     0.012 C 
HETATM    7  C7  LIG X 999      -3.377  -3.073   0.985  1.00  0.00     0.014 C 
HETATM    8  C8  LIG X 999      -2.975  -1.775   0.704  1.00  0.00     0.031 C 
HETATM    9  C9  LIG X 999      -1.876  -1.205   1.359  1.00  0.00     0.045 C 
HETATM   10  C10 LIG X 999      -1.167  -1.947   2.347  1.00  0.00     0.008 C 
HETATM   11  C11 LIG X 999      -0.238  -1.221   3.152  1.00  0.00    -0.045 C 
HETATM   12  C12 LIG X 999       0.274  -1.690   4.493  1.00  0.00     0.049 C 
HETATM   13  C13 LIG X 999       0.135   0.074   2.770  1.00  0.00     0.056 C 
HETATM   14  C14 LIG X 999      -0.489   0.715   1.694  1.00  0.00     0.101 C 
HETATM   15  N1  LIG X 999      -0.105   1.925   1.359  1.00  0.00    -0.376 N 
HETATM   16  H11 LIG X 999       0.649   2.391   1.915  1.00  0.00     0.161 HD
HETATM   17  N3  LIG X 999      -1.512   0.075   1.052  1.00  0.00    -0.342 N 
HETATM   18  H28 LIG X 999      -2.053   0.564   0.306  1.00  0.00     0.167 HD
ENDROOT
BRANCH  15  19
HETATM   19  C15 LIG X 999      -0.630   2.717   0.239  1.00  0.00     0.121 C 
BRANCH  19  20
HETATM   20  C16 LIG X 999      -0.117   2.200  -1.117  1.00  0.00     0.020 C 
BRANCH  20  21
HETATM   21  C17 LIG X 999       1.419   2.102  -1.211  1.00  0.00     0.004 C 
BRANCH  21  22
HETATM   22  C18 LIG X 999       2.176   3.426  -0.983  1.00  0.00     0.035 C 
BRANCH  22  23
HETATM   23  C19 LIG X 999       1.798   4.571  -1.959  1.00  0.00     0.216 C 
HETATM   24  C21 LIG X 999       2.545   5.863  -1.600  1.00  0.00     0.042 C 
BRANCH  23  25
HETATM   25  N2  LIG X 999       1.977   4.237  -3.389  1.00  0.00     0.083 N 
HETATM   26  H21 LIG X 999       1.291   3.496  -3.661  1.00  0.00     0.315 HD
HETATM   27  C20 LIG X 999       3.325   3.781  -3.751  1.00  0.00     0.307 C 
ENDBRANCH  23  25
ENDBRANCH  22  23
ENDBRANCH  21  22
ENDBRANCH  20  21
ENDBRANCH  19  20
ENDBRANCH  15  19
TORSDOF 6
