REMARK  1 active torsions:
REMARK  status: ('A' for Active; 'I' for Inactive)
REMARK    1  A    between atoms: C11_13  and  N2_14 
ROOT
HETATM    1  N2  LIG X 999      -3.383   1.609  -1.585  1.00  0.00    -0.053 NA
HETATM    2  N3  LIG X 999      -4.231   2.378  -1.131  1.00  0.00    -0.160 NA
HETATM    3  N4  LIG X 999      -5.078   3.145  -0.677  1.00  0.00     0.068 N 
ENDROOT
BRANCH   1   4
HETATM    4  C11 LIG X 999      -2.490   0.900  -0.724  1.00  0.00     0.175 A 
HETATM    5  C10 LIG X 999      -1.508   0.017  -1.148  1.00  0.00     0.026 A 
HETATM    6  C5  LIG X 999      -0.909  -0.417  -0.013  1.00  0.00     0.017 A 
HETATM    7  C9  LIG X 999      -1.083  -0.443  -2.394  1.00  0.00     0.016 A 
HETATM    8  C4  LIG X 999      -1.499   0.173   1.055  1.00  0.00     0.046 A 
HETATM    9  C6  LIG X 999       0.133  -1.317   0.034  1.00  0.00     0.005 A 
HETATM   10  C3  LIG X 999      -1.041  -0.122   2.422  1.00  0.00     0.033 A 
HETATM   11  N5  LIG X 999      -2.486   0.997   0.637  1.00  0.00    -0.337 N 
HETATM   12  C2  LIG X 999      -0.020  -0.994   2.583  1.00  0.00     0.034 A 
HETATM   13  C1  LIG X 999       0.637  -1.651   1.402  1.00  0.00     0.059 A 
HETATM   14  N1  LIG X 999       1.612  -2.481   1.598  1.00  0.00    -0.300 NA
HETATM   15  H1  LIG X 999       2.111  -2.971   0.824  1.00  0.00     0.187 HD
HETATM   16  H7  LIG X 999      -3.110   1.583   1.236  1.00  0.00     0.167 HD
HETATM   17  C7  LIG X 999       0.597  -1.811  -1.208  1.00  0.00     0.015 A 
HETATM   18  C8  LIG X 999      -0.014  -1.371  -2.416  1.00  0.00     0.002 A 
ENDBRANCH   1   4
TORSDOF 1
