REMARK  1 active torsions:
REMARK  status: ('A' for Active; 'I' for Inactive)
REMARK    1  A    between atoms: C14_14  and  N1_15 
ROOT
HETATM    1  N1  LIG X 999      -3.967  -0.462   1.451  1.00  0.00    -0.054 NA
HETATM    2  N2  LIG X 999      -4.798   0.302   1.946  1.00  0.00    -0.160 NA
HETATM    3  N3  LIG X 999      -5.628   1.063   2.439  1.00  0.00     0.068 N 
ENDROOT
BRANCH   1   4
HETATM    4  C14 LIG X 999      -2.622  -0.053   1.159  1.00  0.00     0.165 C 
HETATM    5  C13 LIG X 999      -2.194   1.260   1.375  1.00  0.00     0.061 C 
HETATM    6  C11 LIG X 999      -0.880   1.640   1.065  1.00  0.00    -0.045 C 
HETATM    7  C10 LIG X 999       0.060   0.641   0.659  1.00  0.00     0.008 C 
HETATM    8  C12 LIG X 999      -0.607   3.125   1.040  1.00  0.00     0.049 C 
HETATM    9  C4  LIG X 999       1.475   0.843   0.521  1.00  0.00    -0.013 C 
HETATM   10  C9  LIG X 999      -0.468  -0.641   0.331  1.00  0.00     0.045 C 
HETATM   11  C3  LIG X 999       2.174   1.909   1.136  1.00  0.00     0.013 C 
HETATM   12  C5  LIG X 999       2.249  -0.128  -0.177  1.00  0.00    -0.025 C 
HETATM   13  C2  LIG X 999       3.542   2.093   0.924  1.00  0.00     0.001 C 
HETATM   14  C1  LIG X 999       4.258   1.196   0.137  1.00  0.00     0.001 C 
HETATM   15  C6  LIG X 999       3.621   0.078  -0.395  1.00  0.00     0.012 C 
HETATM   16  C7  LIG X 999       1.663  -1.321  -0.603  1.00  0.00     0.014 C 
HETATM   17  C8  LIG X 999       0.337  -1.597  -0.302  1.00  0.00     0.031 C 
HETATM   18  N4  LIG X 999      -1.767  -0.950   0.607  1.00  0.00    -0.338 N 
HETATM   19  H11 LIG X 999      -2.129  -1.909   0.395  1.00  0.00     0.167 HD
ENDBRANCH   1   4
TORSDOF 1
