REMARK  4 active torsions:
REMARK  status: ('A' for Active; 'I' for Inactive)
REMARK    1  A    between atoms: C2_2  and  C3_3 
REMARK    2  A    between atoms: C3_3  and  C5_5 
REMARK       I    between atoms: C5_5  and  N1_7 
REMARK    3  A    between atoms: N1_7  and  C6_8 
REMARK    4  A    between atoms: C7_9  and  O2_10 
ROOT
HETATM    1  C6  LIG X 999       1.108   0.440  -0.879  1.00  0.00     0.079 A 
HETATM    2  C7  LIG X 999       1.470   0.802   0.434  1.00  0.00     0.095 A 
HETATM    3  C9  LIG X 999       1.591   2.162   0.771  1.00  0.00     0.040 A 
HETATM    4  C10 LIG X 999       1.373   3.153  -0.184  1.00  0.00     0.015 A 
HETATM    5  C11 LIG X 999       1.023   2.808  -1.495  1.00  0.00    -0.024 A 
HETATM    6  C12 LIG X 999       0.801   3.810  -2.453  1.00  0.00     0.012 A 
HETATM    7  C13 LIG X 999       0.439   3.468  -3.757  1.00  0.00     0.001 A 
HETATM    8  C14 LIG X 999       0.289   2.128  -4.114  1.00  0.00     0.001 A 
HETATM    9  C15 LIG X 999       0.508   1.119  -3.173  1.00  0.00     0.014 A 
HETATM   10  C16 LIG X 999       0.887   1.442  -1.853  1.00  0.00     0.004 A 
ENDROOT
BRANCH   1  11
HETATM   11  N1  LIG X 999       1.005  -0.950  -1.227  1.00  0.00    -0.324 N 
HETATM   12  C5  LIG X 999       0.066  -1.831  -0.595  1.00  0.00     0.226 C 
HETATM   13  O1  LIG X 999      -0.752  -1.380   0.253  1.00  0.00    -0.273 OA
HETATM   14  H10 LIG X 999       1.566  -1.305  -2.034  1.00  0.00     0.169 HD
BRANCH  12  15
HETATM   15  C3  LIG X 999       0.008  -3.281  -1.011  1.00  0.00     0.074 C 
HETATM   16  C4  LIG X 999      -0.466  -4.191   0.134  1.00  0.00     0.020 C 
BRANCH  15  17
HETATM   17  C2  LIG X 999      -0.823  -3.468  -2.299  1.00  0.00     0.009 C 
HETATM   18  C1  LIG X 999      -2.290  -3.047  -2.170  1.00  0.00     0.006 C 
ENDBRANCH  15  17
ENDBRANCH  12  15
ENDBRANCH   1  11
BRANCH   2  19
HETATM   19  O2  LIG X 999       1.718  -0.216   1.369  1.00  0.00    -0.354 OA
HETATM   20  C8  LIG X 999       2.084   0.004   2.728  1.00  0.00     0.210 C 
ENDBRANCH   2  19
TORSDOF 4
