REMARK  8 active torsions:
REMARK  status: ('A' for Active; 'I' for Inactive)
REMARK    1  A    between atoms: O1_2  and  C2_3 
REMARK    2  A    between atoms: C5_6  and  C6_7 
REMARK    3  A    between atoms: C7_9  and  C8_10 
REMARK    4  A    between atoms: C8_10  and  N2_11 
REMARK    5  A    between atoms: C10_13  and  C11_14 
REMARK    6  A    between atoms: C11_14  and  C12_15 
REMARK    7  A    between atoms: C12_15  and  S1_16 
REMARK    8  A    between atoms: S1_16  and  C13_19 
ROOT
HETATM    1  N2  LIG X 999      -0.259   1.152   4.449  1.00  0.00    -0.280 N 
HETATM    2  C9  LIG X 999      -1.433   0.895   3.843  1.00  0.00     0.141 A 
HETATM    3  C10 LIG X 999      -1.595  -0.475   3.873  1.00  0.00     0.074 A 
HETATM    4  N3  LIG X 999      -0.521  -1.016   4.484  1.00  0.00    -0.162 NA
HETATM    5  N4  LIG X 999       0.261  -0.004   4.824  1.00  0.00    -0.217 N 
HETATM    6  H20 LIG X 999       1.202  -0.117   5.264  1.00  0.00     0.210 HD
ENDROOT
BRANCH   1   7
HETATM    7  C8  LIG X 999       0.474   2.416   4.400  1.00  0.00     0.211 C 
BRANCH   7   8
HETATM    8  C7  LIG X 999       1.217   2.500   3.100  1.00  0.00     0.086 A 
HETATM    9  N1  LIG X 999       0.601   2.600   1.915  1.00  0.00    -0.224 NA
HETATM   10  C6  LIG X 999       1.576   2.316   1.023  1.00  0.00     0.180 A 
HETATM   11  O4  LIG X 999       2.731   2.075   1.596  1.00  0.00    -0.294 OA
HETATM   12  C23 LIG X 999       2.540   2.180   2.885  1.00  0.00     0.078 A 
HETATM   13  C24 LIG X 999       3.594   1.958   3.911  1.00  0.00     0.079 C 
BRANCH  10  14
HETATM   14  C5  LIG X 999       1.337   2.165  -0.420  1.00  0.00     0.017 A 
HETATM   15  C4  LIG X 999       0.102   2.535  -0.983  1.00  0.00     0.018 A 
HETATM   16  C3  LIG X 999      -0.149   2.325  -2.338  1.00  0.00     0.037 A 
HETATM   17  C2  LIG X 999       0.827   1.714  -3.150  1.00  0.00     0.068 A 
HETATM   18  C26 LIG X 999       2.048   1.333  -2.582  1.00  0.00     0.037 A 
HETATM   19  C25 LIG X 999       2.306   1.560  -1.227  1.00  0.00     0.018 A 
BRANCH  17  20
HETATM   20  O1  LIG X 999       0.623   1.473  -4.520  1.00  0.00    -0.356 OA
HETATM   21  C1  LIG X 999      -0.559   1.819  -5.243  1.00  0.00     0.210 C 
ENDBRANCH  17  20
ENDBRANCH  10  14
ENDBRANCH   7   8
ENDBRANCH   1   7
BRANCH   3  22
HETATM   22  C11 LIG X 999      -2.645  -1.259   3.141  1.00  0.00     0.078 C 
BRANCH  22  23
HETATM   23  C12 LIG X 999      -2.098  -1.886   1.850  1.00  0.00     0.152 C 
BRANCH  23  24
HETATM   24  S1  LIG X 999      -1.561  -0.646   0.676  1.00  0.00     0.175 S 
HETATM   25  O2  LIG X 999      -2.615   0.416   0.531  1.00  0.00    -0.223 OA
HETATM   26  O3  LIG X 999      -0.300  -0.023   1.201  1.00  0.00    -0.223 OA
BRANCH  24  27
HETATM   27  C13 LIG X 999      -1.224  -1.347  -0.901  1.00  0.00     0.060 A 
HETATM   28  C14 LIG X 999      -2.274  -1.573  -1.800  1.00  0.00     0.024 A 
HETATM   29  C15 LIG X 999      -2.019  -2.110  -3.067  1.00  0.00     0.014 A 
HETATM   30  C16 LIG X 999      -0.708  -2.421  -3.453  1.00  0.00    -0.026 A 
HETATM   31  C17 LIG X 999      -0.441  -2.983  -4.712  1.00  0.00     0.012 A 
HETATM   32  C21 LIG X 999       0.357  -2.181  -2.553  1.00  0.00    -0.025 A 
HETATM   33  C18 LIG X 999       0.866  -3.305  -5.077  1.00  0.00     0.001 A 
HETATM   34  C19 LIG X 999       1.915  -3.058  -4.196  1.00  0.00     0.001 A 
HETATM   35  C20 LIG X 999       1.667  -2.494  -2.937  1.00  0.00     0.012 A 
HETATM   36  C22 LIG X 999       0.091  -1.645  -1.280  1.00  0.00     0.035 A 
ENDBRANCH  24  27
ENDBRANCH  23  24
ENDBRANCH  22  23
ENDBRANCH   3  22
TORSDOF 8
