REMARK  3 active torsions:
REMARK  status: ('A' for Active; 'I' for Inactive)
REMARK    1  A    between atoms: C2_2  and  O1_3 
REMARK    2  A    between atoms: O1_3  and  C3_4 
REMARK       I    between atoms: C3_4  and  N1_6 
REMARK    3  A    between atoms: N1_6  and  C4_7 
ROOT
HETATM    1  C4  LIG X 999       0.088  -3.875  -0.670  1.00  0.00     0.063 A 
HETATM    2  C5  LIG X 999       0.642  -4.622   0.377  1.00  0.00     0.032 A 
HETATM    3  C6  LIG X 999       0.994  -4.010   1.583  1.00  0.00     0.014 A 
HETATM    4  C7  LIG X 999       0.781  -2.638   1.766  1.00  0.00    -0.025 A 
HETATM    5  C8  LIG X 999       1.130  -2.012   2.978  1.00  0.00     0.021 A 
HETATM    6  C9  LIG X 999       0.893  -0.643   3.116  1.00  0.00    -0.024 A 
HETATM    7  C10 LIG X 999       0.329   0.087   2.115  1.00  0.00    -0.024 A 
HETATM    8  C11 LIG X 999      -0.039  -0.496   0.902  1.00  0.00     0.021 A 
HETATM    9  C12 LIG X 999       0.193  -1.873   0.717  1.00  0.00    -0.023 A 
HETATM   10  C13 LIG X 999      -0.157  -2.501  -0.487  1.00  0.00     0.044 A 
HETATM   11  C14 LIG X 999       0.161   1.496   2.532  1.00  0.00     0.276 C 
HETATM   12  N2  LIG X 999       0.839   1.607   3.862  1.00  0.00    -0.067 N 
HETATM   13  C15 LIG X 999       2.090   2.392   3.731  1.00  0.00     0.272 C 
HETATM   14  C16 LIG X 999      -0.045   2.272   4.846  1.00  0.00     0.272 C 
HETATM   15  C17 LIG X 999       1.155   0.208   4.296  1.00  0.00     0.276 C 
ENDROOT
BRANCH   1  16
HETATM   16  N1  LIG X 999      -0.269  -4.553  -1.883  1.00  0.00    -0.188 NA
HETATM   17  C3  LIG X 999      -0.352  -3.959  -3.182  1.00  0.00     0.387 C 
HETATM   18  O2  LIG X 999      -0.905  -4.601  -4.115  1.00  0.00    -0.236 OA
BRANCH  17  19
HETATM   19  O1  LIG X 999       0.218  -2.707  -3.428  1.00  0.00    -0.303 OA
BRANCH  19  20
HETATM   20  C2  LIG X 999       0.163  -2.070  -4.700  1.00  0.00     0.176 C 
HETATM   21  C1  LIG X 999       0.851  -0.717  -4.620  1.00  0.00     0.034 C 
ENDBRANCH  19  20
ENDBRANCH  17  19
ENDBRANCH   1  16
TORSDOF 3
