REMARK  1 active torsions:
REMARK  status: ('A' for Active; 'I' for Inactive)
REMARK    1  A    between atoms: C11_13  and  N2_14 
ROOT
HETATM    1  N2  LIG X 999       3.536  -0.520  -0.055  1.00  0.00    -0.053 NA
HETATM    2  N3  LIG X 999       4.135   0.537   0.144  1.00  0.00    -0.160 NA
HETATM    3  N4  LIG X 999       4.744   1.587   0.342  1.00  0.00     0.068 N 
ENDROOT
BRANCH   1   4
HETATM    4  C11 LIG X 999       2.106  -0.608  -0.073  1.00  0.00     0.175 A 
HETATM    5  C10 LIG X 999       1.185   0.428   0.120  1.00  0.00     0.026 A 
HETATM    6  C5  LIG X 999      -0.030  -0.167   0.007  1.00  0.00     0.017 A 
HETATM    7  C9  LIG X 999       1.267   1.802   0.378  1.00  0.00     0.016 A 
HETATM    8  C4  LIG X 999       0.134  -1.487  -0.241  1.00  0.00     0.046 A 
HETATM    9  C6  LIG X 999      -1.239   0.481   0.127  1.00  0.00     0.005 A 
HETATM   10  C3  LIG X 999      -1.032  -2.373  -0.408  1.00  0.00     0.033 A 
HETATM   11  N5  LIG X 999       1.450  -1.781  -0.294  1.00  0.00    -0.337 N 
HETATM   12  C2  LIG X 999      -2.269  -1.832  -0.308  1.00  0.00     0.034 A 
HETATM   13  C1  LIG X 999      -2.452  -0.364  -0.033  1.00  0.00     0.059 A 
HETATM   14  N1  LIG X 999      -3.635   0.154   0.062  1.00  0.00    -0.300 NA
HETATM   15  H1  LIG X 999      -4.499  -0.424  -0.047  1.00  0.00     0.187 HD
HETATM   16  H7  LIG X 999       1.877  -2.717  -0.469  1.00  0.00     0.167 HD
HETATM   17  C7  LIG X 999      -1.201   1.866   0.387  1.00  0.00     0.015 A 
HETATM   18  C8  LIG X 999       0.054   2.521   0.511  1.00  0.00     0.002 A 
ENDBRANCH   1   4
TORSDOF 1
