REMARK  1 active torsions:
REMARK  status: ('A' for Active; 'I' for Inactive)
REMARK    1  A    between atoms: C7_7  and  N1_8 
ROOT
HETATM    1  N1  LIG X 999       1.304  -1.286  -0.440  1.00  0.00    -0.110 NA
HETATM    2  N2  LIG X 999       2.366  -1.785  -0.812  1.00  0.00    -0.167 NA
HETATM    3  N3  LIG X 999       3.428  -2.282  -1.184  1.00  0.00     0.068 N 
ENDROOT
BRANCH   1   4
HETATM    4  C7  LIG X 999       0.523  -1.887   0.642  1.00  0.00     0.153 C 
HETATM    5  C6  LIG X 999      -0.875  -2.294   0.115  1.00  0.00     0.031 C 
HETATM    6  C5  LIG X 999      -1.967  -1.231   0.352  1.00  0.00     0.003 C 
HETATM    7  C4  LIG X 999      -1.392   0.187   0.312  1.00  0.00     0.009 C 
HETATM    8  C3  LIG X 999      -0.346   0.415   1.432  1.00  0.00     0.018 C 
HETATM    9  C2  LIG X 999       0.586   1.539   1.036  1.00  0.00    -0.021 C 
HETATM   10  C8  LIG X 999       0.409  -0.900   1.826  1.00  0.00     0.043 C 
HETATM   11  C1  LIG X 999       1.854   1.581   1.448  1.00  0.00    -0.004 C 
HETATM   12  C10 LIG X 999       2.437   0.486   2.233  1.00  0.00    -0.004 C 
HETATM   13  C9  LIG X 999       1.764  -0.646   2.445  1.00  0.00    -0.019 C 
ENDBRANCH   1   4
TORSDOF 1
