REMARK  3 active torsions:
REMARK  status: ('A' for Active; 'I' for Inactive)
REMARK    1  A    between atoms: O1_2  and  C1_3 
REMARK    2  A    between atoms: C1_3  and  C3_8 
REMARK    3  A    between atoms: C2_4  and  N1_5 
ROOT
HETATM    1  C3  LIG X 999       0.150   1.033   1.105  1.00  0.00    -0.001 A 
HETATM    2  C4  LIG X 999       0.303   2.392   0.768  1.00  0.00     0.015 A 
HETATM    3  C5  LIG X 999      -0.007   2.848  -0.515  1.00  0.00     0.013 A 
HETATM    4  C6  LIG X 999      -0.486   1.957  -1.485  1.00  0.00    -0.026 A 
HETATM    5  C7  LIG X 999      -0.800   2.406  -2.777  1.00  0.00     0.012 A 
HETATM    6  C8  LIG X 999      -1.281   1.508  -3.734  1.00  0.00     0.001 A 
HETATM    7  C9  LIG X 999      -1.451   0.159  -3.410  1.00  0.00     0.001 A 
HETATM    8  C10 LIG X 999      -1.142  -0.300  -2.126  1.00  0.00     0.012 A 
HETATM    9  C11 LIG X 999      -0.658   0.592  -1.156  1.00  0.00    -0.025 A 
HETATM   10  C12 LIG X 999      -0.345   0.142   0.136  1.00  0.00     0.026 A 
ENDROOT
BRANCH   1  11
HETATM   11  C1  LIG X 999       0.459   0.528   2.468  1.00  0.00     0.090 C 
HETATM   12  C2  LIG X 999       1.459   1.069   3.194  1.00  0.00     0.118 C 
BRANCH  11  13
HETATM   13  O1  LIG X 999      -0.304  -0.543   2.946  1.00  0.00    -0.358 OA
HETATM   14  H1  LIG X 999      -0.112  -1.040   3.805  1.00  0.00     0.217 HD
ENDBRANCH  11  13
BRANCH  12  15
HETATM   15  N1  LIG X 999       1.754   0.681   4.539  1.00  0.00    -0.406 N 
HETATM   16  H3  LIG X 999       1.107   0.113   5.126  1.00  0.00     0.155 HD
HETATM   17  H4  LIG X 999       2.602   1.076   5.003  1.00  0.00     0.155 HD
ENDBRANCH  12  15
ENDBRANCH   1  11
TORSDOF 3
