REMARK  3 active torsions:
REMARK  status: ('A' for Active; 'I' for Inactive)
REMARK    1  A    between atoms: C6_6  and  C7_7 
REMARK    2  A    between atoms: C7_7  and  N1_8 
REMARK    3  A    between atoms: C8_12  and  N4_13 
ROOT
HETATM    1  N1  LIG X 999       1.172   0.935   1.016  1.00  0.00    -0.065 NA
HETATM    2  N2  LIG X 999       1.738   0.505   2.023  1.00  0.00    -0.164 NA
HETATM    3  N3  LIG X 999       2.302   0.076   3.028  1.00  0.00     0.068 N 
ENDROOT
BRANCH   1   4
HETATM    4  C7  LIG X 999       1.446   0.391  -0.313  1.00  0.00     0.267 A 
HETATM    5  O1  LIG X 999       2.552  -0.484  -0.338  1.00  0.00    -0.314 OA
HETATM    6  C8  LIG X 999       2.718   0.763  -0.980  1.00  0.00     0.349 A 
BRANCH   4   7
HETATM    7  C6  LIG X 999       0.288  -0.092  -1.131  1.00  0.00     0.007 A 
HETATM    8  C5  LIG X 999      -0.261  -1.361  -0.896  1.00  0.00     0.024 A 
HETATM    9  C4  LIG X 999      -1.361  -1.806  -1.645  1.00  0.00    -0.025 A 
HETATM   10  C3  LIG X 999      -1.912  -3.078  -1.423  1.00  0.00     0.012 A 
HETATM   11  C11 LIG X 999      -1.924  -0.962  -2.634  1.00  0.00    -0.026 A 
HETATM   12  C2  LIG X 999      -3.008  -3.509  -2.175  1.00  0.00     0.001 A 
HETATM   13  C1  LIG X 999      -3.563  -2.676  -3.151  1.00  0.00     0.001 A 
HETATM   14  C12 LIG X 999      -3.025  -1.407  -3.382  1.00  0.00     0.012 A 
HETATM   15  C10 LIG X 999      -1.378   0.311  -2.852  1.00  0.00     0.013 A 
HETATM   16  C9  LIG X 999      -0.282   0.744  -2.101  1.00  0.00     0.013 A 
ENDBRANCH   4   7
BRANCH   6  17
HETATM   17  N4  LIG X 999       3.610   1.612  -0.208  1.00  0.00    -0.077 NA
HETATM   18  N5  LIG X 999       3.835   2.766  -0.571  1.00  0.00    -0.165 NA
HETATM   19  N6  LIG X 999       4.060   3.919  -0.933  1.00  0.00     0.068 N 
ENDBRANCH   6  17
ENDBRANCH   1   4
TORSDOF 3
