REMARK  8 active torsions:
REMARK  status: ('A' for Active; 'I' for Inactive)
REMARK    1  A    between atoms: O1_2  and  C1_3 
REMARK    2  A    between atoms: C1_3  and  N4_23 
REMARK    3  A    between atoms: C2_4  and  N1_5 
REMARK    4  A    between atoms: C3_8  and  C4_9 
REMARK    5  A    between atoms: C4_9  and  C5_10 
REMARK    6  A    between atoms: C5_10  and  O2_11 
REMARK    7  A    between atoms: O2_11  and  C6_12 
REMARK    8  A    between atoms: N4_23  and  C17_25 
ROOT
HETATM    1  N1  LIG X 999       0.833   1.892  -0.774  1.00  0.00    -0.254 N 
HETATM    2  N2  LIG X 999      -0.324   2.531  -0.839  1.00  0.00     0.009 NA
HETATM    3  N3  LIG X 999      -1.329   1.675  -0.718  1.00  0.00    -0.163 NA
HETATM    4  C3  LIG X 999      -0.779   0.454  -0.560  1.00  0.00     0.071 A 
HETATM    5  C16 LIG X 999       0.591   0.588  -0.562  1.00  0.00     0.142 A 
ENDROOT
BRANCH   1   6
HETATM    6  C2  LIG X 999       2.108   2.542  -0.801  1.00  0.00     0.169 C 
HETATM    7  C1  LIG X 999       3.119   2.158  -1.604  1.00  0.00     0.158 C 
BRANCH   7   8
HETATM    8  O1  LIG X 999       4.365   2.767  -1.464  1.00  0.00    -0.345 OA
HETATM    9  H1  LIG X 999       4.539   3.489  -0.773  1.00  0.00     0.219 HD
ENDBRANCH   7   8
BRANCH   7  10
HETATM   10  N4  LIG X 999       2.977   1.144  -2.617  1.00  0.00    -0.335 N 
HETATM   11  H15 LIG X 999       3.834   0.602  -2.865  1.00  0.00     0.168 HD
BRANCH  10  12
HETATM   12  C17 LIG X 999       1.790   0.905  -3.400  1.00  0.00     0.046 A 
HETATM   13  C18 LIG X 999       1.333  -0.424  -3.577  1.00  0.00    -0.035 A 
HETATM   14  C19 LIG X 999       2.115  -1.599  -3.050  1.00  0.00     0.050 C 
HETATM   15  C20 LIG X 999       0.148  -0.664  -4.290  1.00  0.00     0.009 A 
HETATM   16  C21 LIG X 999      -0.583   0.395  -4.822  1.00  0.00     0.001 A 
HETATM   17  C22 LIG X 999      -0.117   1.702  -4.694  1.00  0.00     0.009 A 
HETATM   18  C23 LIG X 999       1.084   1.970  -4.020  1.00  0.00    -0.035 A 
HETATM   19  C24 LIG X 999       1.586   3.389  -3.991  1.00  0.00     0.050 C 
ENDBRANCH  10  12
ENDBRANCH   7  10
ENDBRANCH   1   6
BRANCH   4  20
HETATM   20  C4  LIG X 999      -1.553  -0.805  -0.326  1.00  0.00     0.089 C 
BRANCH  20  21
HETATM   21  C5  LIG X 999      -1.667  -1.110   1.165  1.00  0.00     0.181 C 
BRANCH  21  22
HETATM   22  O2  LIG X 999      -2.387  -0.067   1.821  1.00  0.00    -0.351 OA
BRANCH  22  23
HETATM   23  C6  LIG X 999      -2.655  -0.030   3.196  1.00  0.00     0.069 A 
HETATM   24  C7  LIG X 999      -3.359   1.068   3.703  1.00  0.00     0.037 A 
HETATM   25  C8  LIG X 999      -3.654   1.161   5.065  1.00  0.00     0.015 A 
HETATM   26  C9  LIG X 999      -3.246   0.149   5.945  1.00  0.00    -0.026 A 
HETATM   27  C10 LIG X 999      -3.537   0.232   7.316  1.00  0.00     0.012 A 
HETATM   28  C14 LIG X 999      -2.533  -0.967   5.445  1.00  0.00    -0.023 A 
HETATM   29  C11 LIG X 999      -3.124  -0.784   8.183  1.00  0.00     0.001 A 
HETATM   30  C12 LIG X 999      -2.421  -1.887   7.690  1.00  0.00     0.001 A 
HETATM   31  C13 LIG X 999      -2.125  -1.981   6.327  1.00  0.00     0.012 A 
HETATM   32  C15 LIG X 999      -2.242  -1.051   4.075  1.00  0.00     0.049 A 
ENDBRANCH  22  23
ENDBRANCH  21  22
ENDBRANCH  20  21
ENDBRANCH   4  20
TORSDOF 8
