REMARK  7 active torsions:
REMARK  status: ('A' for Active; 'I' for Inactive)
REMARK    1  A    between atoms: C6_6  and  O1_7 
REMARK    2  A    between atoms: O1_7  and  C7_8 
REMARK    3  A    between atoms: C7_8  and  O3_10 
REMARK    4  A    between atoms: O3_10  and  C8_11 
REMARK    5  A    between atoms: C8_11  and  N1_12 
REMARK       I    between atoms: N1_12  and  C9_13 
REMARK    6  A    between atoms: C9_13  and  C10_15 
REMARK    7  A    between atoms: C10_15  and  N2_16 
ROOT
HETATM    1  N2  LIG X 999       6.159  -0.238  -1.419  1.00  0.00    -0.261 NA
HETATM    2  C11 LIG X 999       7.238  -0.819  -1.765  1.00  0.00     0.158 C 
HETATM    3  S1  LIG X 999       8.604  -1.554  -2.201  1.00  0.00    -0.055 SA
ENDROOT
BRANCH   1   4
HETATM    4  C10 LIG X 999       6.157   0.953  -0.573  1.00  0.00     0.199 C 
HETATM    5  C12 LIG X 999       6.628   0.613   0.846  1.00  0.00     0.044 C 
BRANCH   4   6
HETATM    6  C9  LIG X 999       4.771   1.524  -0.529  1.00  0.00     0.265 C 
HETATM    7  N1  LIG X 999       3.659   0.679  -0.218  1.00  0.00    -0.228 NA
HETATM    8  O4  LIG X 999       4.594   2.754  -0.742  1.00  0.00    -0.269 OA
BRANCH   7   9
HETATM    9  C8  LIG X 999       2.292   1.172  -0.143  1.00  0.00     0.333 C 
BRANCH   9  10
HETATM   10  O3  LIG X 999       1.424   0.093   0.183  1.00  0.00    -0.276 OA
BRANCH  10  11
HETATM   11  C7  LIG X 999       0.043   0.253   0.322  1.00  0.00     0.413 C 
HETATM   12  O2  LIG X 999      -0.483   1.393   0.191  1.00  0.00    -0.229 OA
BRANCH  11  13
HETATM   13  O1  LIG X 999      -0.733  -0.861   0.664  1.00  0.00    -0.256 OA
BRANCH  13  14
HETATM   14  C6  LIG X 999      -2.131  -0.935   0.573  1.00  0.00     0.082 A 
HETATM   15  C5  LIG X 999      -2.859  -0.222  -0.398  1.00  0.00     0.049 A 
HETATM   16  C4  LIG X 999      -4.257  -0.333  -0.459  1.00  0.00    -0.023 A 
HETATM   17  C3  LIG X 999      -4.990   0.380  -1.421  1.00  0.00     0.012 A 
HETATM   18  C15 LIG X 999      -4.935  -1.177   0.453  1.00  0.00    -0.026 A 
HETATM   19  C2  LIG X 999      -6.382   0.261  -1.472  1.00  0.00     0.001 A 
HETATM   20  C1  LIG X 999      -7.051  -0.570  -0.570  1.00  0.00     0.001 A 
HETATM   21  C16 LIG X 999      -6.333  -1.288   0.391  1.00  0.00     0.012 A 
HETATM   22  C14 LIG X 999      -4.202  -1.900   1.405  1.00  0.00     0.015 A 
HETATM   23  C13 LIG X 999      -2.810  -1.782   1.457  1.00  0.00     0.038 A 
ENDBRANCH  13  14
ENDBRANCH  11  13
ENDBRANCH  10  11
ENDBRANCH   9  10
ENDBRANCH   7   9
ENDBRANCH   4   6
ENDBRANCH   1   4
TORSDOF 7
