REMARK  7 active torsions:
REMARK  status: ('A' for Active; 'I' for Inactive)
REMARK    1  A    between atoms: N1_2  and  C2_3 
REMARK    2  A    between atoms: C2_3  and  C4_5 
REMARK    3  A    between atoms: C4_5  and  C5_6 
REMARK    4  A    between atoms: C5_6  and  C6_7 
REMARK    5  A    between atoms: C6_7  and  C7_8 
REMARK    6  A    between atoms: C7_8  and  N2_9 
REMARK    7  A    between atoms: N2_9  and  C8_10 
ROOT
HETATM    1  C8  LIG X 999      -0.561   0.813  -2.328  1.00  0.00     0.226 C 
HETATM    2  C9  LIG X 999       0.664   0.651  -2.978  1.00  0.00     0.065 C 
HETATM    3  C10 LIG X 999       1.711   1.561  -2.759  1.00  0.00    -0.045 C 
HETATM    4  C11 LIG X 999       2.870   1.480  -3.721  1.00  0.00     0.049 C 
HETATM    5  C12 LIG X 999       1.561   2.573  -1.756  1.00  0.00     0.010 C 
HETATM    6  C13 LIG X 999       0.253   2.756  -1.223  1.00  0.00     0.070 C 
HETATM    7  C14 LIG X 999      -0.045   3.854  -0.417  1.00  0.00     0.033 C 
HETATM    8  C15 LIG X 999       0.933   4.787  -0.105  1.00  0.00     0.014 C 
HETATM    9  C16 LIG X 999       2.257   4.579  -0.503  1.00  0.00    -0.025 C 
HETATM   10  C17 LIG X 999       3.247   5.483  -0.083  1.00  0.00     0.012 C 
HETATM   11  C18 LIG X 999       4.590   5.229  -0.351  1.00  0.00     0.001 C 
HETATM   12  C19 LIG X 999       4.958   4.056  -1.002  1.00  0.00     0.001 C 
HETATM   13  C20 LIG X 999       3.983   3.155  -1.438  1.00  0.00     0.013 C 
HETATM   14  C21 LIG X 999       2.605   3.434  -1.277  1.00  0.00    -0.013 C 
HETATM   15  N3  LIG X 999      -0.741   1.874  -1.504  1.00  0.00    -0.224 NA
ENDROOT
BRANCH   1  16
HETATM   16  N2  LIG X 999      -1.641  -0.116  -2.546  1.00  0.00    -0.028 N 
HETATM   17  H17 LIG X 999      -1.680  -0.363  -3.562  1.00  0.00     0.285 HD
HETATM   18  H18 LIG X 999      -2.554   0.332  -2.296  1.00  0.00     0.285 HD
BRANCH  16  19
HETATM   19  C7  LIG X 999      -1.456  -1.348  -1.762  1.00  0.00     0.240 C 
BRANCH  19  20
HETATM   20  C6  LIG X 999      -1.643  -1.108  -0.253  1.00  0.00     0.028 C 
BRANCH  20  21
HETATM   21  C5  LIG X 999      -1.522  -2.419   0.533  1.00  0.00     0.004 C 
BRANCH  21  22
HETATM   22  C4  LIG X 999      -1.708  -2.175   2.041  1.00  0.00     0.035 C 
BRANCH  22  23
HETATM   23  C2  LIG X 999      -1.512  -3.445   2.903  1.00  0.00     0.216 C 
HETATM   24  C3  LIG X 999      -2.594  -4.495   2.594  1.00  0.00     0.042 C 
BRANCH  23  25
HETATM   25  N1  LIG X 999      -0.159  -4.004   2.704  1.00  0.00     0.083 N 
HETATM   26  C1  LIG X 999       0.196  -4.970   3.748  1.00  0.00     0.307 C 
HETATM   27  H4  LIG X 999       0.535  -3.223   2.778  1.00  0.00     0.315 HD
ENDBRANCH  23  25
ENDBRANCH  22  23
ENDBRANCH  21  22
ENDBRANCH  20  21
ENDBRANCH  19  20
ENDBRANCH  16  19
ENDBRANCH   1  16
TORSDOF 7
