REMARK  3 active torsions:
REMARK  status: ('A' for Active; 'I' for Inactive)
REMARK    1  A    between atoms: C2_2  and  N1_3 
REMARK    2  A    between atoms: C3_6  and  O1_7 
REMARK    3  A    between atoms: O1_7  and  C4_8 
REMARK       I    between atoms: C4_8  and  N4_10 
ROOT
HETATM    1  N1  LIG X 999       0.976   3.923   0.170  1.00  0.00    -0.070 NA
HETATM    2  N2  LIG X 999       0.865   4.454   1.276  1.00  0.00    -0.162 NA
HETATM    3  N3  LIG X 999       0.753   4.992   2.376  1.00  0.00     0.068 N 
ENDROOT
BRANCH   1   4
HETATM    4  C2  LIG X 999       0.771   2.520  -0.063  1.00  0.00     0.128 A 
HETATM    5  C1  LIG X 999       0.765   2.082  -1.394  1.00  0.00     0.049 A 
HETATM    6  C13 LIG X 999       0.559   0.734  -1.707  1.00  0.00    -0.023 A 
HETATM    7  C8  LIG X 999       0.366  -0.208  -0.661  1.00  0.00    -0.022 A 
HETATM    8  C12 LIG X 999       0.549   0.303  -3.049  1.00  0.00     0.021 A 
HETATM    9  C7  LIG X 999       0.381   0.226   0.670  1.00  0.00     0.052 A 
HETATM   10  C9  LIG X 999       0.173  -1.569  -0.970  1.00  0.00     0.021 A 
HETATM   11  C3  LIG X 999       0.572   1.585   0.984  1.00  0.00     0.113 A 
HETATM   12  C10 LIG X 999       0.162  -1.955  -2.311  1.00  0.00    -0.024 A 
HETATM   13  C11 LIG X 999       0.343  -1.052  -3.314  1.00  0.00    -0.024 A 
HETATM   14  C17 LIG X 999       0.000  -3.317  -2.863  1.00  0.00     0.276 C 
HETATM   15  C14 LIG X 999       0.316  -1.726  -4.630  1.00  0.00     0.276 C 
HETATM   16  N5  LIG X 999      -0.079  -3.143  -4.348  1.00  0.00    -0.067 N 
HETATM   17  C15 LIG X 999      -1.466  -3.385  -4.814  1.00  0.00     0.272 C 
HETATM   18  C16 LIG X 999       0.832  -4.086  -5.036  1.00  0.00     0.272 C 
BRANCH  11  19
HETATM   19  O1  LIG X 999       0.620   2.007   2.321  1.00  0.00    -0.259 OA
BRANCH  19  20
HETATM   20  C4  LIG X 999      -0.122   1.442   3.369  1.00  0.00     0.367 C 
HETATM   21  O2  LIG X 999      -1.160   0.767   3.120  1.00  0.00    -0.238 OA
HETATM   22  N4  LIG X 999       0.276   1.669   4.731  1.00  0.00    -0.336 N 
HETATM   23  C5  LIG X 999       1.507   2.414   5.006  1.00  0.00     0.154 C 
HETATM   24  C6  LIG X 999      -0.537   1.134   5.827  1.00  0.00     0.154 C 
ENDBRANCH  19  20
ENDBRANCH  11  19
ENDBRANCH   1   4
TORSDOF 3
