REMARK  3 active torsions:
REMARK  status: ('A' for Active; 'I' for Inactive)
REMARK    1  A    between atoms: N1_1  and  C1_2 
REMARK    2  A    between atoms: C1_2  and  C2_3 
REMARK    3  A    between atoms: C2_3  and  C3_5 
ROOT
HETATM    1  C3  LIG X 999      -0.234  -0.224   1.433  1.00  0.00     0.012 A 
HETATM    2  C4  LIG X 999      -1.030   0.832   1.915  1.00  0.00     0.016 A 
HETATM    3  C5  LIG X 999      -1.833   1.577   1.048  1.00  0.00     0.013 A 
HETATM    4  C6  LIG X 999      -1.856   1.283  -0.321  1.00  0.00    -0.026 A 
HETATM    5  C7  LIG X 999      -2.660   2.027  -1.200  1.00  0.00     0.012 A 
HETATM    6  C8  LIG X 999      -2.673   1.725  -2.564  1.00  0.00     0.001 A 
HETATM    7  C9  LIG X 999      -1.885   0.684  -3.061  1.00  0.00     0.001 A 
HETATM    8  C10 LIG X 999      -1.080  -0.064  -2.197  1.00  0.00     0.012 A 
HETATM    9  C11 LIG X 999      -1.059   0.228  -0.823  1.00  0.00    -0.025 A 
HETATM   10  C12 LIG X 999      -0.255  -0.516   0.054  1.00  0.00     0.027 A 
ENDROOT
BRANCH   1  11
HETATM   11  C2  LIG X 999       0.614  -1.002   2.376  1.00  0.00     0.187 C 
HETATM   12  O1  LIG X 999       0.783  -0.575   3.551  1.00  0.00    -0.290 OA
BRANCH  11  13
HETATM   13  C1  LIG X 999       1.308  -2.272   1.951  1.00  0.00     0.350 C 
BRANCH  13  14
HETATM   14  N1  LIG X 999       1.835  -2.997   3.104  1.00  0.00     0.085 N 
HETATM   15  H1  LIG X 999       2.373  -3.819   2.745  1.00  0.00     0.313 HD
HETATM   16  H2  LIG X 999       1.027  -3.385   3.644  1.00  0.00     0.313 HD
ENDBRANCH  13  14
ENDBRANCH  11  13
ENDBRANCH   1  11
TORSDOF 3
