REMARK  4 active torsions:
REMARK  status: ('A' for Active; 'I' for Inactive)
REMARK    1  A    between atoms: C2_2  and  N1_3 
REMARK    2  A    between atoms: C3_6  and  O1_7 
REMARK    3  A    between atoms: O1_7  and  C4_8 
REMARK    4  A    between atoms: C4_8  and  C5_9 
ROOT
HETATM    1  N1  LIG X 999      -4.334   0.849   0.784  1.00  0.00    -0.070 NA
HETATM    2  N2  LIG X 999      -4.612   0.907   1.983  1.00  0.00    -0.162 NA
HETATM    3  N3  LIG X 999      -4.892   0.965   3.180  1.00  0.00     0.068 N 
ENDROOT
BRANCH   1   4
HETATM    4  C2  LIG X 999      -3.059   0.390   0.310  1.00  0.00     0.127 A 
HETATM    5  C1  LIG X 999      -2.052  -0.021   1.204  1.00  0.00     0.049 A 
HETATM    6  C14 LIG X 999      -0.814  -0.463   0.724  1.00  0.00    -0.023 A 
HETATM    7  C9  LIG X 999      -0.575  -0.499  -0.677  1.00  0.00    -0.022 A 
HETATM    8  C13 LIG X 999       0.196  -0.876   1.617  1.00  0.00     0.021 A 
HETATM    9  C8  LIG X 999      -1.581  -0.091  -1.562  1.00  0.00     0.051 A 
HETATM   10  C10 LIG X 999       0.669  -0.946  -1.165  1.00  0.00     0.021 A 
HETATM   11  C3  LIG X 999      -2.825   0.358  -1.075  1.00  0.00     0.102 A 
HETATM   12  C11 LIG X 999       1.645  -1.339  -0.247  1.00  0.00    -0.024 A 
HETATM   13  C12 LIG X 999       1.416  -1.305   1.095  1.00  0.00    -0.024 A 
HETATM   14  C18 LIG X 999       3.000  -1.858  -0.530  1.00  0.00     0.276 C 
HETATM   15  C15 LIG X 999       2.597  -1.798   1.835  1.00  0.00     0.276 C 
HETATM   16  N4  LIG X 999       3.665  -1.997   0.804  1.00  0.00    -0.067 N 
HETATM   17  C16 LIG X 999       4.716  -0.963   0.957  1.00  0.00     0.272 C 
HETATM   18  C17 LIG X 999       4.283  -3.335   0.944  1.00  0.00     0.272 C 
BRANCH  11  19
HETATM   19  O1  LIG X 999      -3.857   0.780  -1.934  1.00  0.00    -0.337 OA
BRANCH  19  20
HETATM   20  C4  LIG X 999      -3.773   0.856  -3.356  1.00  0.00     0.269 C 
BRANCH  20  21
HETATM   21  C5  LIG X 999      -2.884   1.951  -3.759  1.00  0.00    -0.080 C 
HETATM   22  C6  LIG X 999      -2.148   2.848  -4.085  1.00  0.00    -0.109 C 
HETATM   23  C7  LIG X 999      -1.252   3.935  -4.479  1.00  0.00     0.112 C 
ENDBRANCH  20  21
ENDBRANCH  19  20
ENDBRANCH  11  19
ENDBRANCH   1   4
TORSDOF 4
