REMARK  3 active torsions:
REMARK  status: ('A' for Active; 'I' for Inactive)
REMARK    1  A    between atoms: C6_6  and  C7_7 
REMARK    2  A    between atoms: C8_8  and  C9_9 
REMARK    3  A    between atoms: C10_12  and  N1_13 
ROOT
HETATM    1  N1  LIG X 999       1.109  -0.830  -2.966  1.00  0.00    -0.105 NA
HETATM    2  N2  LIG X 999       0.503  -1.851  -3.292  1.00  0.00    -0.167 NA
HETATM    3  N3  LIG X 999      -0.101  -2.872  -3.618  1.00  0.00     0.068 N 
ENDROOT
BRANCH   1   4
HETATM    4  C10 LIG X 999       0.533   0.131  -2.028  1.00  0.00     0.179 C 
HETATM    5  C4  LIG X 999       0.424  -0.488  -0.647  1.00  0.00    -0.023 A 
HETATM    6  C3  LIG X 999       1.401  -0.248   0.352  1.00  0.00    -0.050 A 
HETATM    7  C5  LIG X 999      -0.631  -1.378  -0.378  1.00  0.00     0.030 A 
HETATM    8  C2  LIG X 999       1.287  -0.889   1.596  1.00  0.00     0.009 A 
HETATM    9  C13 LIG X 999       2.492   0.780   0.165  1.00  0.00     0.039 C 
HETATM   10  C1  LIG X 999       0.237  -1.774   1.846  1.00  0.00     0.021 A 
HETATM   11  C6  LIG X 999      -0.724  -2.018   0.862  1.00  0.00     0.018 A 
HETATM   12  C12 LIG X 999       2.726   1.145  -1.303  1.00  0.00     0.007 C 
HETATM   13  C11 LIG X 999       1.395   1.402  -2.012  1.00  0.00     0.035 C 
BRANCH  11  14
HETATM   14  C7  LIG X 999      -1.808  -2.930   1.123  1.00  0.00    -0.056 C 
HETATM   15  C8  LIG X 999      -2.715  -3.693   1.341  1.00  0.00     0.010 C 
BRANCH  15  16
HETATM   16  C9  LIG X 999      -3.795  -4.601   1.599  1.00  0.00     0.258 C 
HETATM   17  O1  LIG X 999      -3.958  -5.073   2.754  1.00  0.00    -0.637 OA
HETATM   18  O2  LIG X 999      -4.660  -4.960   0.575  1.00  0.00    -0.637 OA
ENDBRANCH  15  16
ENDBRANCH  11  14
ENDBRANCH   1   4
TORSDOF 3
