REMARK  4 active torsions:
REMARK  status: ('A' for Active; 'I' for Inactive)
REMARK    1  A    between atoms: C3_3  and  O1_4 
REMARK    2  A    between atoms: O1_4  and  C4_5 
REMARK    3  A    between atoms: C5_7  and  C6_8 
REMARK    4  A    between atoms: C11_13  and  O3_14 
ROOT
HETATM    1  C1  LIG X 999       1.018   5.314   1.990  1.00  0.00     0.014 C 
HETATM    2  C2  LIG X 999       1.735   5.160   1.034  1.00  0.00    -0.091 C 
HETATM    3  C3  LIG X 999       2.605   4.971  -0.128  1.00  0.00     0.270 C 
ENDROOT
BRANCH   3   4
HETATM    4  O1  LIG X 999       2.448   3.646  -0.617  1.00  0.00    -0.317 OA
BRANCH   4   5
HETATM    5  C4  LIG X 999       3.140   3.172  -1.735  1.00  0.00     0.217 C 
HETATM    6  O2  LIG X 999       4.045   3.999  -2.394  1.00  0.00    -0.164 OA
HETATM    7  C5  LIG X 999       2.971   1.918  -2.170  1.00  0.00     0.078 C 
BRANCH   7   8
HETATM    8  C6  LIG X 999       2.039   0.944  -1.557  1.00  0.00    -0.031 A 
HETATM    9  C7  LIG X 999       2.421  -0.404  -1.487  1.00  0.00     0.012 A 
HETATM   10  C8  LIG X 999       1.566  -1.359  -0.931  1.00  0.00     0.013 A 
HETATM   11  C9  LIG X 999       0.304  -0.983  -0.451  1.00  0.00    -0.023 A 
HETATM   12  C10 LIG X 999      -0.561  -1.936   0.110  1.00  0.00     0.049 A 
HETATM   13  C15 LIG X 999      -0.103   0.368  -0.540  1.00  0.00    -0.025 A 
HETATM   14  C11 LIG X 999      -1.832  -1.553   0.581  1.00  0.00     0.069 A 
HETATM   15  C13 LIG X 999      -2.225  -0.213   0.484  1.00  0.00     0.037 A 
HETATM   16  C14 LIG X 999      -1.371   0.742  -0.072  1.00  0.00     0.015 A 
HETATM   17  C16 LIG X 999       0.761   1.321  -1.101  1.00  0.00     0.024 A 
BRANCH  14  18
HETATM   18  O3  LIG X 999      -2.731  -2.468   1.150  1.00  0.00    -0.356 OA
HETATM   19  C12 LIG X 999      -2.469  -3.858   1.313  1.00  0.00     0.210 C 
ENDBRANCH  14  18
ENDBRANCH   7   8
ENDBRANCH   4   5
ENDBRANCH   3   4
TORSDOF 4
