REMARK  6 active torsions:
REMARK  status: ('A' for Active; 'I' for Inactive)
REMARK    1  A    between atoms: C10_10  and  N1_11 
REMARK    2  A    between atoms: C13_16  and  C14_17 
REMARK    3  A    between atoms: C14_17  and  O1_18 
REMARK    4  A    between atoms: C14_17  and  C17_21 
REMARK    5  A    between atoms: O1_18  and  C15_19 
REMARK    6  A    between atoms: C21_27  and  N4_28 
ROOT
HETATM    1  N4  LIG X 999      -4.262   1.396   5.865  1.00  0.00    -0.072 NA
HETATM    2  N5  LIG X 999      -5.268   1.463   6.574  1.00  0.00    -0.162 NA
HETATM    3  N6  LIG X 999      -6.271   1.530   7.283  1.00  0.00     0.068 N 
ENDROOT
BRANCH   1   4
HETATM    4  C21 LIG X 999      -4.285   1.694   4.459  1.00  0.00     0.104 A 
HETATM    5  C1  LIG X 999      -5.481   2.081   3.825  1.00  0.00     0.035 A 
HETATM    6  C2  LIG X 999      -5.501   2.369   2.462  1.00  0.00     0.003 A 
HETATM    7  C3  LIG X 999      -4.335   2.277   1.705  1.00  0.00     0.015 A 
HETATM    8  C4  LIG X 999      -3.124   1.893   2.307  1.00  0.00     0.011 A 
HETATM    9  C5  LIG X 999      -3.097   1.598   3.697  1.00  0.00     0.009 A 
HETATM   10  C20 LIG X 999      -1.940   1.797   1.547  1.00  0.00     0.101 A 
HETATM   11  C6  LIG X 999      -1.881   1.214   4.295  1.00  0.00     0.016 A 
HETATM   12  C7  LIG X 999      -0.713   1.120   3.539  1.00  0.00     0.015 A 
HETATM   13  C8  LIG X 999      -0.735   1.406   2.170  1.00  0.00     0.001 A 
HETATM   14  C9  LIG X 999       0.423   1.314   1.394  1.00  0.00     0.052 A 
HETATM   15  C10 LIG X 999       0.363   1.587   0.026  1.00  0.00     0.131 A 
HETATM   16  C19 LIG X 999      -0.865   1.990  -0.523  1.00  0.00     0.317 A 
HETATM   17  O2  LIG X 999      -0.955   2.260  -1.750  1.00  0.00    -0.257 OA
HETATM   18  O3  LIG X 999      -1.948   2.075   0.243  1.00  0.00    -0.272 OA
BRANCH  15  19
HETATM   19  N1  LIG X 999       1.533   1.481  -0.796  1.00  0.00    -0.232 N 
HETATM   20  N2  LIG X 999       2.031   2.501  -1.477  1.00  0.00     0.010 NA
HETATM   21  N3  LIG X 999       3.066   2.115  -2.209  1.00  0.00    -0.163 NA
HETATM   22  C11 LIG X 999       3.234   0.797  -1.985  1.00  0.00     0.075 A 
HETATM   23  C12 LIG X 999       4.237  -0.050  -2.699  1.00  0.00     0.074 C 
HETATM   24  C13 LIG X 999       2.254   0.378  -1.103  1.00  0.00     0.087 A 
BRANCH  24  25
HETATM   25  C14 LIG X 999       2.015  -1.048  -0.638  1.00  0.00     0.174 C 
BRANCH  25  26
HETATM   26  O1  LIG X 999       0.668  -1.243  -0.243  1.00  0.00    -0.380 OA
BRANCH  26  27
HETATM   27  C15 LIG X 999      -0.138  -1.569  -1.357  1.00  0.00     0.164 C 
HETATM   28  C16 LIG X 999      -1.584  -1.700  -0.903  1.00  0.00     0.033 C 
ENDBRANCH  26  27
ENDBRANCH  25  26
BRANCH  25  29
HETATM   29  C17 LIG X 999       2.939  -1.375   0.546  1.00  0.00     0.034 C 
HETATM   30  C18 LIG X 999       2.845  -2.847   0.944  1.00  0.00     0.008 C 
ENDBRANCH  25  29
ENDBRANCH  24  25
ENDBRANCH  15  19
ENDBRANCH   1   4
TORSDOF 6
