REMARK  1 active torsions:
REMARK  status: ('A' for Active; 'I' for Inactive)
REMARK    1  A    between atoms: C5_8  and  O1_9 
ROOT
HETATM    1  H1  LIG X 999       4.287   1.592   2.209  1.00  0.00     0.187 HD
HETATM    2  N1  LIG X 999       3.251   1.530   2.088  1.00  0.00    -0.300 NA
HETATM    3  C1  LIG X 999       2.709   0.669   1.288  1.00  0.00     0.059 A 
HETATM    4  C2  LIG X 999       3.553  -0.290   0.492  1.00  0.00     0.034 A 
HETATM    5  C3  LIG X 999       2.986  -1.191  -0.345  1.00  0.00     0.035 A 
HETATM    6  C4  LIG X 999       1.516  -1.213  -0.460  1.00  0.00     0.071 A 
HETATM    7  N2  LIG X 999       0.731  -2.012  -1.221  1.00  0.00    -0.224 NA
HETATM    8  C5  LIG X 999      -0.540  -1.601  -0.939  1.00  0.00     0.174 A 
HETATM    9  C6  LIG X 999      -0.540  -0.564  -0.019  1.00  0.00     0.030 A 
HETATM   10  C7  LIG X 999      -1.533   0.201   0.596  1.00  0.00     0.017 A 
HETATM   11  C8  LIG X 999      -1.113   1.200   1.510  1.00  0.00     0.002 A 
HETATM   12  C9  LIG X 999       0.269   1.405   1.782  1.00  0.00     0.015 A 
HETATM   13  C10 LIG X 999       1.232   0.603   1.133  1.00  0.00     0.005 A 
HETATM   14  C11 LIG X 999       0.762  -0.349   0.257  1.00  0.00     0.020 A 
ENDROOT
BRANCH   8  15
HETATM   15  O1  LIG X 999      -1.677  -2.160  -1.510  1.00  0.00    -0.344 OA
HETATM   16  H4  LIG X 999      -1.599  -2.918  -2.177  1.00  0.00     0.219 HD
ENDBRANCH   8  15
TORSDOF 1
