REMARK  7 active torsions:
REMARK  status: ('A' for Active; 'I' for Inactive)
REMARK    1  A    between atoms: S1_2  and  C1_3 
REMARK    2  A    between atoms: C1_3  and  N2_11 
REMARK    3  A    between atoms: N1_4  and  C2_6 
REMARK    4  A    between atoms: C2_6  and  C3_7 
REMARK    5  A    between atoms: C3_7  and  C4_8 
REMARK    6  A    between atoms: C4_8  and  S2_9 
REMARK    7  A    between atoms: N2_11  and  C5_14 
ROOT
HETATM    1  N2  LIG X 999       0.064  -2.199  -1.657  1.00  0.00     0.006 N 
HETATM    2  H10 LIG X 999       0.084  -2.229  -2.703  1.00  0.00     0.293 HD
HETATM    3  H11 LIG X 999      -0.247  -3.139  -1.319  1.00  0.00     0.293 HD
ENDROOT
BRANCH   1   4
HETATM    4  C1  LIG X 999       1.384  -1.907  -1.155  1.00  0.00     0.240 C 
HETATM    5  N1  LIG X 999       2.038  -0.884  -1.617  1.00  0.00    -0.365 N 
HETATM    6  H2  LIG X 999       1.626  -0.337  -2.388  1.00  0.00     0.161 HD
BRANCH   4   7
HETATM    7  S1  LIG X 999       2.071  -2.978   0.130  1.00  0.00    -0.100 SA
HETATM    8  H1  LIG X 999       2.659  -3.829  -0.823  1.00  0.00     0.110 HD
ENDBRANCH   4   7
BRANCH   5   9
HETATM    9  C2  LIG X 999       3.299  -0.413  -1.073  1.00  0.00     0.122 C 
BRANCH   9  10
HETATM   10  C3  LIG X 999       3.087   0.357   0.240  1.00  0.00     0.029 C 
BRANCH  10  11
HETATM   11  C4  LIG X 999       2.173   1.573   0.052  1.00  0.00     0.072 C 
BRANCH  11  12
HETATM   12  S2  LIG X 999       1.963   2.458   1.627  1.00  0.00    -0.182 SA
HETATM   13  H9  LIG X 999       3.304   2.888   1.656  1.00  0.00     0.101 HD
ENDBRANCH  11  12
ENDBRANCH  10  11
ENDBRANCH   9  10
ENDBRANCH   5   9
ENDBRANCH   1   4
BRANCH   1  14
HETATM   14  C5  LIG X 999      -0.857  -1.197  -1.179  1.00  0.00     0.141 A 
HETATM   15  C6  LIG X 999      -1.259  -0.141  -2.015  1.00  0.00     0.038 A 
HETATM   16  C7  LIG X 999      -2.096   0.869  -1.533  1.00  0.00     0.014 A 
HETATM   17  C8  LIG X 999      -2.539   0.844  -0.204  1.00  0.00    -0.026 A 
HETATM   18  C9  LIG X 999      -3.371   1.859   0.293  1.00  0.00     0.012 A 
HETATM   19  C13 LIG X 999      -2.140  -0.214   0.648  1.00  0.00    -0.024 A 
HETATM   20  C10 LIG X 999      -3.801   1.826   1.622  1.00  0.00     0.001 A 
HETATM   21  C11 LIG X 999      -3.406   0.783   2.464  1.00  0.00     0.001 A 
HETATM   22  C12 LIG X 999      -2.579  -0.235   1.981  1.00  0.00     0.012 A 
HETATM   23  C14 LIG X 999      -1.304  -1.227   0.155  1.00  0.00     0.049 A 
ENDBRANCH   1  14
TORSDOF 7
