REMARK  1 active torsions:
REMARK  status: ('A' for Active; 'I' for Inactive)
REMARK    1  A    between atoms: C11_13  and  N2_14 
ROOT
HETATM    1  N2  LIG X 999       0.340  -3.450   1.985  1.00  0.00    -0.053 NA
HETATM    2  N3  LIG X 999       1.246  -4.266   2.159  1.00  0.00    -0.160 NA
HETATM    3  N4  LIG X 999       2.151  -5.080   2.334  1.00  0.00     0.068 N 
ENDROOT
BRANCH   1   4
HETATM    4  C11 LIG X 999       0.545  -2.272   1.204  1.00  0.00     0.175 A 
HETATM    5  C10 LIG X 999      -0.416  -1.303   0.956  1.00  0.00     0.026 A 
HETATM    6  C5  LIG X 999       0.205  -0.379   0.184  1.00  0.00     0.017 A 
HETATM    7  C9  LIG X 999      -1.751  -1.138   1.324  1.00  0.00     0.016 A 
HETATM    8  C4  LIG X 999       1.486  -0.766  -0.031  1.00  0.00     0.046 A 
HETATM    9  C6  LIG X 999      -0.386   0.768  -0.300  1.00  0.00     0.005 A 
HETATM   10  C3  LIG X 999       2.392   0.059  -0.845  1.00  0.00     0.033 A 
HETATM   11  N5  LIG X 999       1.721  -1.942   0.594  1.00  0.00    -0.337 N 
HETATM   12  C2  LIG X 999       1.913   1.210  -1.371  1.00  0.00     0.034 A 
HETATM   13  C1  LIG X 999       0.494   1.643  -1.135  1.00  0.00     0.059 A 
HETATM   14  N1  LIG X 999       0.074   2.753  -1.656  1.00  0.00    -0.300 NA
HETATM   15  H1  LIG X 999      -0.897   3.112  -1.533  1.00  0.00     0.187 HD
HETATM   16  H7  LIG X 999       2.616  -2.479   0.605  1.00  0.00     0.167 HD
HETATM   17  C7  LIG X 999      -1.740   0.977   0.048  1.00  0.00     0.015 A 
HETATM   18  C8  LIG X 999      -2.416   0.022   0.858  1.00  0.00     0.002 A 
ENDBRANCH   1   4
TORSDOF 1
