REMARK  4 active torsions:
REMARK  status: ('A' for Active; 'I' for Inactive)
REMARK    1  A    between atoms: C3_3  and  O1_4 
REMARK    2  A    between atoms: O1_4  and  C4_5 
REMARK    3  A    between atoms: C9_12  and  N2_13 
REMARK    4  A    between atoms: C11_17  and  C12_18 
ROOT
HETATM    1  C1  LIG X 999       1.535   4.072   2.040  1.00  0.00     0.014 C 
HETATM    2  C2  LIG X 999       0.916   3.150   2.510  1.00  0.00    -0.091 C 
HETATM    3  C3  LIG X 999       0.163   2.027   3.079  1.00  0.00     0.268 C 
ENDROOT
BRANCH   3   4
HETATM    4  O1  LIG X 999       0.746   0.786   2.686  1.00  0.00    -0.339 OA
BRANCH   4   5
HETATM    5  C4  LIG X 999       0.714   0.233   1.392  1.00  0.00     0.085 A 
HETATM    6  C5  LIG X 999       0.013   0.887   0.330  1.00  0.00     0.052 A 
HETATM    7  C6  LIG X 999      -0.011   0.322  -0.956  1.00  0.00     0.008 A 
HETATM    8  C7  LIG X 999       0.656  -0.865  -1.132  1.00  0.00     0.018 A 
HETATM    9  C15 LIG X 999      -0.689   0.881  -2.157  1.00  0.00     0.059 A 
HETATM   10  C8  LIG X 999       0.740  -1.548  -2.299  1.00  0.00     0.046 A 
HETATM   11  C10 LIG X 999       1.335  -1.528  -0.160  1.00  0.00     0.042 A 
HETATM   12  N1  LIG X 999       1.472  -2.666  -2.122  1.00  0.00    -0.337 N 
HETATM   13  C13 LIG X 999       0.091  -1.043  -3.522  1.00  0.00     0.033 A 
HETATM   14  H5  LIG X 999       1.705  -3.381  -2.846  1.00  0.00     0.167 HD
HETATM   15  C9  LIG X 999       1.841  -2.660  -0.810  1.00  0.00     0.176 A 
HETATM   16  C14 LIG X 999      -0.593   0.121  -3.450  1.00  0.00     0.034 A 
HETATM   17  C11 LIG X 999       1.394  -1.007   1.149  1.00  0.00     0.050 A 
HETATM   18  N5  LIG X 999      -1.343   1.996  -2.088  1.00  0.00    -0.300 NA
HETATM   19  H9  LIG X 999      -1.824   2.405  -2.920  1.00  0.00     0.187 HD
BRANCH  15  20
HETATM   20  N2  LIG X 999       2.641  -3.679  -0.208  1.00  0.00    -0.053 NA
HETATM   21  N3  LIG X 999       3.046  -4.643  -0.859  1.00  0.00    -0.160 NA
HETATM   22  N4  LIG X 999       3.452  -5.605  -1.508  1.00  0.00     0.068 N 
ENDBRANCH  15  20
BRANCH  17  23
HETATM   23  C12 LIG X 999       2.130  -1.719   2.222  1.00  0.00     0.273 C 
HETATM   24  O2  LIG X 999       2.226  -1.243   3.383  1.00  0.00    -0.301 OA
ENDBRANCH  17  23
ENDBRANCH   4   5
ENDBRANCH   3   4
TORSDOF 4
