REMARK  1 active torsions:
REMARK  status: ('A' for Active; 'I' for Inactive)
REMARK    1  A    between atoms: C2_5  and  C3_6 
ROOT
HETATM    1  C3  LIG X 999      -0.870  -0.598   0.190  1.00  0.00     0.030 A 
HETATM    2  C4  LIG X 999      -2.242  -0.361  -0.033  1.00  0.00     0.017 A 
HETATM    3  C5  LIG X 999      -3.224  -1.130   0.582  1.00  0.00     0.002 A 
HETATM    4  C6  LIG X 999      -2.870  -2.160   1.441  1.00  0.00     0.012 A 
HETATM    5  C7  LIG X 999      -1.522  -2.437   1.696  1.00  0.00    -0.025 A 
HETATM    6  C8  LIG X 999      -1.197  -3.486   2.571  1.00  0.00     0.012 A 
HETATM    7  C9  LIG X 999       0.133  -3.787   2.847  1.00  0.00     0.001 A 
HETATM    8  C10 LIG X 999       1.150  -3.046   2.255  1.00  0.00     0.001 A 
HETATM    9  C11 LIG X 999       0.848  -1.997   1.382  1.00  0.00     0.013 A 
HETATM   10  C12 LIG X 999      -0.494  -1.662   1.077  1.00  0.00    -0.011 A 
ENDROOT
BRANCH   1  11
HETATM   11  C2  LIG X 999       0.073   0.308  -0.539  1.00  0.00     0.203 A 
HETATM   12  O1  LIG X 999      -0.332   1.272  -1.345  1.00  0.00    -0.255 OA
HETATM   13  C1  LIG X 999       0.766   1.832  -1.784  1.00  0.00     0.262 A 
HETATM   14  N1  LIG X 999       0.801   2.829  -2.607  1.00  0.00    -0.260 NA
HETATM   15  N3  LIG X 999       1.853   1.242  -1.274  1.00  0.00    -0.238 N 
HETATM   16  H1  LIG X 999      -0.081   3.250  -2.974  1.00  0.00     0.190 HD
HETATM   17  N2  LIG X 999       1.423   0.274  -0.483  1.00  0.00    -0.145 NA
HETATM   18  H9  LIG X 999       2.855   1.478  -1.448  1.00  0.00     0.193 HD
ENDBRANCH   1  11
TORSDOF 1
