REMARK  2 active torsions:
REMARK  status: ('A' for Active; 'I' for Inactive)
REMARK    1  A    between atoms: C10_12  and  N3_13 
REMARK       I    between atoms: N3_13  and  C11_14 
REMARK    2  A    between atoms: C11_14  and  C12_16 
ROOT
HETATM    1  C1  LIG X 999       2.081   3.456   3.584  1.00  0.00     0.272 C 
HETATM    2  N1  LIG X 999       2.293   3.156   2.148  1.00  0.00    -0.067 N 
HETATM    3  C2  LIG X 999       3.405   3.991   1.640  1.00  0.00     0.272 C 
HETATM    4  C3  LIG X 999       1.036   3.425   1.378  1.00  0.00     0.276 C 
HETATM    5  C4  LIG X 999       0.514   2.096   0.992  1.00  0.00    -0.024 A 
HETATM    6  C5  LIG X 999      -0.688   1.803   0.346  1.00  0.00     0.021 A 
HETATM    7  C6  LIG X 999      -0.982   0.458   0.047  1.00  0.00    -0.024 A 
HETATM    8  C7  LIG X 999      -2.175   0.118  -0.602  1.00  0.00     0.037 A 
HETATM    9  C8  LIG X 999      -2.464  -1.220  -0.902  1.00  0.00     0.072 A 
HETATM   10  C9  LIG X 999      -3.711  -1.532  -1.557  1.00  0.00     0.102 C 
HETATM   11  N2  LIG X 999      -4.711  -1.782  -2.083  1.00  0.00    -0.191 NA
HETATM   12  C10 LIG X 999      -1.559  -2.241  -0.540  1.00  0.00     0.056 A 
HETATM   13  C13 LIG X 999      -0.352  -1.899   0.096  1.00  0.00     0.043 A 
HETATM   14  C14 LIG X 999      -0.057  -0.564   0.399  1.00  0.00    -0.023 A 
HETATM   15  C15 LIG X 999       1.150  -0.224   1.041  1.00  0.00     0.021 A 
HETATM   16  C16 LIG X 999       1.401   1.119   1.326  1.00  0.00    -0.024 A 
HETATM   17  C17 LIG X 999       2.599   1.701   1.968  1.00  0.00     0.276 C 
ENDROOT
BRANCH  12  18
HETATM   18  N3  LIG X 999      -1.841  -3.614  -0.870  1.00  0.00    -0.323 N 
HETATM   19  C11 LIG X 999      -1.556  -4.716   0.008  1.00  0.00     0.255 C 
HETATM   20  O1  LIG X 999      -1.212  -4.508   1.203  1.00  0.00    -0.270 OA
HETATM   21  H11 LIG X 999      -2.337  -3.819  -1.766  1.00  0.00     0.169 HD
BRANCH  19  22
HETATM   22  C12 LIG X 999      -1.718  -6.126  -0.472  1.00  0.00     0.270 C 
HETATM   23 CL1  LIG X 999      -0.737  -6.397  -1.934  1.00  0.00    -0.098 Cl
HETATM   24 CL2  LIG X 999      -3.430  -6.455  -0.833  1.00  0.00    -0.098 Cl
ENDBRANCH  19  22
ENDBRANCH  12  18
TORSDOF 2
