REMARK  7 active torsions:
REMARK  status: ('A' for Active; 'I' for Inactive)
REMARK    1  A    between atoms: C14_14  and  N1_15 
REMARK    2  A    between atoms: N1_15  and  C15_17 
REMARK    3  A    between atoms: C15_17  and  C16_18 
REMARK    4  A    between atoms: C16_18  and  C17_19 
REMARK    5  A    between atoms: C17_19  and  C18_20 
REMARK    6  A    between atoms: C18_20  and  C19_21 
REMARK    7  A    between atoms: C19_21  and  N2_22 
ROOT
HETATM    1  C1  LIG X 999      -4.599  -2.355  -4.159  1.00  0.00     0.001 C 
HETATM    2  C2  LIG X 999      -4.452  -1.089  -3.601  1.00  0.00     0.001 C 
HETATM    3  C3  LIG X 999      -3.584  -0.888  -2.525  1.00  0.00     0.013 C 
HETATM    4  C4  LIG X 999      -2.876  -1.967  -1.945  1.00  0.00    -0.013 C 
HETATM    5  C5  LIG X 999      -2.949  -3.226  -2.607  1.00  0.00    -0.025 C 
HETATM    6  C6  LIG X 999      -3.836  -3.417  -3.679  1.00  0.00     0.012 C 
HETATM    7  C7  LIG X 999      -2.096  -4.267  -2.234  1.00  0.00     0.014 C 
HETATM    8  C8  LIG X 999      -1.134  -4.066  -1.255  1.00  0.00     0.031 C 
HETATM    9  C9  LIG X 999      -1.073  -2.860  -0.545  1.00  0.00     0.045 C 
HETATM   10  C10 LIG X 999      -2.017  -1.827  -0.804  1.00  0.00     0.008 C 
HETATM   11  C11 LIG X 999      -2.057  -0.745   0.128  1.00  0.00    -0.045 C 
HETATM   12  C12 LIG X 999      -3.230   0.192   0.289  1.00  0.00     0.049 C 
HETATM   13  C13 LIG X 999      -1.020  -0.602   1.061  1.00  0.00     0.056 C 
HETATM   14  C14 LIG X 999      -0.022  -1.583   1.183  1.00  0.00     0.101 C 
HETATM   15  N3  LIG X 999      -0.110  -2.701   0.408  1.00  0.00    -0.342 N 
HETATM   16  H28 LIG X 999       0.593  -3.465   0.542  1.00  0.00     0.167 HD
ENDROOT
BRANCH  14  17
HETATM   17  N1  LIG X 999       0.964  -1.477   2.045  1.00  0.00    -0.376 N 
HETATM   18  H11 LIG X 999       1.653  -2.261   2.118  1.00  0.00     0.161 HD
BRANCH  17  19
HETATM   19  C15 LIG X 999       1.207  -0.345   2.948  1.00  0.00     0.121 C 
BRANCH  19  20
HETATM   20  C16 LIG X 999       1.815   0.839   2.185  1.00  0.00     0.020 C 
BRANCH  20  21
HETATM   21  C17 LIG X 999       2.088   2.020   3.129  1.00  0.00     0.004 C 
BRANCH  21  22
HETATM   22  C18 LIG X 999       2.530   3.292   2.383  1.00  0.00     0.035 C 
BRANCH  22  23
HETATM   23  C19 LIG X 999       3.901   3.163   1.688  1.00  0.00     0.216 C 
HETATM   24  C21 LIG X 999       4.249   4.481   0.973  1.00  0.00     0.042 C 
BRANCH  23  25
HETATM   25  N2  LIG X 999       4.929   2.801   2.683  1.00  0.00     0.083 N 
HETATM   26  H21 LIG X 999       5.279   3.657   3.174  1.00  0.00     0.315 HD
HETATM   27  C20 LIG X 999       6.067   2.107   2.075  1.00  0.00     0.307 C 
ENDBRANCH  23  25
ENDBRANCH  22  23
ENDBRANCH  21  22
ENDBRANCH  20  21
ENDBRANCH  19  20
ENDBRANCH  17  19
ENDBRANCH  14  17
TORSDOF 7
