REMARK  1 active torsions:
REMARK  status: ('A' for Active; 'I' for Inactive)
REMARK    1  A    between atoms: C4_4  and  N1_5 
ROOT
HETATM    1  C1  LIG X 999      -2.461  -1.746   0.244  1.00  0.00     0.049 C 
HETATM    2  C2  LIG X 999      -1.608  -1.042  -0.783  1.00  0.00    -0.045 C 
HETATM    3  C3  LIG X 999      -1.898  -1.329  -2.125  1.00  0.00     0.055 C 
HETATM    4  C4  LIG X 999      -1.012  -0.958  -3.133  1.00  0.00     0.099 C 
HETATM    5  N2  LIG X 999       0.157  -0.348  -2.811  1.00  0.00    -0.342 N 
HETATM    6  C5  LIG X 999       0.465  -0.007  -1.526  1.00  0.00     0.045 C 
HETATM    7  C6  LIG X 999       1.718   0.556  -1.255  1.00  0.00     0.031 C 
HETATM    8  C7  LIG X 999       2.070   0.913   0.038  1.00  0.00     0.014 C 
HETATM    9  C8  LIG X 999       1.138   0.822   1.074  1.00  0.00    -0.025 C 
HETATM   10  C9  LIG X 999       1.484   1.296   2.350  1.00  0.00     0.012 C 
HETATM   11  C10 LIG X 999       0.531   1.342   3.365  1.00  0.00     0.001 C 
HETATM   12  C11 LIG X 999      -0.780   0.957   3.103  1.00  0.00     0.001 C 
HETATM   13  C12 LIG X 999      -1.134   0.470   1.842  1.00  0.00     0.013 C 
HETATM   14  C13 LIG X 999      -0.167   0.309   0.822  1.00  0.00    -0.013 C 
HETATM   15  C14 LIG X 999      -0.465  -0.240  -0.471  1.00  0.00     0.008 C 
HETATM   16  H7  LIG X 999       0.836  -0.136  -3.579  1.00  0.00     0.167 HD
ENDROOT
BRANCH   4  17
HETATM   17  N1  LIG X 999      -1.306  -1.274  -4.497  1.00  0.00    -0.385 N 
HETATM   18  H5  LIG X 999      -2.192  -1.761  -4.756  1.00  0.00     0.157 HD
HETATM   19  H6  LIG X 999      -0.638  -1.018  -5.257  1.00  0.00     0.157 HD
ENDBRANCH   4  17
TORSDOF 1
