REMARK  3 active torsions:
REMARK  status: ('A' for Active; 'I' for Inactive)
REMARK    1  A    between atoms: C7_9  and  C8_10 
REMARK    2  A    between atoms: C9_14  and  N4_15 
REMARK    3  A    between atoms: N7_24  and  C14_25 
ROOT
HETATM    1  N4  LIG X 999      -1.995   6.072  -0.756  1.00  0.00    -0.025 NA
HETATM    2  N5  LIG X 999      -3.087   5.575  -1.031  1.00  0.00    -0.158 NA
HETATM    3  N6  LIG X 999      -4.178   5.079  -1.306  1.00  0.00     0.068 N 
ENDROOT
BRANCH   1   4
HETATM    4  C9  LIG X 999      -0.849   5.246  -0.556  1.00  0.00     0.302 A 
HETATM    5  N3  LIG X 999       0.369   5.714  -0.247  1.00  0.00    -0.236 N 
HETATM    6  N2  LIG X 999       1.171   4.668  -0.140  1.00  0.00    -0.145 NA
HETATM    7  H4  LIG X 999       0.655   6.709  -0.114  1.00  0.00     0.193 HD
HETATM    8  C8  LIG X 999       0.396   3.588  -0.384  1.00  0.00     0.203 A 
HETATM    9  O1  LIG X 999      -0.845   3.939  -0.649  1.00  0.00    -0.253 OA
BRANCH   8  10
HETATM   10  C7  LIG X 999       0.902   2.201  -0.406  1.00  0.00     0.032 A 
HETATM   11  C6  LIG X 999       0.116   1.079   0.002  1.00  0.00     0.020 A 
HETATM   12  C1  LIG X 999      -1.217   1.063   0.691  1.00  0.00     0.060 A 
HETATM   13  C5  LIG X 999       0.680  -0.170  -0.194  1.00  0.00     0.019 A 
HETATM   14  N1  LIG X 999      -1.779   2.157   1.095  1.00  0.00    -0.299 NA
HETATM   15  C2  LIG X 999      -1.852  -0.263   1.007  1.00  0.00     0.034 A 
HETATM   16  H1  LIG X 999      -2.689   2.156   1.607  1.00  0.00     0.187 HD
HETATM   17  C3  LIG X 999      -1.217  -1.424   0.747  1.00  0.00     0.033 A 
HETATM   18  C4  LIG X 999       0.117  -1.365   0.127  1.00  0.00     0.048 A 
HETATM   19  N7  LIG X 999       0.980  -2.368  -0.170  1.00  0.00    -0.324 N 
HETATM   20  C13 LIG X 999       2.098  -1.763  -0.661  1.00  0.00     0.193 A 
HETATM   21  C12 LIG X 999       1.924  -0.390  -0.689  1.00  0.00     0.032 A 
HETATM   22  O2  LIG X 999       3.248  -2.439  -1.053  1.00  0.00    -0.171 OA
HETATM   23  C11 LIG X 999       2.742   0.672  -1.055  1.00  0.00     0.018 A 
HETATM   24  C10 LIG X 999       2.219   1.977  -0.914  1.00  0.00     0.018 A 
BRANCH  19  25
HETATM   25  C14 LIG X 999       0.802  -3.796   0.091  1.00  0.00     0.127 C 
HETATM   26  C15 LIG X 999       1.207  -4.127   1.522  1.00  0.00     0.027 C 
ENDBRANCH  19  25
ENDBRANCH   8  10
ENDBRANCH   1   4
TORSDOF 3
