REMARK  5 active torsions:
REMARK  status: ('A' for Active; 'I' for Inactive)
REMARK    1  A    between atoms: O1_2  and  C1_3 
REMARK    2  A    between atoms: C1_3  and  C13_17 
REMARK    3  A    between atoms: N1_4  and  C2_5 
REMARK    4  A    between atoms: C3_6  and  O2_7 
REMARK    5  A    between atoms: C13_17  and  C15_19 
ROOT
HETATM    1  C2  LIG X 999       0.281  -0.592   1.038  1.00  0.00     0.103 A 
HETATM    2  C3  LIG X 999       0.408  -1.975   1.294  1.00  0.00     0.097 A 
HETATM    3  C5  LIG X 999       1.535  -2.668   0.814  1.00  0.00     0.040 A 
HETATM    4  C6  LIG X 999       2.542  -1.996   0.124  1.00  0.00     0.015 A 
HETATM    5  C7  LIG X 999       2.453  -0.616  -0.091  1.00  0.00    -0.024 A 
HETATM    6  C8  LIG X 999       3.481   0.061  -0.766  1.00  0.00     0.012 A 
HETATM    7  C9  LIG X 999       3.395   1.439  -0.975  1.00  0.00     0.001 A 
HETATM    8  C10 LIG X 999       2.287   2.151  -0.514  1.00  0.00     0.001 A 
HETATM    9  C11 LIG X 999       1.255   1.490   0.157  1.00  0.00     0.014 A 
HETATM   10  C12 LIG X 999       1.321   0.099   0.376  1.00  0.00     0.006 A 
ENDROOT
BRANCH   1  11
HETATM   11  N1  LIG X 999      -0.867   0.135   1.508  1.00  0.00    -0.225 NA
HETATM   12  C1  LIG X 999      -2.107  -0.195   1.285  1.00  0.00     0.142 C 
BRANCH  12  13
HETATM   13  O1  LIG X 999      -2.410  -1.282   0.464  1.00  0.00    -0.348 OA
HETATM   14  H1  LIG X 999      -3.369  -1.536   0.259  1.00  0.00     0.219 HD
ENDBRANCH  12  13
BRANCH  12  15
HETATM   15  C13 LIG X 999      -3.232   0.641   1.852  1.00  0.00     0.058 C 
HETATM   16  C14 LIG X 999      -2.841   1.348   3.160  1.00  0.00     0.018 C 
BRANCH  15  17
HETATM   17  C15 LIG X 999      -3.800   1.619   0.800  1.00  0.00     0.008 C 
HETATM   18  C16 LIG X 999      -2.774   2.608   0.239  1.00  0.00     0.006 C 
ENDBRANCH  15  17
ENDBRANCH  12  15
ENDBRANCH   1  11
BRANCH   2  19
HETATM   19  O2  LIG X 999      -0.586  -2.622   2.046  1.00  0.00    -0.354 OA
HETATM   20  C4  LIG X 999      -0.585  -4.008   2.372  1.00  0.00     0.210 C 
ENDBRANCH   2  19
TORSDOF 5
