REMARK  8 active torsions:
REMARK  status: ('A' for Active; 'I' for Inactive)
REMARK    1  A    between atoms: O1_2  and  C1_3 
REMARK    2  A    between atoms: C1_3  and  N1_4 
REMARK       I    between atoms: N1_4  and  C2_6 
REMARK    3  A    between atoms: C2_6  and  C3_8 
REMARK    4  A    between atoms: N2_15  and  C9_17 
REMARK    5  A    between atoms: C9_17  and  C10_18 
REMARK    6  A    between atoms: C10_18  and  C11_19 
REMARK    7  A    between atoms: C11_19  and  O3_20 
REMARK    8  A    between atoms: O3_20  and  C12_21 
ROOT
HETATM    1  C1  LIG X 999      -1.435  -3.072   1.048  1.00  0.00     0.219 C 
HETATM    2  N2  LIG X 999      -2.374  -3.417   0.213  1.00  0.00    -0.356 N 
HETATM    3  H7  LIG X 999      -2.205  -3.328  -0.815  1.00  0.00     0.163 HD
ENDROOT
BRANCH   2   4
HETATM    4  C9  LIG X 999      -3.692  -3.890   0.644  1.00  0.00     0.125 C 
BRANCH   4   5
HETATM    5  C10 LIG X 999      -4.554  -2.726   1.164  1.00  0.00     0.046 C 
BRANCH   5   6
HETATM    6  C11 LIG X 999      -5.074  -1.817   0.039  1.00  0.00     0.177 C 
BRANCH   6   7
HETATM    7  O3  LIG X 999      -4.013  -1.302  -0.767  1.00  0.00    -0.351 OA
BRANCH   7   8
HETATM    8  C12 LIG X 999      -3.074  -0.336  -0.371  1.00  0.00     0.069 A 
HETATM    9  C13 LIG X 999      -3.201   0.408   0.817  1.00  0.00     0.037 A 
HETATM   10  C14 LIG X 999      -2.231   1.352   1.167  1.00  0.00     0.015 A 
HETATM   11  C15 LIG X 999      -1.120   1.565   0.340  1.00  0.00    -0.026 A 
HETATM   12  C16 LIG X 999      -0.140   2.510   0.683  1.00  0.00     0.012 A 
HETATM   13  C20 LIG X 999      -0.985   0.819  -0.855  1.00  0.00    -0.023 A 
HETATM   14  C17 LIG X 999       0.966   2.708  -0.149  1.00  0.00     0.001 A 
HETATM   15  C18 LIG X 999       1.105   1.962  -1.323  1.00  0.00     0.001 A 
HETATM   16  C19 LIG X 999       0.135   1.020  -1.677  1.00  0.00     0.012 A 
HETATM   17  C21 LIG X 999      -1.967  -0.119  -1.202  1.00  0.00     0.049 A 
ENDBRANCH   7   8
ENDBRANCH   6   7
ENDBRANCH   5   6
ENDBRANCH   4   5
ENDBRANCH   2   4
BRANCH   1  18
HETATM   18  O1  LIG X 999      -1.618  -3.261   2.420  1.00  0.00    -0.332 OA
HETATM   19  H1  LIG X 999      -0.868  -3.134   3.087  1.00  0.00     0.220 HD
ENDBRANCH   1  18
BRANCH   1  20
HETATM   20  N1  LIG X 999      -0.210  -2.509   0.546  1.00  0.00    -0.289 N 
HETATM   21  H2  LIG X 999       0.015  -2.668  -0.461  1.00  0.00     0.172 HD
HETATM   22  C2  LIG X 999       0.562  -1.538   1.275  1.00  0.00     0.258 C 
HETATM   23  O2  LIG X 999       0.072  -0.998   2.304  1.00  0.00    -0.267 OA
BRANCH  22  24
HETATM   24  C3  LIG X 999       1.901  -1.104   0.800  1.00  0.00     0.032 A 
HETATM   25  C4  LIG X 999       2.619  -1.850  -0.156  1.00  0.00     0.018 A 
HETATM   26  C5  LIG X 999       3.864  -1.407  -0.612  1.00  0.00     0.025 A 
HETATM   27  C6  LIG X 999       4.414  -0.222  -0.115  1.00  0.00     0.034 A 
HETATM   28 CL1  LIG X 999       5.972   0.335  -0.696  1.00  0.00    -0.084 Cl
HETATM   29  C7  LIG X 999       3.723   0.514   0.850  1.00  0.00     0.025 A 
HETATM   30  C8  LIG X 999       2.479   0.074   1.310  1.00  0.00     0.018 A 
ENDBRANCH  22  24
ENDBRANCH   1  20
TORSDOF 8
