REMARK  6 active torsions:
REMARK  status: ('A' for Active; 'I' for Inactive)
REMARK    1  A    between atoms: C4_5  and  C5_6 
REMARK       I    between atoms: C5_6  and  N2_8 
REMARK    2  A    between atoms: N2_8  and  C6_9 
REMARK    3  A    between atoms: C6_9  and  O2_10 
REMARK    4  A    between atoms: O2_10  and  C7_11 
REMARK    5  A    between atoms: C7_11  and  O4_13 
REMARK    6  A    between atoms: O4_13  and  C8_14 
ROOT
HETATM    1  C7  LIG X 999       2.325   0.945   1.805  1.00  0.00     0.413 C 
HETATM    2  O3  LIG X 999       1.775   1.686   2.667  1.00  0.00    -0.229 OA
ENDROOT
BRANCH   1   3
HETATM    3  O2  LIG X 999       3.057  -0.176   2.202  1.00  0.00    -0.276 OA
BRANCH   3   4
HETATM    4  C6  LIG X 999       3.151  -0.591   3.561  1.00  0.00     0.334 C 
BRANCH   4   5
HETATM    5  N2  LIG X 999       3.808  -1.889   3.632  1.00  0.00    -0.224 NA
HETATM    6  C5  LIG X 999       3.320  -3.124   3.086  1.00  0.00     0.294 C 
HETATM    7  O1  LIG X 999       4.035  -4.153   3.210  1.00  0.00    -0.264 OA
BRANCH   6   8
HETATM    8  C4  LIG X 999       2.021  -3.244   2.386  1.00  0.00     0.147 A 
HETATM    9  C3  LIG X 999       1.534  -4.397   1.791  1.00  0.00     0.058 A 
HETATM   10  C2  LIG X 999       0.308  -4.034   1.275  1.00  0.00     0.114 A 
HETATM   11  N1  LIG X 999       0.103  -2.733   1.550  1.00  0.00    -0.285 N 
HETATM   12  C1  LIG X 999      -1.095  -1.970   1.231  1.00  0.00     0.179 C 
HETATM   13  N3  LIG X 999       1.125  -2.249   2.235  1.00  0.00    -0.168 NA
ENDBRANCH   6   8
ENDBRANCH   4   5
ENDBRANCH   3   4
ENDBRANCH   1   3
BRANCH   1  14
HETATM   14  O4  LIG X 999       2.244   1.250   0.442  1.00  0.00    -0.256 OA
BRANCH  14  15
HETATM   15  C8  LIG X 999       1.277   2.079  -0.145  1.00  0.00     0.082 A 
HETATM   16  C9  LIG X 999       1.605   2.752  -1.327  1.00  0.00     0.038 A 
HETATM   17  C10 LIG X 999       0.673   3.579  -1.960  1.00  0.00     0.015 A 
HETATM   18  C11 LIG X 999      -0.613   3.732  -1.422  1.00  0.00    -0.026 A 
HETATM   19  C12 LIG X 999      -1.558   4.558  -2.050  1.00  0.00     0.012 A 
HETATM   20  C16 LIG X 999      -0.962   3.042  -0.236  1.00  0.00    -0.023 A 
HETATM   21  C13 LIG X 999      -2.840   4.694  -1.508  1.00  0.00     0.001 A 
HETATM   22  C14 LIG X 999      -3.187   4.010  -0.341  1.00  0.00     0.001 A 
HETATM   23  C15 LIG X 999      -2.254   3.185   0.295  1.00  0.00     0.012 A 
HETATM   24  C17 LIG X 999      -0.017   2.216   0.393  1.00  0.00     0.049 A 
ENDBRANCH  14  15
ENDBRANCH   1  14
TORSDOF 6
