REMARK  4 active torsions:
REMARK  status: ('A' for Active; 'I' for Inactive)
REMARK    1  A    between atoms: C3_3  and  O1_4 
REMARK    2  A    between atoms: O1_4  and  C4_5 
REMARK    3  A    between atoms: C9_12  and  N2_13 
REMARK    4  A    between atoms: C11_17  and  C12_18 
ROOT
HETATM    1  C1  LIG X 999       1.770   5.189  -0.461  1.00  0.00     0.014 C 
HETATM    2  C2  LIG X 999       1.752   4.674   0.629  1.00  0.00    -0.091 C 
HETATM    3  C3  LIG X 999       1.728   4.045   1.954  1.00  0.00     0.268 C 
ENDROOT
BRANCH   3   4
HETATM    4  O1  LIG X 999       2.157   2.687   1.869  1.00  0.00    -0.339 OA
BRANCH   4   5
HETATM    5  C4  LIG X 999       1.433   1.630   1.285  1.00  0.00     0.085 A 
HETATM    6  C5  LIG X 999       0.122   1.842   0.750  1.00  0.00     0.052 A 
HETATM    7  C6  LIG X 999      -0.588   0.776   0.173  1.00  0.00     0.008 A 
HETATM    8  C7  LIG X 999       0.029  -0.450   0.153  1.00  0.00     0.018 A 
HETATM    9  C15 LIG X 999      -1.948   0.840  -0.426  1.00  0.00     0.059 A 
HETATM   10  C8  LIG X 999      -0.503  -1.584  -0.365  1.00  0.00     0.046 A 
HETATM   11  C10 LIG X 999       1.268  -0.707   0.646  1.00  0.00     0.042 A 
HETATM   12  N1  LIG X 999       0.368  -2.602  -0.226  1.00  0.00    -0.337 N 
HETATM   13  C13 LIG X 999      -1.846  -1.582  -0.972  1.00  0.00     0.033 A 
HETATM   14  H5  LIG X 999       0.229  -3.590  -0.535  1.00  0.00     0.167 HD
HETATM   15  C9  LIG X 999       1.459  -2.071   0.395  1.00  0.00     0.176 A 
HETATM   16  C14 LIG X 999      -2.536  -0.420  -1.000  1.00  0.00     0.034 A 
HETATM   17  C11 LIG X 999       2.027   0.325   1.236  1.00  0.00     0.050 A 
HETATM   18  N5  LIG X 999      -2.608   1.954  -0.453  1.00  0.00    -0.300 NA
HETATM   19  H9  LIG X 999      -3.563   2.018  -0.869  1.00  0.00     0.187 HD
BRANCH  15  20
HETATM   20  N2  LIG X 999       2.627  -2.824   0.725  1.00  0.00    -0.053 NA
HETATM   21  N3  LIG X 999       2.710  -4.024   0.463  1.00  0.00    -0.160 NA
HETATM   22  N4  LIG X 999       2.793  -5.223   0.202  1.00  0.00     0.068 N 
ENDBRANCH  15  20
BRANCH  17  23
HETATM   23  C12 LIG X 999       3.381   0.061   1.781  1.00  0.00     0.273 C 
HETATM   24  O2  LIG X 999       4.086   0.982   2.271  1.00  0.00    -0.301 OA
ENDBRANCH  17  23
ENDBRANCH   4   5
ENDBRANCH   3   4
TORSDOF 4
