REMARK  2 active torsions:
REMARK  status: ('A' for Active; 'I' for Inactive)
REMARK    1  A    between atoms: C2_2  and  N1_3 
REMARK    2  A    between atoms: C3_6  and  O1_7 
ROOT
HETATM    1  N1  LIG X 999       0.780  -0.248  -4.852  1.00  0.00    -0.070 NA
HETATM    2  N2  LIG X 999       0.309  -0.890  -5.791  1.00  0.00    -0.162 NA
HETATM    3  N3  LIG X 999      -0.158  -1.528  -6.734  1.00  0.00     0.068 N 
ENDROOT
BRANCH   1   4
HETATM    4  C2  LIG X 999       0.493  -0.528  -3.471  1.00  0.00     0.127 A 
HETATM    5  C1  LIG X 999       1.102   0.289  -2.510  1.00  0.00     0.049 A 
HETATM    6  C11 LIG X 999       0.873   0.088  -1.144  1.00  0.00    -0.023 A 
HETATM    7  C6  LIG X 999       0.013  -0.962  -0.725  1.00  0.00    -0.022 A 
HETATM    8  C10 LIG X 999       1.488   0.916  -0.184  1.00  0.00     0.021 A 
HETATM    9  C5  LIG X 999      -0.596  -1.782  -1.682  1.00  0.00     0.051 A 
HETATM   10  C7  LIG X 999      -0.218  -1.171   0.650  1.00  0.00     0.021 A 
HETATM   11  C3  LIG X 999      -0.368  -1.576  -3.059  1.00  0.00     0.100 A 
HETATM   12  C8  LIG X 999       0.404  -0.325   1.569  1.00  0.00    -0.024 A 
HETATM   13  C9  LIG X 999       1.226   0.683   1.166  1.00  0.00    -0.024 A 
HETATM   14  C15 LIG X 999       0.324  -0.371   3.045  1.00  0.00     0.276 C 
HETATM   15  C12 LIG X 999       1.771   1.406   2.335  1.00  0.00     0.276 C 
HETATM   16  N4  LIG X 999       1.060   0.841   3.526  1.00  0.00    -0.067 N 
HETATM   17  C13 LIG X 999       2.026   0.479   4.588  1.00  0.00     0.272 C 
HETATM   18  C14 LIG X 999       0.102   1.837   4.064  1.00  0.00     0.272 C 
BRANCH  11  19
HETATM   19  O1  LIG X 999      -0.981  -2.391  -4.025  1.00  0.00    -0.353 OA
HETATM   20  C4  LIG X 999      -1.870  -3.466  -3.741  1.00  0.00     0.210 C 
ENDBRANCH  11  19
ENDBRANCH   1   4
TORSDOF 2
