REMARK  1 active torsions:
REMARK  status: ('A' for Active; 'I' for Inactive)
REMARK    1  A    between atoms: C2_2  and  N1_3 
ROOT
HETATM    1  N1  LIG X 999       3.331  -3.384  -1.068  1.00  0.00    -0.073 NA
HETATM    2  N2  LIG X 999       3.662  -3.857  -2.157  1.00  0.00    -0.162 NA
HETATM    3  N3  LIG X 999       3.993  -4.329  -3.243  1.00  0.00     0.068 N 
ENDROOT
BRANCH   1   4
HETATM    4  C2  LIG X 999       2.348  -2.347  -0.949  1.00  0.00     0.094 A 
HETATM    5  C1  LIG X 999       1.701  -1.808  -2.076  1.00  0.00     0.035 A 
HETATM    6  C10 LIG X 999       0.746  -0.798  -1.932  1.00  0.00     0.014 A 
HETATM    7  C9  LIG X 999       0.422  -0.310  -0.659  1.00  0.00    -0.025 A 
HETATM    8  C4  LIG X 999       1.073  -0.852   0.488  1.00  0.00    -0.023 A 
HETATM    9  C8  LIG X 999      -0.540   0.708  -0.504  1.00  0.00     0.030 A 
HETATM   10  C3  LIG X 999       2.029  -1.865   0.327  1.00  0.00     0.046 A 
HETATM   11  C5  LIG X 999       0.753  -0.367   1.773  1.00  0.00     0.022 A 
HETATM   12  C6  LIG X 999      -0.205   0.642   1.887  1.00  0.00    -0.015 A 
HETATM   13  C7  LIG X 999      -0.823   1.154   0.785  1.00  0.00     0.049 A 
HETATM   14  C14 LIG X 999      -0.703   1.307   3.132  1.00  0.00     0.286 A 
HETATM   15  C11 LIG X 999      -1.740   2.162   1.244  1.00  0.00     0.351 A 
HETATM   16  O1  LIG X 999      -2.480   2.841   0.479  1.00  0.00    -0.259 OA
HETATM   17  N4  LIG X 999      -1.721   2.312   2.680  1.00  0.00    -0.005 N 
HETATM   18  C12 LIG X 999      -1.312   3.687   3.037  1.00  0.00     0.283 C 
HETATM   19  C13 LIG X 999      -3.057   2.009   3.236  1.00  0.00     0.283 C 
ENDBRANCH   1   4
TORSDOF 1
