REMARK  5 active torsions:
REMARK  status: ('A' for Active; 'I' for Inactive)
REMARK    1  A    between atoms: C2_2  and  C3_3 
REMARK    2  A    between atoms: C2_2  and  N1_13 
REMARK    3  A    between atoms: C14_15  and  C15_16 
REMARK    4  A    between atoms: C15_16  and  C16_17 
REMARK       I    between atoms: C16_17  and  N2_19 
REMARK    5  A    between atoms: N2_19  and  C17_20 
ROOT
HETATM    1  N1  LIG X 999       0.773  -3.082  -1.497  1.00  0.00    -0.276 N 
HETATM    2  C13 LIG X 999       1.281  -1.896  -1.888  1.00  0.00     0.135 A 
HETATM    3  C14 LIG X 999       0.938  -1.746  -3.216  1.00  0.00     0.049 A 
HETATM    4  N4  LIG X 999       0.241  -2.839  -3.583  1.00  0.00    -0.286 N 
HETATM    5  N5  LIG X 999       0.138  -3.629  -2.526  1.00  0.00    -0.020 NA
HETATM    6  H17 LIG X 999      -0.169  -3.042  -4.520  1.00  0.00     0.184 HD
ENDROOT
BRANCH   1   7
HETATM    7  C2  LIG X 999       0.780  -3.612  -0.132  1.00  0.00     0.134 C 
HETATM    8  C1  LIG X 999       0.933  -5.138  -0.130  1.00  0.00     0.039 C 
BRANCH   7   9
HETATM    9  C3  LIG X 999      -0.472  -3.171   0.600  1.00  0.00    -0.033 A 
HETATM   10  C4  LIG X 999      -1.746  -3.577   0.159  1.00  0.00     0.010 A 
HETATM   11  C5  LIG X 999      -2.898  -3.140   0.815  1.00  0.00     0.013 A 
HETATM   12  C6  LIG X 999      -2.800  -2.283   1.920  1.00  0.00    -0.026 A 
HETATM   13  C7  LIG X 999      -3.953  -1.832   2.581  1.00  0.00     0.012 A 
HETATM   14  C11 LIG X 999      -1.525  -1.864   2.370  1.00  0.00    -0.025 A 
HETATM   15  C8  LIG X 999      -3.842  -0.974   3.679  1.00  0.00     0.001 A 
HETATM   16  C9  LIG X 999      -2.583  -0.559   4.124  1.00  0.00     0.001 A 
HETATM   17  C10 LIG X 999      -1.427  -1.001   3.474  1.00  0.00     0.012 A 
HETATM   18  C12 LIG X 999      -0.372  -2.311   1.708  1.00  0.00     0.021 A 
ENDBRANCH   7   9
ENDBRANCH   1   7
BRANCH   3  19
HETATM   19  C15 LIG X 999       1.265  -0.592  -4.111  1.00  0.00     0.165 C 
BRANCH  19  20
HETATM   20  C16 LIG X 999       0.741   0.684  -3.529  1.00  0.00     0.251 C 
HETATM   21  O1  LIG X 999      -0.477   0.979  -3.671  1.00  0.00    -0.271 OA
HETATM   22  N2  LIG X 999       1.628   1.533  -2.788  1.00  0.00    -0.187 NA
BRANCH  22  23
HETATM   23  C17 LIG X 999       1.282   2.753  -2.120  1.00  0.00     0.195 A 
HETATM   24  N3  LIG X 999       2.196   3.494  -1.458  1.00  0.00    -0.235 NA
HETATM   25  C18 LIG X 999       1.640   4.603  -0.903  1.00  0.00     0.127 A 
HETATM   26  C19 LIG X 999       0.274   4.751  -1.118  1.00  0.00     0.072 A 
HETATM   27  S1  LIG X 999      -0.253   3.445  -2.039  1.00  0.00    -0.061 SA
ENDBRANCH  22  23
ENDBRANCH  19  20
ENDBRANCH   3  19
TORSDOF 5
