REMARK  3 active torsions:
REMARK  status: ('A' for Active; 'I' for Inactive)
REMARK    1  A    between atoms: C1_2  and  C2_4 
REMARK       I    between atoms: N1_6  and  C4_7 
REMARK    2  A    between atoms: C4_7  and  C5_9 
REMARK    3  A    between atoms: C6_10  and  C7_11 
ROOT
HETATM    1  C5  LIG X 999      -0.292  -1.210   0.866  1.00  0.00     0.000 C 
HETATM    2  C6  LIG X 999       0.423  -0.385   0.356  1.00  0.00    -0.057 C 
ENDROOT
BRANCH   1   3
HETATM    3  C4  LIG X 999      -1.154  -2.189   1.472  1.00  0.00     0.300 C 
HETATM    4  N1  LIG X 999      -2.567  -1.962   1.571  1.00  0.00    -0.317 N 
HETATM    5  C3  LIG X 999      -3.500  -2.882   2.151  1.00  0.00     0.172 C 
HETATM    6  C17 LIG X 999      -3.254  -0.775   1.109  1.00  0.00     0.298 C 
HETATM    7  C2  LIG X 999      -4.843  -2.215   1.887  1.00  0.00     0.242 C 
HETATM    8  O4  LIG X 999      -4.618  -0.886   1.456  1.00  0.00    -0.354 OA
HETATM    9  O3  LIG X 999      -0.652  -3.255   1.919  1.00  0.00    -0.258 OA
BRANCH   7  10
HETATM   10  C1  LIG X 999      -5.706  -2.214   3.112  1.00  0.00     0.204 C 
HETATM   11  O1  LIG X 999      -6.592  -3.096   3.263  1.00  0.00    -0.646 OA
HETATM   12  O2  LIG X 999      -5.500  -1.270   4.111  1.00  0.00    -0.646 OA
ENDBRANCH   7  10
ENDBRANCH   1   3
BRANCH   2  13
HETATM   13  C7  LIG X 999       1.272   0.604  -0.253  1.00  0.00     0.019 A 
HETATM   14  C8  LIG X 999       2.648   0.370  -0.369  1.00  0.00     0.021 A 
HETATM   15  C9  LIG X 999       3.478   1.327  -0.961  1.00  0.00     0.013 A 
HETATM   16  C10 LIG X 999       2.937   2.529  -1.442  1.00  0.00    -0.026 A 
HETATM   17  C11 LIG X 999       3.761   3.498  -2.037  1.00  0.00     0.012 A 
HETATM   18  C15 LIG X 999       1.546   2.768  -1.325  1.00  0.00    -0.025 A 
HETATM   19  C12 LIG X 999       3.209   4.691  -2.512  1.00  0.00     0.001 A 
HETATM   20  C13 LIG X 999       1.837   4.927  -2.398  1.00  0.00     0.001 A 
HETATM   21  C14 LIG X 999       1.005   3.971  -1.807  1.00  0.00     0.012 A 
HETATM   22  C16 LIG X 999       0.721   1.801  -0.730  1.00  0.00     0.032 A 
ENDBRANCH   2  13
TORSDOF 3
