REMARK  1 active torsions:
REMARK  status: ('A' for Active; 'I' for Inactive)
REMARK    1  A    between atoms: C7_7  and  N1_8 
ROOT
HETATM    1  N1  LIG X 999       1.984  -2.003  -0.543  1.00  0.00    -0.110 NA
HETATM    2  N2  LIG X 999       2.364  -3.174  -0.545  1.00  0.00    -0.167 NA
HETATM    3  N3  LIG X 999       2.744  -4.344  -0.547  1.00  0.00     0.068 N 
ENDROOT
BRANCH   1   4
HETATM    4  C7  LIG X 999       0.735  -1.614   0.107  1.00  0.00     0.153 C 
HETATM    5  C6  LIG X 999      -0.228  -1.020  -0.931  1.00  0.00     0.031 C 
HETATM    6  C5  LIG X 999      -1.547  -0.608  -0.269  1.00  0.00     0.003 C 
HETATM    7  C4  LIG X 999      -1.305   0.409   0.851  1.00  0.00     0.009 C 
HETATM    8  C3  LIG X 999      -0.320  -0.134   1.908  1.00  0.00     0.018 C 
HETATM    9  C2  LIG X 999      -0.037   0.942   2.932  1.00  0.00    -0.021 C 
HETATM   10  C8  LIG X 999       1.008  -0.619   1.260  1.00  0.00     0.043 C 
HETATM   11  C1  LIG X 999       0.963   1.813   2.747  1.00  0.00    -0.004 C 
HETATM   12  C10 LIG X 999       1.871   1.678   1.591  1.00  0.00    -0.004 C 
HETATM   13  C9  LIG X 999       1.859   0.569   0.844  1.00  0.00    -0.019 C 
ENDBRANCH   1   4
TORSDOF 1
