REMARK  1 active torsions:
REMARK  status: ('A' for Active; 'I' for Inactive)
REMARK    1  A    between atoms: C12_13  and  N2_14 
ROOT
HETATM    1  C1  LIG X 999       3.370   1.571  -1.995  1.00  0.00     0.272 C 
HETATM    2  N1  LIG X 999       2.383   1.696  -0.898  1.00  0.00    -0.067 N 
HETATM    3  C2  LIG X 999       3.084   2.135   0.333  1.00  0.00     0.272 C 
HETATM    4  C3  LIG X 999       1.693   0.391  -0.656  1.00  0.00     0.276 C 
HETATM    5  C4  LIG X 999       0.249   0.704  -0.628  1.00  0.00    -0.021 A 
HETATM    6  C5  LIG X 999      -0.793  -0.162  -0.317  1.00  0.00     0.022 A 
HETATM    7  C6  LIG X 999      -2.113   0.319  -0.366  1.00  0.00    -0.023 A 
HETATM    8  C7  LIG X 999      -3.177  -0.542  -0.060  1.00  0.00     0.012 A 
HETATM    9  C8  LIG X 999      -4.493  -0.085  -0.123  1.00  0.00     0.001 A 
HETATM   10  C9  LIG X 999      -4.760   1.230  -0.497  1.00  0.00     0.001 A 
HETATM   11  C10 LIG X 999      -3.715   2.106  -0.805  1.00  0.00     0.014 A 
HETATM   12  C11 LIG X 999      -2.372   1.676  -0.736  1.00  0.00     0.001 A 
HETATM   13  C12 LIG X 999      -1.275   2.538  -1.039  1.00  0.00     0.045 A 
HETATM   14  C13 LIG X 999       0.023   2.001  -0.976  1.00  0.00     0.003 A 
HETATM   15  C14 LIG X 999       1.313   2.679  -1.258  1.00  0.00     0.278 C 
ENDROOT
BRANCH  13  16
HETATM   16  N2  LIG X 999      -1.450   3.919  -1.395  1.00  0.00    -0.398 N 
HETATM   17  H14 LIG X 999      -0.648   4.484  -1.751  1.00  0.00     0.156 HD
HETATM   18  H15 LIG X 999      -2.340   4.436  -1.244  1.00  0.00     0.156 HD
ENDBRANCH  13  16
TORSDOF 1
