REMARK  4 active torsions:
REMARK  status: ('A' for Active; 'I' for Inactive)
REMARK    1  A    between atoms: C4_4  and  N1_5 
REMARK    2  A    between atoms: C7_10  and  S1_11 
REMARK    3  A    between atoms: S1_11  and  C8_12 
REMARK    4  A    between atoms: C8_12  and  C9_13 
ROOT
HETATM    1  N1  LIG X 999      -2.301  -2.965   0.074  1.00  0.00    -0.071 NA
HETATM    2  N2  LIG X 999      -3.517  -2.886  -0.106  1.00  0.00    -0.162 NA
HETATM    3  N3  LIG X 999      -4.732  -2.821  -0.285  1.00  0.00     0.068 N 
ENDROOT
BRANCH   1   4
HETATM    4  C4  LIG X 999      -1.409  -1.834   0.053  1.00  0.00     0.108 A 
HETATM    5  C3  LIG X 999      -1.861  -0.501  -0.066  1.00  0.00     0.008 A 
HETATM    6  C2  LIG X 999      -0.982   0.539  -0.132  1.00  0.00    -0.021 A 
HETATM    7  C15 LIG X 999      -3.250   0.024  -0.163  1.00  0.00     0.278 C 
HETATM    8  C1  LIG X 999       0.392   0.342  -0.077  1.00  0.00     0.018 A 
HETATM    9  C18 LIG X 999      -1.685   1.829  -0.290  1.00  0.00     0.276 C 
HETATM   10  C6  LIG X 999       0.894  -0.964   0.060  1.00  0.00    -0.035 A 
HETATM   11  C5  LIG X 999      -0.011  -2.062   0.148  1.00  0.00    -0.018 A 
HETATM   12  C7  LIG X 999       2.392  -1.144   0.184  1.00  0.00     0.081 C 
HETATM   13  C14 LIG X 999       0.505  -3.487   0.212  1.00  0.00     0.042 C 
HETATM   14  C13 LIG X 999       1.959  -3.582   0.679  1.00  0.00     0.006 C 
HETATM   15  C12 LIG X 999       2.833  -2.590  -0.086  1.00  0.00     0.020 C 
HETATM   16  N4  LIG X 999      -3.136   1.516  -0.129  1.00  0.00    -0.067 N 
HETATM   17  C16 LIG X 999      -3.929   2.128  -1.220  1.00  0.00     0.272 C 
HETATM   18  C17 LIG X 999      -3.625   2.034   1.172  1.00  0.00     0.272 C 
BRANCH  12  19
HETATM   19  S1  LIG X 999       2.913  -0.621   1.867  1.00  0.00    -0.147 SA
BRANCH  19  20
HETATM   20  C8  LIG X 999       4.483   0.168   1.374  1.00  0.00     0.168 C 
BRANCH  20  21
HETATM   21  C9  LIG X 999       4.211   1.479   0.780  1.00  0.00    -0.097 C 
HETATM   22  C10 LIG X 999       3.975   2.553   0.288  1.00  0.00    -0.110 C 
HETATM   23  C11 LIG X 999       3.679   3.854  -0.312  1.00  0.00     0.112 C 
ENDBRANCH  20  21
ENDBRANCH  19  20
ENDBRANCH  12  19
ENDBRANCH   1   4
TORSDOF 4
