REMARK  7 active torsions:
REMARK  status: ('A' for Active; 'I' for Inactive)
REMARK    1  A    between atoms: S1_2  and  C1_3 
REMARK    2  A    between atoms: C1_3  and  N2_11 
REMARK    3  A    between atoms: N1_4  and  C2_6 
REMARK    4  A    between atoms: C2_6  and  C3_7 
REMARK    5  A    between atoms: C3_7  and  C4_8 
REMARK    6  A    between atoms: C4_8  and  S2_9 
REMARK    7  A    between atoms: N2_11  and  C5_14 
ROOT
HETATM    1  N2  LIG X 999      -1.252   1.127  -1.989  1.00  0.00     0.006 N 
HETATM    2  H10 LIG X 999      -1.580   0.591  -2.825  1.00  0.00     0.293 HD
HETATM    3  H11 LIG X 999      -1.015   2.087  -2.332  1.00  0.00     0.293 HD
ENDROOT
BRANCH   1   4
HETATM    4  C1  LIG X 999      -2.325   1.224  -1.018  1.00  0.00     0.240 C 
HETATM    5  N1  LIG X 999      -2.966   0.190  -0.558  1.00  0.00    -0.365 N 
HETATM    6  H2  LIG X 999      -3.721   0.351   0.126  1.00  0.00     0.161 HD
BRANCH   4   7
HETATM    7  S1  LIG X 999      -2.861   2.862  -0.490  1.00  0.00    -0.100 SA
HETATM    8  H1  LIG X 999      -2.047   2.832   0.657  1.00  0.00     0.110 HD
ENDBRANCH   4   7
BRANCH   5   9
HETATM    9  C2  LIG X 999      -2.670  -1.196  -0.876  1.00  0.00     0.122 C 
BRANCH   9  10
HETATM   10  C3  LIG X 999      -1.872  -1.841   0.266  1.00  0.00     0.029 C 
BRANCH  10  11
HETATM   11  C4  LIG X 999      -1.335  -3.228  -0.102  1.00  0.00     0.072 C 
BRANCH  11  12
HETATM   12  S2  LIG X 999      -2.676  -4.455  -0.234  1.00  0.00    -0.182 SA
HETATM   13  H9  LIG X 999      -3.020  -4.063  -1.541  1.00  0.00     0.101 HD
ENDBRANCH  11  12
ENDBRANCH  10  11
ENDBRANCH   9  10
ENDBRANCH   5   9
ENDBRANCH   1   4
BRANCH   1  14
HETATM   14  C5  LIG X 999      -0.052   0.565  -1.415  1.00  0.00     0.141 A 
HETATM   15  C6  LIG X 999       0.533  -0.585  -1.975  1.00  0.00     0.038 A 
HETATM   16  C7  LIG X 999       1.691  -1.139  -1.423  1.00  0.00     0.014 A 
HETATM   17  C8  LIG X 999       2.299  -0.538  -0.312  1.00  0.00    -0.026 A 
HETATM   18  C9  LIG X 999       3.458  -1.090   0.254  1.00  0.00     0.012 A 
HETATM   19  C13 LIG X 999       1.743   0.641   0.238  1.00  0.00    -0.024 A 
HETATM   20  C10 LIG X 999       4.061  -0.477   1.356  1.00  0.00     0.001 A 
HETATM   21  C11 LIG X 999       3.513   0.689   1.899  1.00  0.00     0.001 A 
HETATM   22  C12 LIG X 999       2.359   1.248   1.343  1.00  0.00     0.012 A 
HETATM   23  C14 LIG X 999       0.581   1.190  -0.324  1.00  0.00     0.049 A 
ENDBRANCH   1  14
TORSDOF 7
