REMARK  3 active torsions:
REMARK  status: ('A' for Active; 'I' for Inactive)
REMARK    1  A    between atoms: C6_6  and  C7_7 
REMARK    2  A    between atoms: C7_7  and  C8_9 
REMARK    3  A    between atoms: C8_9  and  N1_10 
ROOT
HETATM    1  N1  LIG X 999      -1.355  -2.000  -3.570  1.00  0.00    -0.108 NA
HETATM    2  N2  LIG X 999      -1.864  -3.089  -3.836  1.00  0.00    -0.167 NA
HETATM    3  N3  LIG X 999      -2.372  -4.177  -4.102  1.00  0.00     0.068 N 
ENDROOT
BRANCH   1   4
HETATM    4  C8  LIG X 999      -0.521  -1.827  -2.386  1.00  0.00     0.272 C 
BRANCH   4   5
HETATM    5  C7  LIG X 999      -1.087  -0.764  -1.479  1.00  0.00     0.181 C 
HETATM    6  O1  LIG X 999      -2.243  -0.313  -1.711  1.00  0.00    -0.290 OA
BRANCH   5   7
HETATM    7  C6  LIG X 999      -0.327  -0.255  -0.305  1.00  0.00     0.012 A 
HETATM    8  C5  LIG X 999       0.893  -0.841   0.091  1.00  0.00     0.027 A 
HETATM    9  C4  LIG X 999       1.597  -0.349   1.201  1.00  0.00    -0.025 A 
HETATM   10  C3  LIG X 999       2.812  -0.934   1.594  1.00  0.00     0.012 A 
HETATM   11  C11 LIG X 999       1.080   0.745   1.932  1.00  0.00    -0.026 A 
HETATM   12  C2  LIG X 999       3.505  -0.436   2.701  1.00  0.00     0.001 A 
HETATM   13  C1  LIG X 999       2.993   0.646   3.423  1.00  0.00     0.001 A 
HETATM   14  C12 LIG X 999       1.785   1.236   3.042  1.00  0.00     0.012 A 
HETATM   15  C10 LIG X 999      -0.133   1.327   1.542  1.00  0.00     0.013 A 
HETATM   16  C9  LIG X 999      -0.828   0.832   0.436  1.00  0.00     0.016 A 
ENDBRANCH   5   7
ENDBRANCH   4   5
ENDBRANCH   1   4
TORSDOF 3
