REMARK  4 active torsions:
REMARK  status: ('A' for Active; 'I' for Inactive)
REMARK    1  A    between atoms: O1_2  and  C1_3 
REMARK    2  A    between atoms: C1_3  and  C14_17 
REMARK    3  A    between atoms: N1_4  and  C2_5 
REMARK    4  A    between atoms: C2_5  and  C3_6 
ROOT
HETATM    1  C3  LIG X 999       0.274   1.236   1.250  1.00  0.00    -0.033 A 
HETATM    2  C4  LIG X 999      -0.822   1.611   0.455  1.00  0.00     0.010 A 
HETATM    3  C5  LIG X 999      -1.846   0.705   0.171  1.00  0.00     0.013 A 
HETATM    4  C6  LIG X 999      -1.789  -0.602   0.670  1.00  0.00    -0.026 A 
HETATM    5  C7  LIG X 999      -2.812  -1.521   0.388  1.00  0.00     0.012 A 
HETATM    6  C8  LIG X 999      -2.740  -2.825   0.887  1.00  0.00     0.001 A 
HETATM    7  C9  LIG X 999      -1.650  -3.220   1.667  1.00  0.00     0.001 A 
HETATM    8  C10 LIG X 999      -0.625  -2.314   1.954  1.00  0.00     0.012 A 
HETATM    9  C11 LIG X 999      -0.686  -1.001   1.461  1.00  0.00    -0.025 A 
HETATM   10  C12 LIG X 999       0.338  -0.084   1.743  1.00  0.00     0.021 A 
ENDROOT
BRANCH   1  11
HETATM   11  C2  LIG X 999       1.376   2.258   1.492  1.00  0.00     0.139 C 
HETATM   12  C13 LIG X 999       2.255   1.995   2.724  1.00  0.00     0.039 C 
BRANCH  11  13
HETATM   13  N1  LIG X 999       2.195   2.441   0.289  1.00  0.00    -0.261 NA
HETATM   14  C1  LIG X 999       2.901   1.524  -0.308  1.00  0.00     0.132 C 
BRANCH  14  15
HETATM   15  O1  LIG X 999       2.925   0.214   0.170  1.00  0.00    -0.348 OA
HETATM   16  H1  LIG X 999       3.454  -0.508  -0.303  1.00  0.00     0.219 HD
ENDBRANCH  14  15
BRANCH  14  17
HETATM   17  C14 LIG X 999       3.662   1.877  -1.550  1.00  0.00     0.081 C 
HETATM   18  C15 LIG X 999       2.828   1.575  -2.790  1.00  0.00     0.013 C 
ENDBRANCH  14  17
ENDBRANCH  11  13
ENDBRANCH   1  11
TORSDOF 4
