REMARK  6 active torsions:
REMARK  status: ('A' for Active; 'I' for Inactive)
REMARK    1  A    between atoms: N1_1  and  C1_2 
REMARK    2  A    between atoms: C1_2  and  C2_3 
REMARK    3  A    between atoms: C2_3  and  O1_4 
REMARK    4  A    between atoms: C2_3  and  C3_5 
REMARK    5  A    between atoms: C3_5  and  O2_6 
REMARK    6  A    between atoms: O2_6  and  C4_7 
ROOT
HETATM    1  C4  LIG X 999      -1.015  -0.502  -0.520  1.00  0.00     0.080 A 
HETATM    2  C5  LIG X 999      -2.207  -0.761  -1.226  1.00  0.00     0.037 A 
HETATM    3  C6  LIG X 999      -3.394  -1.029  -0.543  1.00  0.00     0.004 A 
HETATM    4  C7  LIG X 999      -3.417  -1.044   0.851  1.00  0.00     0.012 A 
HETATM    5  C8  LIG X 999      -2.245  -0.789   1.578  1.00  0.00    -0.023 A 
HETATM    6  C9  LIG X 999      -2.265  -0.803   2.981  1.00  0.00     0.012 A 
HETATM    7  C10 LIG X 999      -1.097  -0.549   3.703  1.00  0.00     0.001 A 
HETATM    8  C11 LIG X 999       0.098  -0.279   3.033  1.00  0.00     0.001 A 
HETATM    9  C12 LIG X 999       0.133  -0.262   1.636  1.00  0.00     0.015 A 
HETATM   10  C13 LIG X 999      -1.034  -0.516   0.891  1.00  0.00     0.007 A 
ENDROOT
BRANCH   1  11
HETATM   11  O2  LIG X 999       0.192  -0.230  -1.186  1.00  0.00    -0.348 OA
BRANCH  11  12
HETATM   12  C3  LIG X 999       0.346  -0.173  -2.603  1.00  0.00     0.209 C 
BRANCH  12  13
HETATM   13  C2  LIG X 999       1.802   0.153  -2.969  1.00  0.00     0.167 C 
BRANCH  13  14
HETATM   14  C1  LIG X 999       2.242   1.518  -2.397  1.00  0.00     0.263 C 
BRANCH  14  15
HETATM   15  N1  LIG X 999       3.587   1.875  -2.848  1.00  0.00    -0.077 N 
HETATM   16  H1  LIG X 999       4.284   1.179  -2.498  1.00  0.00     0.274 HD
HETATM   17  H2  LIG X 999       3.835   2.818  -2.469  1.00  0.00     0.274 HD
HETATM   18  H3  LIG X 999       3.619   1.913  -3.893  1.00  0.00     0.274 HD
ENDBRANCH  14  15
ENDBRANCH  13  14
BRANCH  13  19
HETATM   19  O1  LIG X 999       2.661  -0.878  -2.549  1.00  0.00    -0.392 OA
HETATM   20  H7  LIG X 999       2.654  -0.893  -1.556  1.00  0.00     0.210 HD
ENDBRANCH  13  19
ENDBRANCH  12  13
ENDBRANCH  11  12
ENDBRANCH   1  11
TORSDOF 6
