REMARK  1 active torsions:
REMARK  status: ('A' for Active; 'I' for Inactive)
REMARK    1  A    between atoms: C9_10  and  N2_11 
ROOT
HETATM    1  C1  LIG X 999       2.279  -0.284  -2.273  1.00  0.00     0.272 C 
HETATM    2  N1  LIG X 999       0.883  -0.633  -1.917  1.00  0.00    -0.067 N 
HETATM    3  C2  LIG X 999       0.358  -1.594  -2.914  1.00  0.00     0.272 C 
HETATM    4  C3  LIG X 999       0.040   0.603  -1.878  1.00  0.00     0.276 C 
HETATM    5  C4  LIG X 999      -0.259   0.838  -0.449  1.00  0.00    -0.024 A 
HETATM    6  C5  LIG X 999      -0.929   1.922   0.119  1.00  0.00     0.021 A 
HETATM    7  C6  LIG X 999      -1.128   1.936   1.514  1.00  0.00    -0.025 A 
HETATM    8  C7  LIG X 999      -1.792   3.006   2.130  1.00  0.00     0.014 A 
HETATM    9  C8  LIG X 999      -1.987   3.009   3.513  1.00  0.00     0.030 A 
HETATM   10  C9  LIG X 999      -1.523   1.945   4.300  1.00  0.00     0.026 A 
HETATM   11  C10 LIG X 999      -0.858   0.869   3.696  1.00  0.00     0.041 A 
HETATM   12  C11 LIG X 999      -0.654   0.852   2.308  1.00  0.00    -0.023 A 
HETATM   13  C12 LIG X 999       0.011  -0.227   1.693  1.00  0.00     0.021 A 
HETATM   14  C13 LIG X 999       0.195  -0.199   0.310  1.00  0.00    -0.024 A 
HETATM   15  C14 LIG X 999       0.838  -1.222  -0.540  1.00  0.00     0.276 C 
ENDROOT
BRANCH  10  16
HETATM   16  N2  LIG X 999      -1.728   1.958   5.716  1.00  0.00    -0.399 N 
HETATM   17  H12 LIG X 999      -2.222   2.754   6.177  1.00  0.00     0.156 HD
HETATM   18  H13 LIG X 999      -1.387   1.172   6.313  1.00  0.00     0.156 HD
ENDBRANCH  10  16
TORSDOF 1
