REMARK  2 active torsions:
REMARK  status: ('A' for Active; 'I' for Inactive)
REMARK    1  A    between atoms: C9_10  and  N2_11 
REMARK       I    between atoms: N2_11  and  C10_12 
REMARK    2  A    between atoms: C10_12  and  C11_14 
ROOT
HETATM    1  C11 LIG X 999       4.504  -4.229  -2.688  1.00  0.00     0.282 C 
HETATM    2 CL1  LIG X 999       4.742  -3.482  -4.288  1.00  0.00    -0.099 Cl
HETATM    3  C12 LIG X 999       5.808  -4.518  -2.084  1.00  0.00     0.089 C 
HETATM    4  N3  LIG X 999       6.838  -4.746  -1.607  1.00  0.00    -0.195 NA
ENDROOT
BRANCH   1   5
HETATM    5  C10 LIG X 999       3.718  -3.315  -1.800  1.00  0.00     0.276 C 
HETATM    6  N2  LIG X 999       2.598  -3.835  -1.072  1.00  0.00    -0.212 NA
HETATM    7  O1  LIG X 999       4.089  -2.120  -1.642  1.00  0.00    -0.268 OA
BRANCH   6   8
HETATM    8  C9  LIG X 999       1.601  -3.069  -0.380  1.00  0.00     0.061 A 
HETATM    9  C8  LIG X 999       0.896  -3.679   0.665  1.00  0.00     0.032 A 
HETATM   10  C7  LIG X 999      -0.097  -2.982   1.359  1.00  0.00     0.014 A 
HETATM   11  C6  LIG X 999      -0.413  -1.665   1.003  1.00  0.00    -0.025 A 
HETATM   12  C5  LIG X 999      -1.412  -0.954   1.696  1.00  0.00     0.021 A 
HETATM   13  C14 LIG X 999       0.279  -1.044  -0.075  1.00  0.00    -0.023 A 
HETATM   14  C4  LIG X 999      -1.703   0.350   1.296  1.00  0.00    -0.024 A 
HETATM   15  C3  LIG X 999      -2.688   1.282   1.887  1.00  0.00     0.276 C 
HETATM   16  C16 LIG X 999      -1.044   0.944   0.263  1.00  0.00    -0.024 A 
HETATM   17  N1  LIG X 999      -2.688   2.487   0.998  1.00  0.00    -0.067 N 
HETATM   18  C1  LIG X 999      -3.952   2.548   0.225  1.00  0.00     0.272 C 
HETATM   19  C2  LIG X 999      -2.551   3.726   1.796  1.00  0.00     0.272 C 
HETATM   20  C17 LIG X 999      -1.526   2.328   0.066  1.00  0.00     0.276 C 
HETATM   21  C15 LIG X 999      -0.043   0.277  -0.445  1.00  0.00     0.021 A 
HETATM   22  C13 LIG X 999       1.275  -1.755  -0.762  1.00  0.00     0.044 A 
ENDBRANCH   6   8
ENDBRANCH   1   5
TORSDOF 2
