REMARK  7 active torsions:
REMARK  status: ('A' for Active; 'I' for Inactive)
REMARK    1  A    between atoms: C3_3  and  N1_4 
REMARK       I    between atoms: N1_4  and  C4_6 
REMARK    2  A    between atoms: C4_6  and  C5_8 
REMARK    3  A    between atoms: C5_8  and  N2_9 
REMARK    4  A    between atoms: C8_14  and  C9_15 
REMARK    5  A    between atoms: C9_15  and  O2_16 
REMARK    6  A    between atoms: O2_16  and  C10_17 
REMARK    7  A    between atoms: C19_26  and  N5_27 
ROOT
HETATM    1  N5  LIG X 999      -0.364   1.410  -1.625  1.00  0.00    -0.069 NA
HETATM    2  N6  LIG X 999      -0.412   1.860  -0.478  1.00  0.00    -0.162 NA
HETATM    3  N7  LIG X 999      -0.466   2.310   0.667  1.00  0.00     0.068 N 
ENDROOT
BRANCH   1   4
HETATM    4  C19 LIG X 999       0.849   0.939  -2.244  1.00  0.00     0.137 A 
HETATM    5  C10 LIG X 999       2.029   0.708  -1.492  1.00  0.00     0.101 A 
HETATM    6  C11 LIG X 999       3.208   0.320  -2.154  1.00  0.00     0.040 A 
HETATM    7  C12 LIG X 999       3.217   0.112  -3.531  1.00  0.00     0.015 A 
HETATM    8  C13 LIG X 999       2.049   0.285  -4.279  1.00  0.00    -0.023 A 
HETATM    9  C14 LIG X 999       2.061   0.055  -5.664  1.00  0.00     0.012 A 
HETATM   10  C18 LIG X 999       0.855   0.700  -3.638  1.00  0.00     0.009 A 
HETATM   11  C15 LIG X 999       0.899   0.233  -6.415  1.00  0.00     0.001 A 
HETATM   12  C16 LIG X 999      -0.281   0.642  -5.794  1.00  0.00     0.001 A 
HETATM   13  C17 LIG X 999      -0.308   0.875  -4.416  1.00  0.00     0.015 A 
BRANCH   5  14
HETATM   14  O2  LIG X 999       1.990   0.841  -0.096  1.00  0.00    -0.343 OA
BRANCH  14  15
HETATM   15  C9  LIG X 999       3.070   0.569   0.792  1.00  0.00     0.236 C 
BRANCH  15  16
HETATM   16  C8  LIG X 999       2.533   0.520   2.190  1.00  0.00     0.077 A 
HETATM   17  N2  LIG X 999       1.985  -0.557   2.790  1.00  0.00    -0.265 N 
HETATM   18  N3  LIG X 999       1.488  -0.169   3.956  1.00  0.00     0.005 NA
HETATM   19  N4  LIG X 999       1.678   1.131   4.134  1.00  0.00    -0.163 NA
HETATM   20  C6  LIG X 999       2.321   1.586   3.039  1.00  0.00     0.074 A 
HETATM   21  C7  LIG X 999       2.687   3.015   2.807  1.00  0.00     0.074 C 
BRANCH  17  22
HETATM   22  C5  LIG X 999       1.907  -1.929   2.288  1.00  0.00     0.249 C 
BRANCH  22  23
HETATM   23  C4  LIG X 999       1.039  -1.994   1.067  1.00  0.00     0.241 C 
HETATM   24  N1  LIG X 999      -0.371  -1.735   1.175  1.00  0.00    -0.326 N 
HETATM   25  H3  LIG X 999      -0.735  -1.492   2.124  1.00  0.00     0.169 HD
HETATM   26  O1  LIG X 999       1.572  -2.225  -0.051  1.00  0.00    -0.271 OA
BRANCH  24  27
HETATM   27  C3  LIG X 999      -1.262  -1.564   0.056  1.00  0.00     0.037 A 
HETATM   28  C2  LIG X 999      -2.333  -0.661   0.171  1.00  0.00     0.032 A 
HETATM   29  C1  LIG X 999      -3.195  -0.438  -0.906  1.00  0.00     0.042 A 
HETATM   30  C22 LIG X 999      -3.006  -1.131  -2.103  1.00  0.00     0.102 A 
HETATM   31  C21 LIG X 999      -1.984  -2.083  -2.208  1.00  0.00     0.104 A 
HETATM   32  O3  LIG X 999      -3.834  -0.896  -3.204  1.00  0.00    -0.346 OA
HETATM   33  C20 LIG X 999      -1.112  -2.299  -1.137  1.00  0.00     0.069 A 
HETATM   34  O4  LIG X 999      -1.856  -2.814  -3.392  1.00  0.00    -0.346 OA
HETATM   35  C24 LIG X 999      -2.893  -2.811  -4.375  1.00  0.00     0.202 C 
HETATM   36  C23 LIG X 999      -3.506  -1.409  -4.498  1.00  0.00     0.202 C 
ENDBRANCH  24  27
ENDBRANCH  22  23
ENDBRANCH  17  22
ENDBRANCH  15  16
ENDBRANCH  14  15
ENDBRANCH   5  14
ENDBRANCH   1   4
TORSDOF 7
