REMARK  4 active torsions:
REMARK  status: ('A' for Active; 'I' for Inactive)
REMARK    1  A    between atoms: C3_3  and  C4_4 
REMARK    2  A    between atoms: C5_7  and  N3_8 
REMARK    3  A    between atoms: C8_14  and  C9_15 
REMARK    4  A    between atoms: C10_16  and  C11_17 
ROOT
HETATM    1  N3  LIG X 999      -0.248  -6.028   0.438  1.00  0.00    -0.023 NA
HETATM    2  N4  LIG X 999      -0.711  -5.980  -0.701  1.00  0.00    -0.158 NA
HETATM    3  N5  LIG X 999      -1.173  -5.932  -1.840  1.00  0.00     0.068 N 
ENDROOT
BRANCH   1   4
HETATM    4  C5  LIG X 999       0.224  -4.848   1.084  1.00  0.00     0.326 A 
HETATM    5  N2  LIG X 999       0.737  -4.833   2.326  1.00  0.00    -0.099 NA
HETATM    6  N1  LIG X 999       1.058  -3.572   2.569  1.00  0.00    -0.124 NA
HETATM    7  C4  LIG X 999       0.723  -2.869   1.466  1.00  0.00     0.184 A 
HETATM    8  O1  LIG X 999       0.212  -3.653   0.545  1.00  0.00    -0.255 OA
BRANCH   7   9
HETATM    9  C3  LIG X 999       0.944  -1.377   1.311  1.00  0.00     0.054 C 
HETATM   10  C2  LIG X 999       0.395  -0.696   2.556  1.00  0.00    -0.008 C 
HETATM   11  C1  LIG X 999      -0.907  -0.395   2.647  1.00  0.00    -0.003 C 
HETATM   12  C15 LIG X 999      -1.809  -0.603   1.497  1.00  0.00    -0.004 C 
HETATM   13  C14 LIG X 999      -1.310  -0.867   0.283  1.00  0.00    -0.021 C 
HETATM   14  C13 LIG X 999       0.185  -0.839   0.047  1.00  0.00     0.030 C 
HETATM   15  C12 LIG X 999       0.598   0.607  -0.312  1.00  0.00     0.027 C 
HETATM   16  C8  LIG X 999       2.119   0.738  -0.463  1.00  0.00     0.066 C 
HETATM   17  C7  LIG X 999       2.819   0.309   0.833  1.00  0.00     0.019 C 
HETATM   18  C6  LIG X 999       2.470  -1.142   1.177  1.00  0.00     0.024 C 
BRANCH  16  19
HETATM   19  C9  LIG X 999       2.474   2.127  -0.789  1.00  0.00    -0.090 C 
HETATM   20  C10 LIG X 999       2.764   3.267  -1.056  1.00  0.00     0.005 C 
BRANCH  20  21
HETATM   21  C11 LIG X 999       3.110   4.623  -1.373  1.00  0.00     0.258 C 
HETATM   22  O2  LIG X 999       2.206   5.490  -1.496  1.00  0.00    -0.637 OA
HETATM   23  O3  LIG X 999       4.441   4.978  -1.543  1.00  0.00    -0.637 OA
ENDBRANCH  20  21
ENDBRANCH  16  19
ENDBRANCH   7   9
ENDBRANCH   1   4
TORSDOF 4
