REMARK  1 active torsions:
REMARK  status: ('A' for Active; 'I' for Inactive)
REMARK    1  A    between atoms: C7_7  and  N1_8 
ROOT
HETATM    1  N1  LIG X 999      -0.649   0.429   1.573  1.00  0.00    -0.110 NA
HETATM    2  N2  LIG X 999      -0.415   0.771   2.733  1.00  0.00    -0.167 NA
HETATM    3  N3  LIG X 999      -0.180   1.114   3.890  1.00  0.00     0.068 N 
ENDROOT
BRANCH   1   4
HETATM    4  C7  LIG X 999       0.402  -0.118   0.717  1.00  0.00     0.153 C 
HETATM    5  C6  LIG X 999       0.034  -1.552   0.301  1.00  0.00     0.031 C 
HETATM    6  C5  LIG X 999      -1.193  -1.577  -0.617  1.00  0.00     0.003 C 
HETATM    7  C4  LIG X 999      -0.957  -0.725  -1.867  1.00  0.00     0.009 C 
HETATM    8  C3  LIG X 999      -0.603   0.730  -1.498  1.00  0.00     0.018 C 
HETATM    9  C2  LIG X 999      -0.288   1.504  -2.759  1.00  0.00    -0.021 C 
HETATM   10  C8  LIG X 999       0.599   0.800  -0.513  1.00  0.00     0.043 C 
HETATM   11  C1  LIG X 999       0.961   1.546  -3.240  1.00  0.00    -0.004 C 
HETATM   12  C10 LIG X 999       2.074   0.927  -2.495  1.00  0.00    -0.004 C 
HETATM   13  C9  LIG X 999       1.901   0.515  -1.234  1.00  0.00    -0.019 C 
ENDBRANCH   1   4
TORSDOF 1
