REMARK  8 active torsions:
REMARK  status: ('A' for Active; 'I' for Inactive)
REMARK    1  A    between atoms: O1_2  and  C2_3 
REMARK    2  A    between atoms: C7_8  and  C8_9 
REMARK    3  A    between atoms: N3_14  and  C11_15 
REMARK    4  A    between atoms: C16_20  and  C17_21 
REMARK    5  A    between atoms: C17_21  and  O2_22 
REMARK    6  A    between atoms: O2_22  and  C18_23 
REMARK    7  A    between atoms: C18_23  and  C19_24 
REMARK    8  A    between atoms: C18_23  and  C20_26 
ROOT
HETATM    1  C8  LIG X 999       1.343   0.045  -1.655  1.00  0.00     0.091 A 
HETATM    2  C9  LIG X 999       2.496  -0.460  -2.228  1.00  0.00     0.077 A 
HETATM    3  C10 LIG X 999       3.091  -1.818  -2.050  1.00  0.00     0.074 C 
HETATM    4  N1  LIG X 999       3.025   0.497  -3.017  1.00  0.00    -0.162 NA
HETATM    5  N2  LIG X 999       2.235   1.557  -2.922  1.00  0.00     0.010 NA
HETATM    6  N3  LIG X 999       1.226   1.313  -2.100  1.00  0.00    -0.235 N 
ENDROOT
BRANCH   6   7
HETATM    7  C11 LIG X 999       0.154   2.236  -1.856  1.00  0.00     0.063 A 
HETATM    8  C12 LIG X 999      -1.157   1.874  -2.203  1.00  0.00     0.032 A 
HETATM    9  C13 LIG X 999      -2.218   2.750  -1.972  1.00  0.00     0.002 A 
HETATM   10  C14 LIG X 999      -1.980   3.995  -1.389  1.00  0.00     0.001 A 
HETATM   11  C15 LIG X 999      -0.682   4.366  -1.030  1.00  0.00     0.012 A 
HETATM   12  C16 LIG X 999       0.398   3.494  -1.257  1.00  0.00    -0.006 A 
BRANCH  12  13
HETATM   13  C17 LIG X 999       1.780   3.883  -0.796  1.00  0.00     0.209 C 
BRANCH  13  14
HETATM   14  O2  LIG X 999       2.223   2.945   0.163  1.00  0.00    -0.378 OA
BRANCH  14  15
HETATM   15  C18 LIG X 999       3.524   3.259   0.630  1.00  0.00     0.164 C 
BRANCH  15  16
HETATM   16  C19 LIG X 999       4.530   2.276   0.022  1.00  0.00     0.255 C 
HETATM   17  F1  LIG X 999       4.652   2.501  -1.336  1.00  0.00    -0.253 F 
ENDBRANCH  15  16
BRANCH  15  18
HETATM   18  C20 LIG X 999       3.533   3.138   2.157  1.00  0.00     0.148 C 
HETATM   19 CL1  LIG X 999       2.415   4.322   2.885  1.00  0.00    -0.128 Cl
ENDBRANCH  15  18
ENDBRANCH  14  15
ENDBRANCH  13  14
ENDBRANCH  12  13
ENDBRANCH   6   7
BRANCH   1  20
HETATM   20  C7  LIG X 999       0.429  -0.631  -0.708  1.00  0.00    -0.005 A 
HETATM   21  C6  LIG X 999      -0.024  -1.934  -0.968  1.00  0.00     0.026 A 
HETATM   22  C5  LIG X 999      -0.897  -2.574  -0.075  1.00  0.00    -0.025 A 
HETATM   23  C4  LIG X 999      -1.354  -3.874  -0.332  1.00  0.00     0.015 A 
HETATM   24  C23 LIG X 999      -1.323  -1.902   1.094  1.00  0.00    -0.023 A 
HETATM   25  C3  LIG X 999      -2.224  -4.503   0.562  1.00  0.00     0.037 A 
HETATM   26  C2  LIG X 999      -2.652  -3.849   1.723  1.00  0.00     0.069 A 
HETATM   27  C24 LIG X 999      -2.197  -2.542   1.987  1.00  0.00     0.049 A 
HETATM   28  C22 LIG X 999      -0.868  -0.601   1.349  1.00  0.00     0.013 A 
HETATM   29  C21 LIG X 999       0.001   0.029   0.455  1.00  0.00     0.014 A 
BRANCH  26  30
HETATM   30  O1  LIG X 999      -3.526  -4.529   2.585  1.00  0.00    -0.356 OA
HETATM   31  C1  LIG X 999      -4.042  -3.990   3.798  1.00  0.00     0.210 C 
ENDBRANCH  26  30
ENDBRANCH   1  20
TORSDOF 8
