REMARK  14 active torsions:
REMARK  status: ('A' for Active; 'I' for Inactive)
REMARK    1  A    between atoms: C3_3  and  O1_4 
REMARK    2  A    between atoms: O1_4  and  C4_5 
REMARK    3  A    between atoms: C4_5  and  O2_6 
REMARK    4  A    between atoms: C4_5  and  O3_8 
REMARK    5  A    between atoms: C4_5  and  C5_10 
REMARK    6  A    between atoms: C5_10  and  S1_11 
REMARK    7  A    between atoms: C5_10  and  C13_23 
REMARK    8  A    between atoms: S1_11  and  C6_12 
REMARK    9  A    between atoms: C6_12  and  C7_13 
REMARK   10  A    between atoms: C8_14  and  N1_15 
REMARK   11  A    between atoms: C8_14  and  O4_21 
REMARK   12  A    between atoms: N1_15  and  C9_16 
REMARK   13  A    between atoms: C9_16  and  C10_17 
REMARK   14  A    between atoms: C10_17  and  C12_19 
ROOT
HETATM    1  C1  LIG X 999      -6.716   1.207  -1.607  1.00  0.00     0.014 C 
HETATM    2  C2  LIG X 999      -6.007   0.406  -1.051  1.00  0.00    -0.091 C 
HETATM    3  C3  LIG X 999      -5.144  -0.564  -0.377  1.00  0.00     0.266 C 
ENDROOT
BRANCH   3   4
HETATM    4  O1  LIG X 999      -3.851  -0.006  -0.257  1.00  0.00    -0.320 OA
BRANCH   4   5
HETATM    5  C4  LIG X 999      -2.885  -0.965   0.154  1.00  0.00     0.296 C 
BRANCH   5   6
HETATM    6  O2  LIG X 999      -2.726  -1.974  -0.824  1.00  0.00    -0.342 OA
HETATM    7  H4  LIG X 999      -2.709  -1.531  -1.713  1.00  0.00     0.215 HD
ENDBRANCH   5   6
BRANCH   5   8
HETATM    8  O3  LIG X 999      -3.263  -1.549   1.383  1.00  0.00    -0.342 OA
HETATM    9  H5  LIG X 999      -3.818  -2.349   1.191  1.00  0.00     0.215 HD
ENDBRANCH   5   8
BRANCH   5  10
HETATM   10  C5  LIG X 999      -1.518  -0.265   0.372  1.00  0.00     0.174 C 
BRANCH  10  11
HETATM   11  S1  LIG X 999      -1.540   0.901   1.801  1.00  0.00    -0.147 SA
BRANCH  11  12
HETATM   12  C6  LIG X 999       0.272   1.065   1.992  1.00  0.00     0.106 C 
BRANCH  12  13
HETATM   13  C7  LIG X 999       0.855  -0.146   2.661  1.00  0.00     0.041 C 
HETATM   14  C8  LIG X 999       2.167  -0.297   2.887  1.00  0.00     0.153 C 
BRANCH  14  15
HETATM   15  N1  LIG X 999       2.618  -1.498   3.515  1.00  0.00    -0.267 NA
BRANCH  15  16
HETATM   16  C9  LIG X 999       4.026  -1.765   3.783  1.00  0.00     0.157 C 
BRANCH  16  17
HETATM   17  C10 LIG X 999       4.222  -3.142   4.448  1.00  0.00     0.015 C 
HETATM   18  C11 LIG X 999       3.446  -3.259   5.768  1.00  0.00     0.012 C 
BRANCH  17  19
HETATM   19  C12 LIG X 999       3.927  -4.317   3.492  1.00  0.00     0.120 C 
HETATM   20 CL1  LIG X 999       2.198  -4.485   3.068  1.00  0.00    -0.130 Cl
ENDBRANCH  17  19
ENDBRANCH  16  17
ENDBRANCH  15  16
ENDBRANCH  14  15
BRANCH  14  21
HETATM   21  O4  LIG X 999       3.101   0.679   2.526  1.00  0.00    -0.345 OA
HETATM   22  H18 LIG X 999       2.849   1.556   2.088  1.00  0.00     0.219 HD
ENDBRANCH  14  21
ENDBRANCH  12  13
ENDBRANCH  11  12
ENDBRANCH  10  11
BRANCH  10  23
HETATM   23  C13 LIG X 999      -0.933   0.347  -0.909  1.00  0.00    -0.025 A 
HETATM   24  C14 LIG X 999       0.075  -0.404  -1.551  1.00  0.00     0.009 A 
HETATM   25  C15 LIG X 999       0.673   0.036  -2.727  1.00  0.00     0.002 A 
HETATM   26  C16 LIG X 999       0.281   1.235  -3.306  1.00  0.00     0.012 A 
HETATM   27  C17 LIG X 999      -0.721   2.012  -2.714  1.00  0.00    -0.025 A 
HETATM   28  C18 LIG X 999      -1.103   3.217  -3.325  1.00  0.00     0.012 A 
HETATM   29  C22 LIG X 999      -1.347   1.583  -1.506  1.00  0.00    -0.018 A 
HETATM   30  C19 LIG X 999      -2.099   4.009  -2.760  1.00  0.00     0.001 A 
HETATM   31  C20 LIG X 999      -2.721   3.608  -1.582  1.00  0.00     0.001 A 
HETATM   32  C21 LIG X 999      -2.352   2.414  -0.958  1.00  0.00     0.013 A 
ENDBRANCH  10  23
ENDBRANCH   5  10
ENDBRANCH   4   5
ENDBRANCH   3   4
TORSDOF 14
