REMARK  3 active torsions:
REMARK  status: ('A' for Active; 'I' for Inactive)
REMARK    1  A    between atoms: C2_2  and  O1_3 
REMARK    2  A    between atoms: O1_3  and  C3_4 
REMARK       I    between atoms: C3_4  and  N1_6 
REMARK    3  A    between atoms: N1_6  and  C4_7 
ROOT
HETATM    1  C4  LIG X 999       0.665  -3.777  -0.784  1.00  0.00     0.063 A 
HETATM    2  C5  LIG X 999       0.785  -4.586   0.352  1.00  0.00     0.032 A 
HETATM    3  C6  LIG X 999       0.837  -4.021   1.629  1.00  0.00     0.014 A 
HETATM    4  C7  LIG X 999       0.787  -2.630   1.786  1.00  0.00    -0.025 A 
HETATM    5  C8  LIG X 999       0.842  -2.050   3.069  1.00  0.00     0.021 A 
HETATM    6  C9  LIG X 999       0.795  -0.659   3.175  1.00  0.00    -0.024 A 
HETATM    7  C10 LIG X 999       0.708   0.138   2.075  1.00  0.00    -0.024 A 
HETATM    8  C11 LIG X 999       0.659  -0.396   0.787  1.00  0.00     0.021 A 
HETATM    9  C12 LIG X 999       0.692  -1.797   0.635  1.00  0.00    -0.023 A 
HETATM   10  C13 LIG X 999       0.641  -2.378  -0.640  1.00  0.00     0.044 A 
HETATM   11  C14 LIG X 999       0.708   1.564   2.466  1.00  0.00     0.276 C 
HETATM   12  N2  LIG X 999       0.641   1.572   3.962  1.00  0.00    -0.067 N 
HETATM   13  C15 LIG X 999      -0.694   2.040   4.407  1.00  0.00     0.272 C 
HETATM   14  C16 LIG X 999       1.677   2.466   4.527  1.00  0.00     0.272 C 
HETATM   15  C17 LIG X 999       0.862   0.159   4.405  1.00  0.00     0.276 C 
ENDROOT
BRANCH   1  16
HETATM   16  N1  LIG X 999       0.633  -4.405  -2.074  1.00  0.00    -0.188 NA
HETATM   17  C3  LIG X 999       0.033  -3.861  -3.253  1.00  0.00     0.387 C 
HETATM   18  O2  LIG X 999       0.302  -4.378  -4.371  1.00  0.00    -0.236 OA
BRANCH  17  19
HETATM   19  O1  LIG X 999      -0.885  -2.809  -3.161  1.00  0.00    -0.303 OA
BRANCH  19  20
HETATM   20  C2  LIG X 999      -1.468  -2.170  -4.295  1.00  0.00     0.176 C 
HETATM   21  C1  LIG X 999      -0.462  -1.238  -4.960  1.00  0.00     0.034 C 
ENDBRANCH  19  20
ENDBRANCH  17  19
ENDBRANCH   1  16
TORSDOF 3
