REMARK  4 active torsions:
REMARK  status: ('A' for Active; 'I' for Inactive)
REMARK    1  A    between atoms: C1_2  and  C2_4 
REMARK    2  A    between atoms: C8_10  and  C9_11 
REMARK       I    between atoms: C9_11  and  N1_13 
REMARK    3  A    between atoms: N1_13  and  S1_14 
REMARK    4  A    between atoms: S1_14  and  C10_17 
ROOT
HETATM    1  C9  LIG X 999      -1.053   1.682   1.289  1.00  0.00     0.259 C 
HETATM    2  O3  LIG X 999       0.071   2.201   1.052  1.00  0.00    -0.270 OA
HETATM    3  N1  LIG X 999      -2.057   1.655   0.273  1.00  0.00    -0.122 NA
ENDROOT
BRANCH   3   4
HETATM    4  S1  LIG X 999      -1.714   2.075  -1.370  1.00  0.00     0.286 S 
HETATM    5  O4  LIG X 999      -2.982   2.014  -2.174  1.00  0.00    -0.198 OA
HETATM    6  O5  LIG X 999      -1.173   3.476  -1.436  1.00  0.00    -0.198 OA
BRANCH   4   7
HETATM    7  C10 LIG X 999      -0.550   0.925  -2.020  1.00  0.00     0.082 A 
HETATM    8  C11 LIG X 999      -0.989  -0.319  -2.492  1.00  0.00     0.026 A 
HETATM    9  C12 LIG X 999      -0.069  -1.262  -2.957  1.00  0.00     0.014 A 
HETATM   10  C13 LIG X 999       1.303  -0.973  -2.949  1.00  0.00    -0.026 A 
HETATM   11  C14 LIG X 999       2.236  -1.916  -3.407  1.00  0.00     0.012 A 
HETATM   12  C18 LIG X 999       1.751   0.281  -2.469  1.00  0.00    -0.025 A 
HETATM   13  C15 LIG X 999       3.602  -1.618  -3.388  1.00  0.00     0.001 A 
HETATM   14  C16 LIG X 999       4.045  -0.380  -2.913  1.00  0.00     0.001 A 
HETATM   15  C17 LIG X 999       3.126   0.568  -2.454  1.00  0.00     0.012 A 
HETATM   16  C19 LIG X 999       0.819   1.223  -2.007  1.00  0.00     0.037 A 
ENDBRANCH   4   7
ENDBRANCH   3   4
BRANCH   1  17
HETATM   17  C8  LIG X 999      -1.337   1.019   2.618  1.00  0.00     0.099 C 
HETATM   18  C2  LIG X 999      -1.097  -0.522   2.642  1.00  0.00     0.104 C 
HETATM   19  C3  LIG X 999      -0.059  -0.681   3.783  1.00  0.00     0.001 C 
HETATM   20  C4  LIG X 999      -0.772  -0.434   5.127  1.00  0.00     0.006 C 
HETATM   21  C7  LIG X 999       0.771   0.578   3.658  1.00  0.00     0.011 C 
HETATM   22  C5  LIG X 999      -1.021   1.085   5.108  1.00  0.00     0.006 C 
HETATM   23  C6  LIG X 999      -0.412   1.516   3.759  1.00  0.00    -0.000 C 
BRANCH  18  24
HETATM   24  C1  LIG X 999      -0.630  -1.130   1.336  1.00  0.00     0.178 C 
HETATM   25  O1  LIG X 999       0.578  -1.071   0.983  1.00  0.00    -0.648 OA
HETATM   26  O2  LIG X 999      -1.558  -1.721   0.488  1.00  0.00    -0.648 OA
ENDBRANCH  18  24
ENDBRANCH   1  17
TORSDOF 4
