REMARK  8 active torsions:
REMARK  status: ('A' for Active; 'I' for Inactive)
REMARK    1  A    between atoms: C6_6  and  O1_7 
REMARK    2  A    between atoms: O1_7  and  C7_8 
REMARK    3  A    between atoms: C7_8  and  C8_9 
REMARK    4  A    between atoms: C13_14  and  N1_15 
REMARK    5  A    between atoms: C15_17  and  C16_18 
REMARK    6  A    between atoms: C16_18  and  C17_19 
REMARK    7  A    between atoms: C17_19  and  S1_20 
REMARK    8  A    between atoms: S1_20  and  C18_21 
ROOT
HETATM    1  N1  LIG X 999       3.097  -0.414   2.054  1.00  0.00    -0.249 N 
HETATM    2  C14 LIG X 999       2.551   0.057   0.914  1.00  0.00     0.140 A 
HETATM    3  C15 LIG X 999       3.315   1.139   0.524  1.00  0.00     0.042 A 
HETATM    4  N2  LIG X 999       4.296   1.281   1.434  1.00  0.00    -0.286 N 
HETATM    5  N3  LIG X 999       4.140   0.346   2.358  1.00  0.00    -0.015 NA
HETATM    6  H30 LIG X 999       5.063   1.990   1.431  1.00  0.00     0.184 HD
ENDROOT
BRANCH   1   7
HETATM    7  C13 LIG X 999       2.612  -1.483   2.885  1.00  0.00     0.062 A 
HETATM    8  C8  LIG X 999       2.172  -2.728   2.354  1.00  0.00    -0.006 A 
HETATM    9  C9  LIG X 999       1.669  -3.707   3.228  1.00  0.00     0.012 A 
HETATM   10  C10 LIG X 999       1.644  -3.488   4.606  1.00  0.00     0.001 A 
HETATM   11  C11 LIG X 999       2.111  -2.285   5.131  1.00  0.00     0.002 A 
HETATM   12  C12 LIG X 999       2.591  -1.290   4.279  1.00  0.00     0.032 A 
BRANCH   8  13
HETATM   13  C7  LIG X 999       2.208  -3.053   0.884  1.00  0.00     0.209 C 
BRANCH  13  14
HETATM   14  O1  LIG X 999       0.949  -2.754   0.321  1.00  0.00    -0.381 OA
BRANCH  14  15
HETATM   15  C6  LIG X 999       0.911  -3.080  -1.060  1.00  0.00     0.122 C 
HETATM   16  C5  LIG X 999      -0.137  -4.196  -1.280  1.00  0.00     0.032 C 
HETATM   17  C4  LIG X 999      -1.538  -3.619  -1.511  1.00  0.00     0.003 C 
HETATM   18  C3  LIG X 999      -1.595  -2.717  -2.764  1.00  0.00     0.004 C 
HETATM   19  C2  LIG X 999      -0.230  -2.079  -3.123  1.00  0.00    -0.016 C 
HETATM   20  C1  LIG X 999      -0.418  -0.799  -3.948  1.00  0.00     0.010 C 
HETATM   21  C28 LIG X 999       0.588  -1.791  -1.854  1.00  0.00     0.036 C 
ENDBRANCH  14  15
ENDBRANCH  13  14
ENDBRANCH   8  13
ENDBRANCH   1   7
BRANCH   3  22
HETATM   22  C16 LIG X 999       3.216   1.930  -0.751  1.00  0.00     0.070 C 
BRANCH  22  23
HETATM   23  C17 LIG X 999       1.782   2.066  -1.269  1.00  0.00     0.085 C 
BRANCH  23  24
HETATM   24  S1  LIG X 999       0.751   3.034  -0.114  1.00  0.00    -0.129 SA
BRANCH  24  25
HETATM   25  C18 LIG X 999      -0.802   2.459  -0.829  1.00  0.00     0.011 A 
HETATM   26  C19 LIG X 999      -1.294   3.123  -1.963  1.00  0.00     0.019 A 
HETATM   27  C20 LIG X 999      -2.463   2.689  -2.587  1.00  0.00     0.002 A 
HETATM   28  C21 LIG X 999      -3.164   1.592  -2.085  1.00  0.00     0.012 A 
HETATM   29  C22 LIG X 999      -2.704   0.922  -0.942  1.00  0.00    -0.025 A 
HETATM   30  C23 LIG X 999      -3.417  -0.177  -0.432  1.00  0.00     0.012 A 
HETATM   31  C27 LIG X 999      -1.514   1.355  -0.297  1.00  0.00    -0.009 A 
HETATM   32  C24 LIG X 999      -2.967  -0.839   0.711  1.00  0.00     0.001 A 
HETATM   33  C25 LIG X 999      -1.802  -0.417   1.353  1.00  0.00     0.001 A 
HETATM   34  C26 LIG X 999      -1.080   0.673   0.860  1.00  0.00     0.013 A 
ENDBRANCH  24  25
ENDBRANCH  23  24
ENDBRANCH  22  23
ENDBRANCH   3  22
TORSDOF 8
