REMARK  4 active torsions:
REMARK  status: ('A' for Active; 'I' for Inactive)
REMARK    1  A    between atoms: C3_3  and  O1_4 
REMARK    2  A    between atoms: O1_4  and  C4_5 
REMARK    3  A    between atoms: C4_5  and  C5_7 
REMARK    4  A    between atoms: C5_7  and  C6_8 
ROOT
HETATM    1  C1  LIG X 999       2.835   4.944  -0.619  1.00  0.00     0.014 C 
HETATM    2  C2  LIG X 999       2.695   3.938  -1.268  1.00  0.00    -0.091 C 
HETATM    3  C3  LIG X 999       2.524   2.716  -2.054  1.00  0.00     0.271 C 
ENDROOT
BRANCH   3   4
HETATM    4  O1  LIG X 999       1.179   2.267  -1.938  1.00  0.00    -0.309 OA
BRANCH   4   5
HETATM    5  C4  LIG X 999       0.713   1.110  -2.569  1.00  0.00     0.263 C 
HETATM    6  O2  LIG X 999       1.478   0.425  -3.302  1.00  0.00    -0.265 OA
BRANCH   5   7
HETATM    7  C5  LIG X 999      -0.712   0.693  -2.383  1.00  0.00     0.150 C 
BRANCH   7   8
HETATM    8  C6  LIG X 999      -1.030   0.530  -0.912  1.00  0.00    -0.038 A 
HETATM    9  C7  LIG X 999      -1.732   1.563  -0.266  1.00  0.00     0.008 A 
HETATM   10  C8  LIG X 999      -2.041   1.480   1.091  1.00  0.00     0.001 A 
HETATM   11  C9  LIG X 999      -1.650   0.369   1.834  1.00  0.00     0.012 A 
HETATM   12  C10 LIG X 999      -0.935  -0.672   1.226  1.00  0.00    -0.025 A 
HETATM   13  C11 LIG X 999      -0.535  -1.782   1.987  1.00  0.00     0.012 A 
HETATM   14  C15 LIG X 999      -0.611  -0.601  -0.157  1.00  0.00    -0.019 A 
HETATM   15  C12 LIG X 999       0.185  -2.819   1.394  1.00  0.00     0.001 A 
HETATM   16  C13 LIG X 999       0.514  -2.758   0.041  1.00  0.00     0.001 A 
HETATM   17  C14 LIG X 999       0.123  -1.662  -0.732  1.00  0.00     0.013 A 
ENDBRANCH   7   8
ENDBRANCH   5   7
ENDBRANCH   4   5
ENDBRANCH   3   4
TORSDOF 4
