REMARK  1 active torsions:
REMARK  status: ('A' for Active; 'I' for Inactive)
REMARK    1  A    between atoms: C3_3  and  N1_4 
ROOT
HETATM    1  N1  LIG X 999       0.175  -3.341  -3.387  1.00  0.00    -0.072 NA
HETATM    2  N2  LIG X 999       1.399  -3.440  -3.483  1.00  0.00    -0.162 NA
HETATM    3  N3  LIG X 999       2.621  -3.544  -3.580  1.00  0.00     0.068 N 
ENDROOT
BRANCH   1   4
HETATM    4  C3  LIG X 999      -0.462  -2.861  -2.194  1.00  0.00     0.104 A 
HETATM    5  C2  LIG X 999      -1.581  -3.565  -1.734  1.00  0.00     0.035 A 
HETATM    6  C1  LIG X 999      -2.212  -3.209  -0.542  1.00  0.00     0.003 A 
HETATM    7  C10 LIG X 999      -1.744  -2.133   0.208  1.00  0.00     0.012 A 
HETATM    8  C9  LIG X 999      -0.654  -1.378  -0.244  1.00  0.00    -0.023 A 
HETATM    9  C4  LIG X 999      -0.007  -1.724  -1.473  1.00  0.00     0.006 A 
HETATM   10  C8  LIG X 999      -0.212  -0.269   0.503  1.00  0.00     0.021 A 
HETATM   11  C5  LIG X 999       1.037  -0.892  -1.947  1.00  0.00     0.024 A 
HETATM   12  C6  LIG X 999       1.436   0.202  -1.179  1.00  0.00    -0.023 A 
HETATM   13  C7  LIG X 999       0.840   0.497   0.006  1.00  0.00    -0.024 A 
HETATM   14  C14 LIG X 999       2.507   1.176  -1.479  1.00  0.00     0.276 C 
HETATM   15  C11 LIG X 999       1.457   1.694   0.616  1.00  0.00     0.276 C 
HETATM   16  N4  LIG X 999       2.423   2.215  -0.403  1.00  0.00    -0.067 N 
HETATM   17  C12 LIG X 999       3.753   2.443   0.207  1.00  0.00     0.272 C 
HETATM   18  C13 LIG X 999       1.926   3.492  -0.968  1.00  0.00     0.272 C 
ENDBRANCH   1   4
TORSDOF 1
