REMARK  2 active torsions:
REMARK  status: ('A' for Active; 'I' for Inactive)
REMARK    1  A    between atoms: O1_2  and  C1_3 
REMARK    2  A    between atoms: C2_4  and  N1_5 
ROOT
HETATM    1  N1  LIG X 999       3.108   1.271   0.590  1.00  0.00    -0.068 NA
HETATM    2  N2  LIG X 999       3.906   0.397   0.930  1.00  0.00    -0.162 NA
HETATM    3  N3  LIG X 999       4.707  -0.470   1.278  1.00  0.00     0.068 N 
ENDROOT
BRANCH   1   4
HETATM    4  C2  LIG X 999       1.833   0.983  -0.009  1.00  0.00     0.148 A 
HETATM    5  C1  LIG X 999       0.766   1.863   0.259  1.00  0.00     0.099 A 
HETATM    6  C10 LIG X 999      -0.498   1.624  -0.278  1.00  0.00     0.051 A 
HETATM    7  C9  LIG X 999      -0.729   0.515  -1.095  1.00  0.00    -0.021 A 
HETATM    8  C4  LIG X 999       0.335  -0.371  -1.403  1.00  0.00    -0.002 A 
HETATM    9  C8  LIG X 999      -2.011   0.286  -1.619  1.00  0.00     0.012 A 
HETATM   10  C3  LIG X 999       1.625  -0.126  -0.871  1.00  0.00     0.079 A 
HETATM   11  C5  LIG X 999       0.072  -1.475  -2.243  1.00  0.00     0.014 A 
HETATM   12 CL1  LIG X 999       2.987  -1.144  -1.366  1.00  0.00    -0.081 Cl
HETATM   13  C6  LIG X 999      -1.210  -1.690  -2.756  1.00  0.00     0.001 A 
HETATM   14  C7  LIG X 999      -2.248  -0.813  -2.445  1.00  0.00     0.001 A 
BRANCH   5  15
HETATM   15  O1  LIG X 999       0.937   2.985   1.072  1.00  0.00    -0.358 OA
HETATM   16  H1  LIG X 999       1.825   3.222   1.498  1.00  0.00     0.217 HD
ENDBRANCH   5  15
ENDBRANCH   1   4
TORSDOF 2
