REMARK  1 active torsions:
REMARK  status: ('A' for Active; 'I' for Inactive)
REMARK    1  A    between atoms: C2_2  and  N1_3 
ROOT
HETATM    1  N1  LIG X 999       3.029  -3.188  -2.064  1.00  0.00    -0.073 NA
HETATM    2  N2  LIG X 999       3.718  -3.809  -1.253  1.00  0.00    -0.162 NA
HETATM    3  N3  LIG X 999       4.407  -4.429  -0.445  1.00  0.00     0.068 N 
ENDROOT
BRANCH   1   4
HETATM    4  C2  LIG X 999       2.099  -2.173  -1.662  1.00  0.00     0.094 A 
HETATM    5  C1  LIG X 999       1.354  -1.515  -2.649  1.00  0.00     0.035 A 
HETATM    6  C10 LIG X 999       0.436  -0.520  -2.306  1.00  0.00     0.014 A 
HETATM    7  C9  LIG X 999       0.248  -0.166  -0.963  1.00  0.00    -0.025 A 
HETATM    8  C4  LIG X 999       1.001  -0.829   0.050  1.00  0.00    -0.023 A 
HETATM    9  C8  LIG X 999      -0.676   0.837  -0.609  1.00  0.00     0.030 A 
HETATM   10  C3  LIG X 999       1.919  -1.826  -0.310  1.00  0.00     0.046 A 
HETATM   11  C5  LIG X 999       0.818  -0.478   1.404  1.00  0.00     0.022 A 
HETATM   12  C6  LIG X 999      -0.106   0.519   1.717  1.00  0.00    -0.015 A 
HETATM   13  C7  LIG X 999      -0.822   1.148   0.742  1.00  0.00     0.049 A 
HETATM   14  C14 LIG X 999      -0.467   1.054   3.068  1.00  0.00     0.286 A 
HETATM   15  C11 LIG X 999      -1.672   2.109   1.392  1.00  0.00     0.351 A 
HETATM   16  O1  LIG X 999      -2.472   2.869   0.780  1.00  0.00    -0.259 OA
HETATM   17  N4  LIG X 999      -1.508   2.108   2.827  1.00  0.00    -0.005 N 
HETATM   18  C12 LIG X 999      -1.042   3.435   3.281  1.00  0.00     0.283 C 
HETATM   19  C13 LIG X 999      -2.787   1.757   3.479  1.00  0.00     0.283 C 
ENDBRANCH   1   4
TORSDOF 1
