REMARK  2 active torsions:
REMARK  status: ('A' for Active; 'I' for Inactive)
REMARK    1  A    between atoms: N1_1  and  C1_2 
REMARK    2  A    between atoms: C7_8  and  N2_9 
ROOT
HETATM    1  C1  LIG X 999       0.499   2.727  -1.050  1.00  0.00     0.103 A 
HETATM    2  C2  LIG X 999       0.273   1.553  -1.773  1.00  0.00     0.049 A 
HETATM    3  C3  LIG X 999      -0.148   0.399  -1.106  1.00  0.00     0.001 A 
HETATM    4  C4  LIG X 999      -0.377  -0.792  -1.799  1.00  0.00     0.015 A 
HETATM    5  C5  LIG X 999      -0.799  -1.935  -1.118  1.00  0.00     0.015 A 
HETATM    6  C6  LIG X 999      -1.012  -1.911   0.277  1.00  0.00     0.003 A 
HETATM    7  C7  LIG X 999      -1.450  -3.058   0.997  1.00  0.00     0.037 A 
HETATM    8  C8  LIG X 999      -1.593  -2.984   2.390  1.00  0.00     0.030 A 
HETATM    9  C9  LIG X 999      -1.337  -1.799   3.074  1.00  0.00     0.003 A 
HETATM   10  C10 LIG X 999      -0.930  -0.663   2.381  1.00  0.00     0.015 A 
HETATM   11  C11 LIG X 999      -0.760  -0.700   0.986  1.00  0.00     0.011 A 
HETATM   12  C12 LIG X 999      -0.335   0.451   0.290  1.00  0.00     0.101 A 
HETATM   13  O1  LIG X 999      -0.107   1.591   0.943  1.00  0.00    -0.272 OA
HETATM   14  C13 LIG X 999       0.294   2.707   0.340  1.00  0.00     0.314 A 
HETATM   15  O2  LIG X 999       0.486   3.743   1.029  1.00  0.00    -0.257 OA
ENDROOT
BRANCH   1  16
HETATM   16  N1  LIG X 999       0.931   3.916  -1.722  1.00  0.00    -0.394 N 
HETATM   17  H1  LIG X 999       1.106   4.802  -1.198  1.00  0.00     0.156 HD
HETATM   18  H2  LIG X 999       1.081   3.918  -2.755  1.00  0.00     0.156 HD
ENDBRANCH   1  16
BRANCH   7  19
HETATM   19  N2  LIG X 999      -1.771  -4.302   0.352  1.00  0.00    -0.398 N 
HETATM   20  H6  LIG X 999      -1.914  -4.394  -0.675  1.00  0.00     0.156 HD
HETATM   21  H7  LIG X 999      -1.979  -5.150   0.925  1.00  0.00     0.156 HD
ENDBRANCH   7  19
TORSDOF 2
