REMARK  2 active torsions:
REMARK  status: ('A' for Active; 'I' for Inactive)
REMARK    1  A    between atoms: C9_10  and  N2_11 
REMARK       I    between atoms: N2_11  and  C10_12 
REMARK    2  A    between atoms: C10_12  and  C11_14 
ROOT
HETATM    1  C11 LIG X 999       5.133  -3.950  -2.402  1.00  0.00     0.282 C 
HETATM    2 CL1  LIG X 999       6.711  -4.032  -1.579  1.00  0.00    -0.099 Cl
HETATM    3  C12 LIG X 999       4.858  -5.232  -3.059  1.00  0.00     0.089 C 
HETATM    4  N3  LIG X 999       4.640  -6.244  -3.577  1.00  0.00    -0.195 NA
ENDROOT
BRANCH   1   5
HETATM    5  C10 LIG X 999       4.053  -3.634  -1.415  1.00  0.00     0.276 C 
HETATM    6  N2  LIG X 999       3.265  -2.450  -1.591  1.00  0.00    -0.212 NA
HETATM    7  O1  LIG X 999       3.875  -4.384  -0.417  1.00  0.00    -0.268 OA
BRANCH   6   8
HETATM    8  C9  LIG X 999       2.044  -2.127  -0.907  1.00  0.00     0.061 A 
HETATM    9  C8  LIG X 999       1.191  -3.122  -0.397  1.00  0.00     0.032 A 
HETATM   10  C7  LIG X 999       0.001  -2.775   0.247  1.00  0.00     0.014 A 
HETATM   11  C6  LIG X 999      -0.364  -1.428   0.378  1.00  0.00    -0.025 A 
HETATM   12  C5  LIG X 999      -1.560  -1.068   1.029  1.00  0.00     0.021 A 
HETATM   13  C14 LIG X 999       0.482  -0.417  -0.159  1.00  0.00    -0.023 A 
HETATM   14  C4  LIG X 999      -1.887   0.285   1.125  1.00  0.00    -0.024 A 
HETATM   15  C3  LIG X 999      -3.070   0.888   1.777  1.00  0.00     0.276 C 
HETATM   16  C16 LIG X 999      -1.079   1.252   0.611  1.00  0.00    -0.024 A 
HETATM   17  N1  LIG X 999      -2.992   2.354   1.478  1.00  0.00    -0.067 N 
HETATM   18  C1  LIG X 999      -4.054   2.732   0.516  1.00  0.00     0.272 C 
HETATM   19  C2  LIG X 999      -3.159   3.149   2.716  1.00  0.00     0.272 C 
HETATM   20  C17 LIG X 999      -1.643   2.594   0.874  1.00  0.00     0.276 C 
HETATM   21  C15 LIG X 999       0.117   0.938  -0.036  1.00  0.00     0.021 A 
HETATM   22  C13 LIG X 999       1.673  -0.780  -0.803  1.00  0.00     0.044 A 
ENDBRANCH   6   8
ENDBRANCH   1   5
TORSDOF 2
