REMARK  4 active torsions:
REMARK  status: ('A' for Active; 'I' for Inactive)
REMARK    1  A    between atoms: C5_5  and  C6_6 
REMARK    2  A    between atoms: C7_7  and  C8_8 
REMARK    3  A    between atoms: C11_13  and  C12_14 
REMARK    4  A    between atoms: C13_17  and  N3_18 
ROOT
HETATM    1  N3  LIG X 999      -2.066   3.582  -2.008  1.00  0.00    -0.023 NA
HETATM    2  N4  LIG X 999      -1.637   3.187  -3.092  1.00  0.00    -0.158 NA
HETATM    3  N5  LIG X 999      -1.208   2.792  -4.176  1.00  0.00     0.068 N 
ENDROOT
BRANCH   1   4
HETATM    4  C13 LIG X 999      -1.839   2.830  -0.818  1.00  0.00     0.326 A 
HETATM    5  N2  LIG X 999      -2.281   3.206   0.395  1.00  0.00    -0.099 NA
HETATM    6  N1  LIG X 999      -1.877   2.264   1.234  1.00  0.00    -0.124 NA
HETATM    7  C12 LIG X 999      -1.212   1.350   0.496  1.00  0.00     0.184 A 
HETATM    8  O3  LIG X 999      -1.181   1.698  -0.769  1.00  0.00    -0.255 OA
BRANCH   7   9
HETATM    9  C11 LIG X 999      -0.552   0.111   1.070  1.00  0.00     0.054 C 
HETATM   10  C3  LIG X 999      -0.208  -0.905  -0.074  1.00  0.00     0.030 C 
HETATM   11  C2  LIG X 999      -1.477  -1.507  -0.638  1.00  0.00    -0.021 C 
HETATM   12  C4  LIG X 999       0.705  -2.054   0.415  1.00  0.00     0.027 C 
HETATM   13  C1  LIG X 999      -2.517  -1.767   0.164  1.00  0.00    -0.004 C 
HETATM   14  C15 LIG X 999      -2.485  -1.365   1.585  1.00  0.00    -0.003 C 
HETATM   15  C14 LIG X 999      -1.535  -0.535   2.036  1.00  0.00    -0.008 C 
HETATM   16  C5  LIG X 999       1.969  -1.547   1.125  1.00  0.00     0.066 C 
HETATM   17  C9  LIG X 999       1.598  -0.607   2.281  1.00  0.00     0.019 C 
HETATM   18  C10 LIG X 999       0.731   0.568   1.808  1.00  0.00     0.024 C 
BRANCH  16  19
HETATM   19  C6  LIG X 999       2.885  -0.891   0.174  1.00  0.00    -0.090 C 
HETATM   20  C7  LIG X 999       3.628  -0.350  -0.606  1.00  0.00     0.005 C 
BRANCH  20  21
HETATM   21  C8  LIG X 999       4.510   0.295  -1.534  1.00  0.00     0.258 C 
HETATM   22  O1  LIG X 999       4.067   0.714  -2.635  1.00  0.00    -0.637 OA
HETATM   23  O2  LIG X 999       5.852   0.459  -1.218  1.00  0.00    -0.637 OA
ENDBRANCH  20  21
ENDBRANCH  16  19
ENDBRANCH   7   9
ENDBRANCH   1   4
TORSDOF 4
