REMARK  5 active torsions:
REMARK  status: ('A' for Active; 'I' for Inactive)
REMARK    1  A    between atoms: C2_2  and  C3_3 
REMARK    2  A    between atoms: C2_2  and  N1_13 
REMARK    3  A    between atoms: C14_15  and  C15_16 
REMARK    4  A    between atoms: C15_16  and  C16_17 
REMARK       I    between atoms: C16_17  and  N2_19 
REMARK    5  A    between atoms: N2_19  and  C17_20 
ROOT
HETATM    1  N1  LIG X 999      -0.345   0.097   3.165  1.00  0.00    -0.274 N 
HETATM    2  C13 LIG X 999      -1.496   0.685   2.789  1.00  0.00     0.137 A 
HETATM    3  C14 LIG X 999      -2.462  -0.294   2.850  1.00  0.00     0.078 A 
HETATM    4  N4  LIG X 999      -1.879  -1.448   3.233  1.00  0.00    -0.163 NA
HETATM    5  N5  LIG X 999      -0.595  -1.179   3.420  1.00  0.00     0.005 NA
ENDROOT
BRANCH   1   6
HETATM    6  C2  LIG X 999       0.993   0.692   3.214  1.00  0.00     0.134 C 
HETATM    7  C1  LIG X 999       1.015   1.930   4.122  1.00  0.00     0.039 C 
BRANCH   6   8
HETATM    8  C3  LIG X 999       1.496   0.976   1.809  1.00  0.00    -0.033 A 
HETATM    9  C4  LIG X 999       1.045   2.092   1.078  1.00  0.00     0.010 A 
HETATM   10  C5  LIG X 999       1.488   2.315  -0.229  1.00  0.00     0.013 A 
HETATM   11  C6  LIG X 999       2.379   1.420  -0.836  1.00  0.00    -0.026 A 
HETATM   12  C7  LIG X 999       2.828   1.637  -2.149  1.00  0.00     0.012 A 
HETATM   13  C11 LIG X 999       2.824   0.283  -0.120  1.00  0.00    -0.025 A 
HETATM   14  C8  LIG X 999       3.710   0.731  -2.746  1.00  0.00     0.001 A 
HETATM   15  C9  LIG X 999       4.148  -0.394  -2.041  1.00  0.00     0.001 A 
HETATM   16  C10 LIG X 999       3.709  -0.619  -0.732  1.00  0.00     0.012 A 
HETATM   17  C12 LIG X 999       2.376   0.067   1.192  1.00  0.00     0.021 A 
ENDBRANCH   6   8
ENDBRANCH   1   6
BRANCH   3  18
HETATM   18  C15 LIG X 999      -3.893  -0.163   2.438  1.00  0.00     0.167 C 
BRANCH  18  19
HETATM   19  C16 LIG X 999      -4.032  -0.484   0.985  1.00  0.00     0.251 C 
HETATM   20  O1  LIG X 999      -4.097   0.452   0.143  1.00  0.00    -0.271 OA
HETATM   21  N2  LIG X 999      -4.089  -1.855   0.571  1.00  0.00    -0.189 NA
BRANCH  21  22
HETATM   22  C17 LIG X 999      -3.949  -2.343  -0.769  1.00  0.00     0.173 A 
HETATM   23  N3  LIG X 999      -3.434  -1.641  -1.805  1.00  0.00    -0.344 N 
HETATM   24  C18 LIG X 999      -3.369  -2.382  -2.943  1.00  0.00     0.097 A 
HETATM   25  H15 LIG X 999      -3.089  -0.658  -1.756  1.00  0.00     0.167 HD
HETATM   26  C19 LIG X 999      -3.816  -3.694  -2.813  1.00  0.00     0.070 A 
HETATM   27  S1  LIG X 999      -4.303  -3.923  -1.217  1.00  0.00    -0.062 SA
ENDBRANCH  21  22
ENDBRANCH  18  19
ENDBRANCH   3  18
TORSDOF 5
