REMARK  8 active torsions:
REMARK  status: ('A' for Active; 'I' for Inactive)
REMARK    1  A    between atoms: O1_2  and  C1_3 
REMARK    2  A    between atoms: C1_3  and  N1_8 
REMARK    3  A    between atoms: C2_4  and  C3_5 
REMARK    4  A    between atoms: N1_8  and  C6_10 
REMARK    5  A    between atoms: C6_10  and  C7_11 
REMARK    6  A    between atoms: C7_11  and  C8_12 
REMARK    7  A    between atoms: C8_12  and  O2_13 
REMARK    8  A    between atoms: O2_13  and  C9_14 
ROOT
HETATM    1  C8  LIG X 999       1.982  -0.496  -2.645  1.00  0.00     0.177 C 
ENDROOT
BRANCH   1   2
HETATM    2  C7  LIG X 999       1.826  -1.737  -1.752  1.00  0.00     0.046 C 
BRANCH   2   3
HETATM    3  C6  LIG X 999       0.402  -2.313  -1.759  1.00  0.00     0.123 C 
BRANCH   3   4
HETATM    4  N1  LIG X 999      -0.514  -1.495  -0.964  1.00  0.00    -0.371 N 
HETATM    5  H10 LIG X 999      -1.255  -0.978  -1.485  1.00  0.00     0.161 HD
BRANCH   4   6
HETATM    6  C1  LIG X 999      -0.458  -1.471   0.476  1.00  0.00     0.132 C 
HETATM    7  C2  LIG X 999      -1.306  -0.734   1.217  1.00  0.00     0.032 C 
BRANCH   6   8
HETATM    8  O1  LIG X 999       0.511  -2.240   1.125  1.00  0.00    -0.347 OA
HETATM    9  H1  LIG X 999       0.602  -2.259   2.134  1.00  0.00     0.219 HD
ENDBRANCH   6   8
BRANCH   7  10
HETATM   10  C3  LIG X 999      -2.433   0.108   0.662  1.00  0.00     0.004 C 
HETATM   11  C4  LIG X 999      -2.859   1.165   1.688  1.00  0.00     0.013 C 
HETATM   12  C5  LIG X 999      -3.630  -0.776   0.291  1.00  0.00     0.013 C 
ENDBRANCH   7  10
ENDBRANCH   4   6
ENDBRANCH   3   4
ENDBRANCH   2   3
ENDBRANCH   1   2
BRANCH   1  13
HETATM   13  O2  LIG X 999       1.061   0.540  -2.299  1.00  0.00    -0.351 OA
BRANCH  13  14
HETATM   14  C9  LIG X 999       1.123   1.348  -1.152  1.00  0.00     0.069 A 
HETATM   15  C10 LIG X 999       0.081   2.257  -0.937  1.00  0.00     0.037 A 
HETATM   16  C11 LIG X 999       0.054   3.058   0.206  1.00  0.00     0.015 A 
HETATM   17  C12 LIG X 999       1.081   2.965   1.154  1.00  0.00    -0.026 A 
HETATM   18  C13 LIG X 999       1.057   3.753   2.316  1.00  0.00     0.012 A 
HETATM   19  C17 LIG X 999       2.155   2.069   0.937  1.00  0.00    -0.023 A 
HETATM   20  C14 LIG X 999       2.090   3.654   3.252  1.00  0.00     0.001 A 
HETATM   21  C15 LIG X 999       3.152   2.772   3.037  1.00  0.00     0.001 A 
HETATM   22  C16 LIG X 999       3.188   1.981   1.884  1.00  0.00     0.012 A 
HETATM   23  C18 LIG X 999       2.176   1.274  -0.220  1.00  0.00     0.049 A 
ENDBRANCH  13  14
ENDBRANCH   1  13
TORSDOF 8
