REMARK  3 active torsions:
REMARK  status: ('A' for Active; 'I' for Inactive)
REMARK    1  A    between atoms: C3_3  and  S1_4 
REMARK    2  A    between atoms: S1_4  and  C4_7 
REMARK    3  A    between atoms: C6_9  and  N1_10 
ROOT
HETATM    1  C1  LIG X 999       1.468   3.217   1.517  1.00  0.00     0.013 C 
HETATM    2  C2  LIG X 999       1.600   3.796   0.467  1.00  0.00    -0.102 C 
HETATM    3  C3  LIG X 999       1.762   4.511  -0.801  1.00  0.00     0.238 C 
ENDROOT
BRANCH   3   4
HETATM    4  S1  LIG X 999       1.363   3.467  -2.194  1.00  0.00     0.186 S 
HETATM    5  O1  LIG X 999       2.318   2.309  -2.277  1.00  0.00    -0.222 OA
HETATM    6  O2  LIG X 999       1.542   4.285  -3.442  1.00  0.00    -0.222 OA
BRANCH   4   7
HETATM    7  C4  LIG X 999      -0.326   2.911  -2.105  1.00  0.00     0.073 A 
HETATM    8  C5  LIG X 999      -1.283   3.665  -2.804  1.00  0.00     0.058 A 
HETATM    9  C6  LIG X 999      -2.634   3.312  -2.808  1.00  0.00     0.095 A 
HETATM   10  C7  LIG X 999      -3.056   2.184  -2.091  1.00  0.00     0.046 A 
HETATM   11  C8  LIG X 999      -2.135   1.418  -1.367  1.00  0.00    -0.021 A 
HETATM   12  C9  LIG X 999      -2.586   0.299  -0.639  1.00  0.00     0.022 A 
HETATM   13  C13 LIG X 999      -0.749   1.775  -1.360  1.00  0.00    -0.004 A 
HETATM   14  C10 LIG X 999      -1.664  -0.440   0.096  1.00  0.00    -0.024 A 
HETATM   15  C11 LIG X 999      -0.348  -0.110   0.116  1.00  0.00    -0.024 A 
HETATM   16  C17 LIG X 999      -1.913  -1.641   0.921  1.00  0.00     0.276 C 
HETATM   17  C12 LIG X 999       0.145   0.981  -0.599  1.00  0.00     0.023 A 
HETATM   18  C14 LIG X 999       0.413  -1.056   0.960  1.00  0.00     0.276 C 
HETATM   19  N4  LIG X 999      -0.614  -1.933   1.607  1.00  0.00    -0.067 N 
HETATM   20  C15 LIG X 999      -0.252  -3.361   1.457  1.00  0.00     0.272 C 
HETATM   21  C16 LIG X 999      -0.719  -1.611   3.050  1.00  0.00     0.272 C 
BRANCH   9  22
HETATM   22  N1  LIG X 999      -3.555   4.124  -3.549  1.00  0.00    -0.073 NA
HETATM   23  N2  LIG X 999      -4.761   3.876  -3.598  1.00  0.00    -0.162 NA
HETATM   24  N3  LIG X 999      -5.965   3.631  -3.648  1.00  0.00     0.068 N 
ENDBRANCH   9  22
ENDBRANCH   4   7
ENDBRANCH   3   4
TORSDOF 3
