REMARK  5 active torsions:
REMARK  status: ('A' for Active; 'I' for Inactive)
REMARK    1  A    between atoms: O1_2  and  C1_3 
REMARK    2  A    between atoms: C1_3  and  C2_4 
REMARK    3  A    between atoms: C2_4  and  C3_5 
REMARK       I    between atoms: N1_7  and  C5_8 
REMARK    4  A    between atoms: C5_8  and  C6_10 
REMARK    5  A    between atoms: C12_16  and  N2_17 
ROOT
HETATM    1  N2  LIG X 999      -0.582   1.851  -2.428  1.00  0.00    -0.105 NA
HETATM    2  N3  LIG X 999       0.488   1.269  -2.258  1.00  0.00    -0.167 NA
HETATM    3  N4  LIG X 999       1.558   0.689  -2.087  1.00  0.00     0.068 N 
ENDROOT
BRANCH   1   4
HETATM    4  C12 LIG X 999      -1.841   1.116  -2.537  1.00  0.00     0.179 C 
HETATM    5  C10 LIG X 999      -2.707   1.376  -1.314  1.00  0.00    -0.024 A 
HETATM    6  C9  LIG X 999      -4.099   1.615  -1.429  1.00  0.00    -0.050 A 
HETATM    7  C11 LIG X 999      -2.139   1.253  -0.034  1.00  0.00     0.027 A 
HETATM    8  C8  LIG X 999      -4.864   1.821  -0.272  1.00  0.00     0.009 A 
HETATM    9  C15 LIG X 999      -4.776   1.727  -2.774  1.00  0.00     0.039 C 
HETATM   10  C7  LIG X 999      -4.279   1.724   0.993  1.00  0.00     0.017 A 
HETATM   11  C6  LIG X 999      -2.920   1.409   1.123  1.00  0.00     0.034 A 
HETATM   12  C14 LIG X 999      -3.977   1.038  -3.881  1.00  0.00     0.007 C 
HETATM   13  C13 LIG X 999      -2.526   1.515  -3.853  1.00  0.00     0.035 C 
BRANCH  11  14
HETATM   14  C5  LIG X 999      -2.320   1.245   2.466  1.00  0.00     0.274 C 
HETATM   15  N1  LIG X 999      -1.338   0.232   2.728  1.00  0.00    -0.213 N 
HETATM   16  C4  LIG X 999      -1.138  -0.910   2.038  1.00  0.00     0.144 A 
HETATM   17  N5  LIG X 999      -0.501   0.255   3.753  1.00  0.00    -0.013 NA
HETATM   18  C3  LIG X 999      -0.120  -1.578   2.680  1.00  0.00     0.044 A 
HETATM   19  N6  LIG X 999       0.255  -0.832   3.736  1.00  0.00    -0.286 N 
HETATM   20  H15 LIG X 999       0.999  -1.053   4.434  1.00  0.00     0.184 HD
HETATM   21  O2  LIG X 999      -2.694   1.998   3.405  1.00  0.00    -0.266 OA
BRANCH  18  22
HETATM   22  C2  LIG X 999       0.493  -2.888   2.275  1.00  0.00     0.097 C 
BRANCH  22  23
HETATM   23  C1  LIG X 999       1.828  -2.739   1.492  1.00  0.00     0.063 C 
HETATM   24  C16 LIG X 999       1.610  -1.949   0.162  1.00  0.00     0.038 C 
HETATM   25  C17 LIG X 999       0.971  -2.763  -0.978  1.00  0.00     0.003 C 
HETATM   26  C18 LIG X 999       2.027  -3.427  -1.873  1.00  0.00     0.000 C 
HETATM   27  C19 LIG X 999       2.710  -4.638  -1.224  1.00  0.00     0.000 C 
HETATM   28  C20 LIG X 999       3.409  -4.316   0.108  1.00  0.00     0.003 C 
HETATM   29  C21 LIG X 999       2.409  -4.173   1.272  1.00  0.00     0.038 C 
BRANCH  23  30
HETATM   30  O1  LIG X 999       2.713  -2.007   2.311  1.00  0.00    -0.389 OA
HETATM   31  H1  LIG X 999       3.597  -1.978   1.863  1.00  0.00     0.210 HD
ENDBRANCH  23  30
ENDBRANCH  22  23
ENDBRANCH  18  22
ENDBRANCH  11  14
ENDBRANCH   1   4
TORSDOF 5
