REMARK  3 active torsions:
REMARK  status: ('A' for Active; 'I' for Inactive)
REMARK    1  A    between atoms: C7_9  and  C8_10 
REMARK    2  A    between atoms: C9_13  and  N4_14 
REMARK    3  A    between atoms: N7_23  and  C14_24 
ROOT
HETATM    1  N4  LIG X 999      -3.681  -4.072   1.474  1.00  0.00    -0.023 NA
HETATM    2  N5  LIG X 999      -4.432  -3.174   1.853  1.00  0.00    -0.158 NA
HETATM    3  N6  LIG X 999      -5.183  -2.276   2.231  1.00  0.00     0.068 N 
ENDROOT
BRANCH   1   4
HETATM    4  C9  LIG X 999      -2.484  -3.769   0.761  1.00  0.00     0.326 A 
HETATM    5  N3  LIG X 999      -1.619  -4.701   0.328  1.00  0.00    -0.099 NA
HETATM    6  N2  LIG X 999      -0.648  -4.037  -0.281  1.00  0.00    -0.119 NA
HETATM    7  C8  LIG X 999      -0.959  -2.728  -0.186  1.00  0.00     0.205 A 
HETATM    8  O1  LIG X 999      -2.095  -2.557   0.447  1.00  0.00    -0.252 OA
BRANCH   7   9
HETATM    9  C7  LIG X 999      -0.148  -1.643  -0.775  1.00  0.00     0.032 A 
HETATM   10  C6  LIG X 999      -0.041  -0.343  -0.190  1.00  0.00     0.020 A 
HETATM   11  C1  LIG X 999      -0.541   0.135   1.141  1.00  0.00     0.060 A 
HETATM   12  C5  LIG X 999       0.656   0.603  -0.918  1.00  0.00     0.019 A 
HETATM   13  N1  LIG X 999      -1.032  -0.687   2.012  1.00  0.00    -0.299 NA
HETATM   14  C2  LIG X 999      -0.368   1.586   1.500  1.00  0.00     0.034 A 
HETATM   15  H1  LIG X 999      -1.351  -0.371   2.955  1.00  0.00     0.187 HD
HETATM   16  C3  LIG X 999       0.299   2.432   0.688  1.00  0.00     0.033 A 
HETATM   17  C4  LIG X 999       0.854   1.902  -0.568  1.00  0.00     0.048 A 
HETATM   18  N7  LIG X 999       1.583   2.525  -1.527  1.00  0.00    -0.324 N 
HETATM   19  C13 LIG X 999       1.821   1.585  -2.483  1.00  0.00     0.193 A 
HETATM   20  C12 LIG X 999       1.255   0.376  -2.114  1.00  0.00     0.032 A 
HETATM   21  O2  LIG X 999       2.525   1.822  -3.658  1.00  0.00    -0.171 OA
HETATM   22  C11 LIG X 999       1.210  -0.881  -2.704  1.00  0.00     0.018 A 
HETATM   23  C10 LIG X 999       0.504  -1.897  -2.022  1.00  0.00     0.018 A 
BRANCH  18  24
HETATM   24  C14 LIG X 999       1.962   3.937  -1.573  1.00  0.00     0.127 C 
HETATM   25  C15 LIG X 999       0.832   4.768  -2.168  1.00  0.00     0.027 C 
ENDBRANCH  18  24
ENDBRANCH   7   9
ENDBRANCH   1   4
TORSDOF 3
