REMARK  4 active torsions:
REMARK  status: ('A' for Active; 'I' for Inactive)
REMARK    1  A    between atoms: C1_2  and  C2_4 
REMARK    2  A    between atoms: C8_10  and  C9_11 
REMARK       I    between atoms: C9_11  and  N1_13 
REMARK    3  A    between atoms: N1_13  and  S1_14 
REMARK    4  A    between atoms: S1_14  and  C10_17 
ROOT
HETATM    1  C9  LIG X 999      -1.831   0.603   1.075  1.00  0.00     0.259 C 
HETATM    2  O3  LIG X 999      -2.374  -0.202   0.271  1.00  0.00    -0.270 OA
HETATM    3  N1  LIG X 999      -1.366   1.873   0.609  1.00  0.00    -0.122 NA
ENDROOT
BRANCH   3   4
HETATM    4  S1  LIG X 999      -1.380   2.301  -1.067  1.00  0.00     0.286 S 
HETATM    5  O4  LIG X 999      -0.779   3.667  -1.238  1.00  0.00    -0.198 OA
HETATM    6  O5  LIG X 999      -2.799   2.330  -1.563  1.00  0.00    -0.198 OA
BRANCH   4   7
HETATM    7  C10 LIG X 999      -0.420   1.130  -1.963  1.00  0.00     0.082 A 
HETATM    8  C11 LIG X 999      -1.018   0.289  -2.911  1.00  0.00     0.026 A 
HETATM    9  C12 LIG X 999      -0.257  -0.672  -3.582  1.00  0.00     0.014 A 
HETATM   10  C13 LIG X 999       1.112  -0.806  -3.306  1.00  0.00    -0.026 A 
HETATM   11  C14 LIG X 999       1.885  -1.774  -3.966  1.00  0.00     0.012 A 
HETATM   12  C18 LIG X 999       1.719   0.042  -2.348  1.00  0.00    -0.025 A 
HETATM   13  C15 LIG X 999       3.246  -1.901  -3.676  1.00  0.00     0.001 A 
HETATM   14  C16 LIG X 999       3.845  -1.066  -2.729  1.00  0.00     0.001 A 
HETATM   15  C17 LIG X 999       3.087  -0.098  -2.065  1.00  0.00     0.012 A 
HETATM   16  C19 LIG X 999       0.947   1.007  -1.686  1.00  0.00     0.037 A 
ENDBRANCH   4   7
ENDBRANCH   3   4
BRANCH   1  17
HETATM   17  C8  LIG X 999      -1.631   0.180   2.514  1.00  0.00     0.099 C 
HETATM   18  C2  LIG X 999      -0.301  -0.581   2.805  1.00  0.00     0.104 C 
HETATM   19  C3  LIG X 999       0.333   0.279   3.929  1.00  0.00     0.001 C 
HETATM   20  C4  LIG X 999      -0.484   0.081   5.221  1.00  0.00     0.006 C 
HETATM   21  C7  LIG X 999      -0.072   1.682   3.536  1.00  0.00     0.011 C 
HETATM   22  C5  LIG X 999      -1.785   0.848   4.926  1.00  0.00     0.006 C 
HETATM   23  C6  LIG X 999      -1.554   1.377   3.497  1.00  0.00    -0.000 C 
BRANCH  18  24
HETATM   24  C1  LIG X 999       0.618  -0.751   1.613  1.00  0.00     0.178 C 
HETATM   25  O1  LIG X 999       0.389  -1.664   0.776  1.00  0.00    -0.648 OA
HETATM   26  O2  LIG X 999       1.700   0.098   1.410  1.00  0.00    -0.648 OA
ENDBRANCH  18  24
ENDBRANCH   1  17
TORSDOF 4
