REMARK  3 active torsions:
REMARK  status: ('A' for Active; 'I' for Inactive)
REMARK    1  A    between atoms: C2_2  and  N1_3 
REMARK    2  A    between atoms: C3_6  and  O1_7 
REMARK    3  A    between atoms: O1_7  and  C4_8 
REMARK       I    between atoms: C4_8  and  N4_10 
ROOT
HETATM    1  N1  LIG X 999       1.292   3.655   0.843  1.00  0.00    -0.070 NA
HETATM    2  N2  LIG X 999       1.831   4.490   0.115  1.00  0.00    -0.162 NA
HETATM    3  N3  LIG X 999       2.368   5.326  -0.611  1.00  0.00     0.068 N 
ENDROOT
BRANCH   1   4
HETATM    4  C2  LIG X 999       0.870   2.370   0.360  1.00  0.00     0.128 A 
HETATM    5  C1  LIG X 999       1.058   1.995  -0.984  1.00  0.00     0.049 A 
HETATM    6  C13 LIG X 999       0.637   0.739  -1.436  1.00  0.00    -0.023 A 
HETATM    7  C8  LIG X 999       0.006  -0.159  -0.531  1.00  0.00    -0.022 A 
HETATM    8  C12 LIG X 999       0.822   0.362  -2.781  1.00  0.00     0.021 A 
HETATM    9  C7  LIG X 999      -0.179   0.220   0.804  1.00  0.00     0.052 A 
HETATM   10  C9  LIG X 999      -0.434  -1.418  -0.986  1.00  0.00     0.021 A 
HETATM   11  C3  LIG X 999       0.266   1.476   1.259  1.00  0.00     0.113 A 
HETATM   12  C10 LIG X 999      -0.226  -1.756  -2.324  1.00  0.00    -0.024 A 
HETATM   13  C11 LIG X 999       0.381  -0.898  -3.190  1.00  0.00    -0.024 A 
HETATM   14  C17 LIG X 999      -0.620  -3.001  -3.018  1.00  0.00     0.276 C 
HETATM   15  C14 LIG X 999       0.449  -1.488  -4.544  1.00  0.00     0.276 C 
HETATM   16  N5  LIG X 999      -0.043  -2.895  -4.396  1.00  0.00    -0.067 N 
HETATM   17  C15 LIG X 999       1.085  -3.845  -4.548  1.00  0.00     0.272 C 
HETATM   18  C16 LIG X 999      -1.070  -3.199  -5.418  1.00  0.00     0.272 C 
BRANCH  11  19
HETATM   19  O1  LIG X 999       0.084   1.883   2.590  1.00  0.00    -0.259 OA
BRANCH  19  20
HETATM   20  C4  LIG X 999       0.073   1.033   3.706  1.00  0.00     0.367 C 
HETATM   21  O2  LIG X 999       0.539  -0.137   3.622  1.00  0.00    -0.238 OA
HETATM   22  N4  LIG X 999      -0.420   1.521   4.965  1.00  0.00    -0.336 N 
HETATM   23  C5  LIG X 999      -0.413   0.644   6.140  1.00  0.00     0.154 C 
HETATM   24  C6  LIG X 999      -0.930   2.891   5.054  1.00  0.00     0.154 C 
ENDBRANCH  19  20
ENDBRANCH  11  19
ENDBRANCH   1   4
TORSDOF 3
