REMARK  2 active torsions:
REMARK  status: ('A' for Active; 'I' for Inactive)
REMARK    1  A    between atoms: C10_12  and  N3_13 
REMARK       I    between atoms: N3_13  and  C11_14 
REMARK    2  A    between atoms: C11_14  and  C12_16 
ROOT
HETATM    1  C1  LIG X 999       1.765   1.843   4.192  1.00  0.00     0.272 C 
HETATM    2  N1  LIG X 999       1.764   1.987   2.719  1.00  0.00    -0.067 N 
HETATM    3  C2  LIG X 999       2.739   3.036   2.337  1.00  0.00     0.272 C 
HETATM    4  C3  LIG X 999       0.398   2.352   2.224  1.00  0.00     0.276 C 
HETATM    5  C4  LIG X 999       0.102   1.401   1.131  1.00  0.00    -0.024 A 
HETATM    6  C5  LIG X 999      -1.010   1.386   0.288  1.00  0.00     0.021 A 
HETATM    7  C6  LIG X 999      -1.107   0.368  -0.681  1.00  0.00    -0.024 A 
HETATM    8  C7  LIG X 999      -2.198   0.322  -1.559  1.00  0.00     0.037 A 
HETATM    9  C8  LIG X 999      -2.291  -0.693  -2.520  1.00  0.00     0.074 A 
HETATM   10  C9  LIG X 999      -3.425  -0.711  -3.412  1.00  0.00     0.102 C 
HETATM   11  N2  LIG X 999      -4.334  -0.725  -4.127  1.00  0.00    -0.191 NA
HETATM   12  C10 LIG X 999      -1.299  -1.689  -2.602  1.00  0.00     0.082 A 
HETATM   13  C13 LIG X 999      -0.190  -1.632  -1.739  1.00  0.00     0.045 A 
HETATM   14  C14 LIG X 999      -0.087  -0.619  -0.776  1.00  0.00    -0.023 A 
HETATM   15  C15 LIG X 999       1.018  -0.569   0.097  1.00  0.00     0.021 A 
HETATM   16  C16 LIG X 999       1.080   0.459   1.039  1.00  0.00    -0.024 A 
HETATM   17  C17 LIG X 999       2.123   0.690   2.061  1.00  0.00     0.276 C 
ENDROOT
BRANCH  12  18
HETATM   18  N3  LIG X 999      -1.410  -2.710  -3.608  1.00  0.00    -0.210 NA
HETATM   19  C11 LIG X 999      -0.845  -4.026  -3.551  1.00  0.00     0.276 C 
HETATM   20  O1  LIG X 999      -0.434  -4.503  -2.459  1.00  0.00    -0.268 OA
BRANCH  19  21
HETATM   21  C12 LIG X 999      -0.825  -4.870  -4.785  1.00  0.00     0.272 C 
HETATM   22 CL1  LIG X 999       0.810  -5.519  -5.064  1.00  0.00    -0.098 Cl
HETATM   23 CL2  LIG X 999      -1.977  -6.217  -4.614  1.00  0.00    -0.098 Cl
ENDBRANCH  19  21
ENDBRANCH  12  18
TORSDOF 2
