REMARK  7 active torsions:
REMARK  status: ('A' for Active; 'I' for Inactive)
REMARK    1  A    between atoms: O1_2  and  C1_3 
REMARK    2  A    between atoms: C1_3  and  C2_4 
REMARK    3  A    between atoms: C1_3  and  C3_8 
REMARK    4  A    between atoms: C2_4  and  N1_5 
REMARK    5  A    between atoms: C3_8  and  O2_9 
REMARK    6  A    between atoms: O2_9  and  C4_10 
REMARK    7  A    between atoms: C9_15  and  N4_16 
ROOT
HETATM    1  N1  LIG X 999      -3.058   2.700   1.582  1.00  0.00    -0.113 NA
HETATM    2  N2  LIG X 999      -3.919   3.012   0.759  1.00  0.00    -0.168 NA
HETATM    3  N3  LIG X 999      -4.779   3.324  -0.063  1.00  0.00     0.068 N 
ENDROOT
BRANCH   1   4
HETATM    4  C2  LIG X 999      -1.896   3.551   1.799  1.00  0.00     0.223 C 
BRANCH   4   5
HETATM    5  C1  LIG X 999      -0.965   2.955   2.871  1.00  0.00     0.165 C 
BRANCH   5   6
HETATM    6  O1  LIG X 999      -1.608   2.911   4.121  1.00  0.00    -0.392 OA
HETATM    7  H1  LIG X 999      -2.341   2.244   4.062  1.00  0.00     0.210 HD
ENDBRANCH   5   6
BRANCH   5   8
HETATM    8  C3  LIG X 999      -0.425   1.569   2.484  1.00  0.00     0.209 C 
BRANCH   8   9
HETATM    9  O2  LIG X 999       0.343   1.662   1.286  1.00  0.00    -0.349 OA
BRANCH   9  10
HETATM   10  C4  LIG X 999       0.975   0.578   0.659  1.00  0.00     0.069 A 
HETATM   11  C5  LIG X 999       1.685   0.819  -0.522  1.00  0.00     0.037 A 
HETATM   12  C6  LIG X 999       2.333  -0.222  -1.190  1.00  0.00     0.015 A 
HETATM   13  C7  LIG X 999       2.279  -1.528  -0.682  1.00  0.00    -0.024 A 
HETATM   14  C8  LIG X 999       2.927  -2.581  -1.347  1.00  0.00     0.046 A 
HETATM   15  C12 LIG X 999       1.564  -1.784   0.511  1.00  0.00    -0.023 A 
HETATM   16  C9  LIG X 999       2.868  -3.890  -0.831  1.00  0.00     0.094 A 
HETATM   17  C10 LIG X 999       2.158  -4.133   0.351  1.00  0.00     0.035 A 
HETATM   18  C11 LIG X 999       1.510  -3.091   1.019  1.00  0.00     0.014 A 
HETATM   19  C13 LIG X 999       0.916  -0.731   1.175  1.00  0.00     0.049 A 
BRANCH  16  20
HETATM   20  N4  LIG X 999       3.518  -4.989  -1.484  1.00  0.00    -0.073 NA
HETATM   21  N5  LIG X 999       4.160  -4.851  -2.526  1.00  0.00    -0.162 NA
HETATM   22  N6  LIG X 999       4.802  -4.714  -3.567  1.00  0.00     0.068 N 
ENDBRANCH  16  20
ENDBRANCH   9  10
ENDBRANCH   8   9
ENDBRANCH   5   8
ENDBRANCH   4   5
ENDBRANCH   1   4
TORSDOF 7
