REMARK  2 active torsions:
REMARK  status: ('A' for Active; 'I' for Inactive)
REMARK       I    between atoms: N1_1  and  C1_2 
REMARK    1  A    between atoms: C1_2  and  C2_4 
REMARK    2  A    between atoms: C11_13  and  O2_14 
ROOT
HETATM    1  C2  LIG X 999      -0.304   0.483   1.417  1.00  0.00     0.118 C 
HETATM    2  C3  LIG X 999      -0.624  -1.008   1.205  1.00  0.00     0.017 C 
HETATM    3  C4  LIG X 999       0.668  -1.819   1.103  1.00  0.00     0.002 C 
HETATM    4  C5  LIG X 999       1.526  -1.318  -0.058  1.00  0.00     0.012 C 
HETATM    5  C6  LIG X 999       1.859   0.186   0.075  1.00  0.00     0.047 C 
HETATM    6  C7  LIG X 999       2.611   0.614  -1.166  1.00  0.00    -0.019 C 
HETATM    7  C8  LIG X 999       1.947   1.029  -2.251  1.00  0.00    -0.004 C 
HETATM    8  C9  LIG X 999       0.481   1.195  -2.215  1.00  0.00    -0.001 C 
HETATM    9  C10 LIG X 999      -0.182   1.160  -1.052  1.00  0.00     0.012 C 
HETATM   10  C11 LIG X 999       0.577   1.069   0.271  1.00  0.00     0.095 C 
ENDROOT
BRANCH   1  11
HETATM   11  C1  LIG X 999      -1.558   1.293   1.656  1.00  0.00     0.243 C 
HETATM   12  N1  LIG X 999      -1.503   2.449   2.488  1.00  0.00    -0.267 NA
HETATM   13  H1  LIG X 999      -2.354   3.030   2.655  1.00  0.00     0.190 HD
HETATM   14  O1  LIG X 999      -2.648   0.975   1.106  1.00  0.00    -0.271 OA
ENDBRANCH   1  11
BRANCH  10  15
HETATM   15  O2  LIG X 999       0.964   2.366   0.670  1.00  0.00    -0.384 OA
HETATM   16  H14 LIG X 999       1.497   2.783  -0.056  1.00  0.00     0.211 HD
ENDBRANCH  10  15
TORSDOF 2
