REMARK  2 active torsions:
REMARK  status: ('A' for Active; 'I' for Inactive)
REMARK    1  A    between atoms: C2_5  and  C3_6 
REMARK    2  A    between atoms: N3_17  and  C13_18 
ROOT
HETATM    1  H1  LIG X 999       1.952  -2.993  -1.395  1.00  0.00     0.190 HD
HETATM    2  N1  LIG X 999       2.380  -2.178  -0.903  1.00  0.00    -0.260 NA
HETATM    3  C1  LIG X 999       1.647  -1.198  -0.484  1.00  0.00     0.269 A 
HETATM    4  O1  LIG X 999       0.349  -1.132  -0.648  1.00  0.00    -0.255 OA
HETATM    5  C2  LIG X 999      -0.002   0.020  -0.115  1.00  0.00     0.203 A 
HETATM    6  N2  LIG X 999       1.071   0.682   0.373  1.00  0.00    -0.137 NA
HETATM    7  N3  LIG X 999       2.114  -0.101   0.146  1.00  0.00    -0.189 N 
ENDROOT
BRANCH   5   8
HETATM    8  C3  LIG X 999      -1.382   0.560  -0.093  1.00  0.00     0.030 A 
HETATM    9  C4  LIG X 999      -1.538   1.952  -0.210  1.00  0.00     0.017 A 
HETATM   10  C5  LIG X 999      -2.804   2.530  -0.278  1.00  0.00     0.002 A 
HETATM   11  C6  LIG X 999      -3.943   1.732  -0.226  1.00  0.00     0.012 A 
HETATM   12  C7  LIG X 999      -3.828   0.344  -0.081  1.00  0.00    -0.025 A 
HETATM   13  C8  LIG X 999      -4.985  -0.447  -0.004  1.00  0.00     0.012 A 
HETATM   14  C12 LIG X 999      -2.542  -0.261   0.004  1.00  0.00    -0.011 A 
HETATM   15  C9  LIG X 999      -4.885  -1.825   0.178  1.00  0.00     0.001 A 
HETATM   16  C10 LIG X 999      -3.633  -2.425   0.299  1.00  0.00     0.001 A 
HETATM   17  C11 LIG X 999      -2.470  -1.655   0.221  1.00  0.00     0.013 A 
ENDBRANCH   5   8
BRANCH   7  18
HETATM   18  C13 LIG X 999       3.468   0.228   0.511  1.00  0.00     0.107 A 
HETATM   19  C14 LIG X 999       4.362  -0.768   0.938  1.00  0.00     0.054 A 
HETATM   20  C15 LIG X 999       5.664  -0.420   1.302  1.00  0.00     0.122 A 
HETATM   21  N4  LIG X 999       6.063   0.878   1.249  1.00  0.00    -0.230 NA
HETATM   22  C16 LIG X 999       5.221   1.867   0.850  1.00  0.00     0.251 A 
HETATM   23  F1  LIG X 999       5.660   3.148   0.813  1.00  0.00    -0.181 F 
HETATM   24  C17 LIG X 999       3.907   1.563   0.479  1.00  0.00     0.203 A 
HETATM   25  F2  LIG X 999       3.081   2.558   0.069  1.00  0.00    -0.199 F 
ENDBRANCH   7  18
TORSDOF 2
