REMARK  2 active torsions:
REMARK  status: ('A' for Active; 'I' for Inactive)
REMARK    1  A    between atoms: C2_5  and  C3_6 
REMARK    2  A    between atoms: N3_18  and  C13_19 
ROOT
HETATM    1  H1  LIG X 999      -1.756   2.804   1.999  1.00  0.00     0.190 HD
HETATM    2  N1  LIG X 999      -1.986   1.786   2.055  1.00  0.00    -0.260 NA
HETATM    3  C1  LIG X 999      -1.223   0.903   1.497  1.00  0.00     0.268 A 
HETATM    4  O1  LIG X 999      -0.134   1.194   0.822  1.00  0.00    -0.257 OA
HETATM    5  C2  LIG X 999       0.333   0.032   0.409  1.00  0.00     0.177 A 
HETATM    6  N2  LIG X 999      -0.468  -0.976   0.817  1.00  0.00    -0.269 N 
HETATM    7  H9  LIG X 999      -0.330  -1.999   0.660  1.00  0.00     0.190 HD
HETATM    8  N3  LIG X 999      -1.451  -0.426   1.512  1.00  0.00    -0.212 N 
ENDROOT
BRANCH   5   9
HETATM    9  C3  LIG X 999       1.547  -0.145  -0.422  1.00  0.00     0.028 A 
HETATM   10  C4  LIG X 999       1.512  -1.118  -1.436  1.00  0.00     0.017 A 
HETATM   11  C5  LIG X 999       2.591  -1.290  -2.301  1.00  0.00     0.002 A 
HETATM   12  C6  LIG X 999       3.729  -0.497  -2.172  1.00  0.00     0.012 A 
HETATM   13  C7  LIG X 999       3.806   0.468  -1.159  1.00  0.00    -0.025 A 
HETATM   14  C8  LIG X 999       4.966   1.247  -1.025  1.00  0.00     0.012 A 
HETATM   15  C12 LIG X 999       2.717   0.647  -0.260  1.00  0.00    -0.011 A 
HETATM   16  C9  LIG X 999       5.068   2.187  -0.000  1.00  0.00     0.001 A 
HETATM   17  C10 LIG X 999       4.022   2.350   0.906  1.00  0.00     0.001 A 
HETATM   18  C11 LIG X 999       2.859   1.585   0.787  1.00  0.00     0.013 A 
ENDBRANCH   5   9
BRANCH   8  19
HETATM   19  C13 LIG X 999      -2.520  -1.149   2.149  1.00  0.00     0.105 A 
HETATM   20  C14 LIG X 999      -2.950  -0.796   3.438  1.00  0.00     0.054 A 
HETATM   21  C15 LIG X 999      -3.979  -1.519   4.045  1.00  0.00     0.122 A 
HETATM   22  N4  LIG X 999      -4.562  -2.557   3.390  1.00  0.00    -0.230 NA
HETATM   23  C16 LIG X 999      -4.168  -2.924   2.142  1.00  0.00     0.251 A 
HETATM   24  F1  LIG X 999      -4.780  -3.963   1.522  1.00  0.00    -0.181 F 
HETATM   25  C17 LIG X 999      -3.139  -2.230   1.498  1.00  0.00     0.202 A 
HETATM   26  F2  LIG X 999      -2.777  -2.585   0.239  1.00  0.00    -0.199 F 
ENDBRANCH   8  19
TORSDOF 2
