REMARK  4 active torsions:
REMARK  status: ('A' for Active; 'I' for Inactive)
REMARK    1  A    between atoms: C3_3  and  O1_4 
REMARK    2  A    between atoms: O1_4  and  C4_5 
REMARK    3  A    between atoms: C4_5  and  C5_7 
REMARK    4  A    between atoms: C5_7  and  C6_8 
ROOT
HETATM    1  C1  LIG X 999       2.760  -4.573   0.304  1.00  0.00     0.014 C 
HETATM    2  C2  LIG X 999       1.997  -3.907  -0.350  1.00  0.00    -0.091 C 
HETATM    3  C3  LIG X 999       1.071  -3.099  -1.143  1.00  0.00     0.271 C 
ENDROOT
BRANCH   3   4
HETATM    4  O1  LIG X 999       1.241  -1.727  -0.806  1.00  0.00    -0.309 OA
BRANCH   4   5
HETATM    5  C4  LIG X 999       0.477  -0.709  -1.383  1.00  0.00     0.263 C 
HETATM    6  O2  LIG X 999      -0.401  -0.975  -2.249  1.00  0.00    -0.265 OA
BRANCH   5   7
HETATM    7  C5  LIG X 999       0.678   0.706  -0.941  1.00  0.00     0.150 C 
BRANCH   7   8
HETATM    8  C6  LIG X 999      -0.398   1.107   0.045  1.00  0.00    -0.038 A 
HETATM    9  C7  LIG X 999      -1.508   1.818  -0.444  1.00  0.00     0.008 A 
HETATM   10  C8  LIG X 999      -2.546   2.200   0.404  1.00  0.00     0.001 A 
HETATM   11  C9  LIG X 999      -2.504   1.873   1.757  1.00  0.00     0.012 A 
HETATM   12  C10 LIG X 999      -1.421   1.152   2.277  1.00  0.00    -0.025 A 
HETATM   13  C11 LIG X 999      -1.395   0.818   3.640  1.00  0.00     0.012 A 
HETATM   14  C15 LIG X 999      -0.353   0.756   1.424  1.00  0.00    -0.019 A 
HETATM   15  C12 LIG X 999      -0.327   0.093   4.167  1.00  0.00     0.001 A 
HETATM   16  C13 LIG X 999       0.723  -0.305   3.342  1.00  0.00     0.001 A 
HETATM   17  C14 LIG X 999       0.716   0.021   1.984  1.00  0.00     0.013 A 
ENDBRANCH   7   8
ENDBRANCH   5   7
ENDBRANCH   4   5
ENDBRANCH   3   4
TORSDOF 4
