REMARK  7 active torsions:
REMARK  status: ('A' for Active; 'I' for Inactive)
REMARK    1  A    between atoms: C3_3  and  O1_4 
REMARK    2  A    between atoms: C3_3  and  C8_14 
REMARK    3  A    between atoms: C3_3  and  C18_24 
REMARK    4  A    between atoms: O1_4  and  C4_5 
REMARK    5  A    between atoms: C4_5  and  C5_7 
REMARK    6  A    between atoms: C5_7  and  C6_8 
REMARK    7  A    between atoms: C7_11  and  N3_12 
ROOT
HETATM    1  C1  LIG X 999       0.066   4.508   0.481  1.00  0.00     0.015 C 
HETATM    2  C2  LIG X 999       0.070   3.355   0.833  1.00  0.00    -0.072 C 
HETATM    3  C3  LIG X 999       0.080   1.933   1.266  1.00  0.00     0.166 C 
ENDROOT
BRANCH   3   4
HETATM    4  O1  LIG X 999       1.402   1.419   1.028  1.00  0.00    -0.291 OA
BRANCH   4   5
HETATM    5  C4  LIG X 999       2.038   1.366  -0.223  1.00  0.00     0.268 C 
HETATM    6  O2  LIG X 999       1.501   1.871  -1.247  1.00  0.00    -0.265 OA
BRANCH   5   7
HETATM    7  C5  LIG X 999       3.326   0.624  -0.353  1.00  0.00     0.194 C 
BRANCH   7   8
HETATM    8  C6  LIG X 999       3.044  -0.840  -0.449  1.00  0.00     0.177 A 
HETATM    9  N1  LIG X 999       3.057  -1.671   0.610  1.00  0.00    -0.117 NA
HETATM   10  N2  LIG X 999       2.677  -2.856   0.165  1.00  0.00     0.045 NA
HETATM   11  C7  LIG X 999       2.436  -2.704  -1.149  1.00  0.00     0.740 A 
HETATM   12  N4  LIG X 999       2.643  -1.447  -1.584  1.00  0.00    -0.044 NA
BRANCH  11  13
HETATM   13  N3  LIG X 999       1.980  -3.759  -1.990  1.00  0.00    -0.230 N 
HETATM   14  H4  LIG X 999       1.818  -4.713  -1.598  1.00  0.00     0.174 HD
HETATM   15  H5  LIG X 999       1.792  -3.582  -3.001  1.00  0.00     0.174 HD
ENDBRANCH  11  13
ENDBRANCH   7   8
ENDBRANCH   5   7
ENDBRANCH   4   5
ENDBRANCH   3   4
BRANCH   3  16
HETATM   16  C8  LIG X 999      -0.945   1.122   0.449  1.00  0.00    -0.009 A 
HETATM   17  C9  LIG X 999      -2.156   1.695   0.004  1.00  0.00     0.012 A 
HETATM   18  C10 LIG X 999      -3.080   0.948  -0.730  1.00  0.00     0.013 A 
HETATM   19  C11 LIG X 999      -2.826  -0.396  -1.026  1.00  0.00    -0.026 A 
HETATM   20  C12 LIG X 999      -3.747  -1.154  -1.766  1.00  0.00     0.012 A 
HETATM   21  C16 LIG X 999      -1.631  -0.998  -0.568  1.00  0.00    -0.025 A 
HETATM   22  C13 LIG X 999      -3.484  -2.498  -2.048  1.00  0.00     0.001 A 
HETATM   23  C14 LIG X 999      -2.305  -3.094  -1.592  1.00  0.00     0.001 A 
HETATM   24  C15 LIG X 999      -1.381  -2.350  -0.853  1.00  0.00     0.012 A 
HETATM   25  C17 LIG X 999      -0.709  -0.241   0.167  1.00  0.00     0.023 A 
ENDBRANCH   3  16
BRANCH   3  26
HETATM   26  C18 LIG X 999      -0.210   1.839   2.821  1.00  0.00    -0.003 C 
HETATM   27  C19 LIG X 999      -0.145   0.371   3.308  1.00  0.00     0.019 C 
HETATM   28  C20 LIG X 999       0.855   2.638   3.617  1.00  0.00     0.019 C 
HETATM   29  C21 LIG X 999      -1.605   2.404   3.185  1.00  0.00     0.019 C 
ENDBRANCH   3  26
TORSDOF 7
