REMARK  2 active torsions:
REMARK  status: ('A' for Active; 'I' for Inactive)
REMARK       I    between atoms: N1_1  and  C1_2 
REMARK    1  A    between atoms: C1_2  and  C2_4 
REMARK    2  A    between atoms: C11_13  and  O2_14 
ROOT
HETATM    1  C2  LIG X 999       1.556  -0.402  -0.700  1.00  0.00     0.116 C 
HETATM    2  C3  LIG X 999       2.645   0.470  -1.371  1.00  0.00     0.017 C 
HETATM    3  C4  LIG X 999       2.091   1.272  -2.560  1.00  0.00     0.002 C 
HETATM    4  C5  LIG X 999       0.863   2.107  -2.164  1.00  0.00     0.012 C 
HETATM    5  C6  LIG X 999      -0.205   1.199  -1.538  1.00  0.00     0.047 C 
HETATM    6  C7  LIG X 999      -1.490   1.925  -1.222  1.00  0.00    -0.019 C 
HETATM    7  C8  LIG X 999      -2.379   1.351  -0.402  1.00  0.00    -0.004 C 
HETATM    8  C9  LIG X 999      -2.045   0.090   0.298  1.00  0.00    -0.001 C 
HETATM    9  C10 LIG X 999      -0.782  -0.364   0.323  1.00  0.00     0.012 C 
HETATM   10  C11 LIG X 999       0.344   0.474  -0.272  1.00  0.00     0.095 C 
ENDROOT
BRANCH   1  11
HETATM   11  C1  LIG X 999       2.150  -1.163   0.464  1.00  0.00     0.222 C 
HETATM   12  N1  LIG X 999       2.032  -2.585   0.534  1.00  0.00    -0.370 N 
HETATM   13  H1  LIG X 999       1.533  -3.120  -0.211  1.00  0.00     0.159 HD
HETATM   14  H2  LIG X 999       2.440  -3.107   1.341  1.00  0.00     0.159 HD
HETATM   15  O1  LIG X 999       2.742  -0.546   1.390  1.00  0.00    -0.273 OA
ENDBRANCH   1  11
BRANCH  10  16
HETATM   16  O2  LIG X 999       0.785   1.412   0.689  1.00  0.00    -0.384 OA
HETATM   17  H15 LIG X 999       0.013   1.962   0.981  1.00  0.00     0.211 HD
ENDBRANCH  10  16
TORSDOF 2
