REMARK  1 active torsions:
REMARK  status: ('A' for Active; 'I' for Inactive)
REMARK    1  A    between atoms: C2_5  and  C3_6 
ROOT
HETATM    1  C3  LIG X 999      -0.358   0.416   0.547  1.00  0.00     0.028 A 
HETATM    2  C4  LIG X 999      -0.513   0.170   1.920  1.00  0.00     0.017 A 
HETATM    3  C5  LIG X 999      -0.669  -1.129   2.401  1.00  0.00     0.002 A 
HETATM    4  C6  LIG X 999      -0.665  -2.209   1.520  1.00  0.00     0.012 A 
HETATM    5  C7  LIG X 999      -0.477  -2.000   0.147  1.00  0.00    -0.025 A 
HETATM    6  C8  LIG X 999      -0.442  -3.097  -0.729  1.00  0.00     0.012 A 
HETATM    7  C9  LIG X 999      -0.212  -2.903  -2.091  1.00  0.00     0.001 A 
HETATM    8  C10 LIG X 999      -0.001  -1.617  -2.588  1.00  0.00     0.001 A 
HETATM    9  C11 LIG X 999      -0.037  -0.514  -1.732  1.00  0.00     0.013 A 
HETATM   10  C12 LIG X 999      -0.303  -0.681  -0.355  1.00  0.00    -0.011 A 
ENDROOT
BRANCH   1  11
HETATM   11  C2  LIG X 999      -0.281   1.826   0.111  1.00  0.00     0.177 A 
HETATM   12  O1  LIG X 999       0.433   2.750   0.721  1.00  0.00    -0.258 OA
HETATM   13  C1  LIG X 999       0.190   3.855   0.052  1.00  0.00     0.260 A 
HETATM   14  N1  LIG X 999       0.708   5.006   0.333  1.00  0.00    -0.261 NA
HETATM   15  N3  LIG X 999      -0.668   3.645  -0.958  1.00  0.00    -0.262 N 
HETATM   16  H1  LIG X 999       1.370   5.114   1.134  1.00  0.00     0.190 HD
HETATM   17  N2  LIG X 999      -0.972   2.360  -0.919  1.00  0.00    -0.276 N 
HETATM   18  H10 LIG X 999      -1.048   4.340  -1.639  1.00  0.00     0.190 HD
HETATM   19  H9  LIG X 999      -1.653   1.885  -1.552  1.00  0.00     0.189 HD
ENDBRANCH   1  11
TORSDOF 1
