REMARK  10 active torsions:
REMARK  status: ('A' for Active; 'I' for Inactive)
REMARK    1  A    between atoms: O1_2  and  C1_3 
REMARK    2  A    between atoms: C1_3  and  O2_4 
REMARK    3  A    between atoms: O2_4  and  C2_5 
REMARK    4  A    between atoms: C2_5  and  C3_6 
REMARK    5  A    between atoms: C3_6  and  C4_7 
REMARK    6  A    between atoms: N1_9  and  C6_10 
REMARK    7  A    between atoms: C6_10  and  C7_11 
REMARK    8  A    between atoms: C7_11  and  C8_12 
REMARK       I    between atoms: C8_12  and  N2_14 
REMARK    9  A    between atoms: N2_14  and  N3_15 
REMARK   10  A    between atoms: C12_22  and  C13_23 
ROOT
HETATM    1  C2  LIG X 999       0.833  -0.619   3.505  1.00  0.00     0.184 C 
ENDROOT
BRANCH   1   2
HETATM    2  O2  LIG X 999       1.023   0.542   2.698  1.00  0.00    -0.330 OA
BRANCH   2   3
HETATM    3  C1  LIG X 999       0.748   1.856   3.109  1.00  0.00     0.178 C 
HETATM    4  C12 LIG X 999       0.670   2.829   2.198  1.00  0.00     0.075 C 
BRANCH   3   5
HETATM    5  O1  LIG X 999       0.524   2.173   4.449  1.00  0.00    -0.341 OA
HETATM    6  H1  LIG X 999       0.605   1.492   5.191  1.00  0.00     0.220 HD
ENDBRANCH   3   5
BRANCH   4   7
HETATM    7  C13 LIG X 999       0.903   2.582   0.759  1.00  0.00    -0.021 A 
HETATM    8  C14 LIG X 999       2.161   2.108   0.351  1.00  0.00     0.012 A 
HETATM    9  C15 LIG X 999       2.439   1.900  -0.999  1.00  0.00     0.002 A 
HETATM   10  C16 LIG X 999       1.461   2.138  -1.963  1.00  0.00     0.012 A 
HETATM   11  C17 LIG X 999       0.193   2.595  -1.585  1.00  0.00    -0.025 A 
HETATM   12  C18 LIG X 999      -0.794   2.813  -2.559  1.00  0.00     0.012 A 
HETATM   13  C22 LIG X 999      -0.095   2.839  -0.215  1.00  0.00    -0.015 A 
HETATM   14  C19 LIG X 999      -2.060   3.269  -2.187  1.00  0.00     0.001 A 
HETATM   15  C20 LIG X 999      -2.350   3.517  -0.845  1.00  0.00     0.001 A 
HETATM   16  C21 LIG X 999      -1.379   3.308   0.137  1.00  0.00     0.013 A 
ENDBRANCH   4   7
ENDBRANCH   2   3
ENDBRANCH   1   2
BRANCH   1  17
HETATM   17  C3  LIG X 999      -0.653  -0.873   3.779  1.00  0.00     0.086 C 
BRANCH  17  18
HETATM   18  C4  LIG X 999      -1.433  -1.026   2.507  1.00  0.00     0.042 A 
HETATM   19  C5  LIG X 999      -1.832  -2.203   1.908  1.00  0.00     0.134 A 
HETATM   20  N1  LIG X 999      -2.531  -1.848   0.810  1.00  0.00    -0.284 N 
HETATM   21  N4  LIG X 999      -2.568  -0.526   0.740  1.00  0.00    -0.021 NA
HETATM   22  N5  LIG X 999      -1.897  -0.009   1.757  1.00  0.00    -0.287 N 
HETATM   23  H17 LIG X 999      -1.794   1.013   1.943  1.00  0.00     0.184 HD
BRANCH  20  24
HETATM   24  C6  LIG X 999      -3.254  -2.737  -0.096  1.00  0.00     0.155 C 
BRANCH  24  25
HETATM   25  C7  LIG X 999      -2.314  -3.733  -0.780  1.00  0.00     0.128 C 
BRANCH  25  26
HETATM   26  C8  LIG X 999      -1.335  -3.042  -1.676  1.00  0.00     0.263 C 
HETATM   27  O3  LIG X 999      -1.619  -2.848  -2.890  1.00  0.00    -0.270 OA
HETATM   28  N2  LIG X 999      -0.087  -2.594  -1.152  1.00  0.00    -0.112 NA
BRANCH  28  29
HETATM   29  N3  LIG X 999       0.925  -2.123  -2.001  1.00  0.00    -0.157 NA
HETATM   30  C9  LIG X 999       2.053  -1.665  -1.548  1.00  0.00     0.027 C 
HETATM   31  C10 LIG X 999       3.097  -1.241  -2.534  1.00  0.00     0.067 C 
HETATM   32  C11 LIG X 999       2.312  -1.574  -0.069  1.00  0.00     0.067 C 
ENDBRANCH  28  29
ENDBRANCH  25  26
ENDBRANCH  24  25
ENDBRANCH  20  24
ENDBRANCH  17  18
ENDBRANCH   1  17
TORSDOF 10
