REMARK  8 active torsions:
REMARK  status: ('A' for Active; 'I' for Inactive)
REMARK    1  A    between atoms: O1_2  and  C2_3 
REMARK    2  A    between atoms: C7_8  and  C8_9 
REMARK    3  A    between atoms: N3_14  and  C11_15 
REMARK    4  A    between atoms: C16_20  and  C17_21 
REMARK    5  A    between atoms: C17_21  and  O2_22 
REMARK    6  A    between atoms: O2_22  and  C18_23 
REMARK    7  A    between atoms: C18_23  and  C19_24 
REMARK    8  A    between atoms: C18_23  and  C20_26 
ROOT
HETATM    1  C8  LIG X 999      -0.440  -1.276   1.861  1.00  0.00     0.088 A 
HETATM    2  C9  LIG X 999      -0.172  -2.520   2.407  1.00  0.00     0.049 A 
HETATM    3  C10 LIG X 999       1.156  -3.099   2.778  1.00  0.00     0.072 C 
HETATM    4  N1  LIG X 999      -1.350  -3.154   2.554  1.00  0.00    -0.286 N 
HETATM    5  N2  LIG X 999      -2.307  -2.355   2.110  1.00  0.00    -0.014 NA
HETATM    6  N3  LIG X 999      -1.779  -1.219   1.680  1.00  0.00    -0.237 N 
HETATM    7  H10 LIG X 999      -1.507  -4.111   2.940  1.00  0.00     0.184 HD
ENDROOT
BRANCH   6   8
HETATM    8  C11 LIG X 999      -2.552  -0.112   1.193  1.00  0.00     0.063 A 
HETATM    9  C12 LIG X 999      -2.488   1.119   1.863  1.00  0.00     0.032 A 
HETATM   10  C13 LIG X 999      -3.223   2.213   1.403  1.00  0.00     0.002 A 
HETATM   11  C14 LIG X 999      -4.025   2.089   0.269  1.00  0.00     0.001 A 
HETATM   12  C15 LIG X 999      -4.090   0.872  -0.415  1.00  0.00     0.012 A 
HETATM   13  C16 LIG X 999      -3.354  -0.239   0.035  1.00  0.00    -0.006 A 
BRANCH  13  14
HETATM   14  C17 LIG X 999      -3.380  -1.522  -0.756  1.00  0.00     0.209 C 
BRANCH  14  15
HETATM   15  O2  LIG X 999      -2.059  -1.848  -1.138  1.00  0.00    -0.378 OA
BRANCH  15  16
HETATM   16  C18 LIG X 999      -2.035  -2.967  -2.005  1.00  0.00     0.164 C 
BRANCH  16  17
HETATM   17  C19 LIG X 999      -0.855  -3.862  -1.615  1.00  0.00     0.255 C 
HETATM   18  F1  LIG X 999      -1.049  -4.361  -0.340  1.00  0.00    -0.253 F 
ENDBRANCH  16  17
BRANCH  16  19
HETATM   19  C20 LIG X 999      -1.909  -2.491  -3.461  1.00  0.00     0.148 C 
HETATM   20 CL1  LIG X 999      -0.540  -1.363  -3.681  1.00  0.00    -0.128 Cl
ENDBRANCH  16  19
ENDBRANCH  15  16
ENDBRANCH  14  15
ENDBRANCH  13  14
ENDBRANCH   6   8
BRANCH   1  21
HETATM   21  C7  LIG X 999       0.533  -0.231   1.473  1.00  0.00    -0.005 A 
HETATM   22  C6  LIG X 999       0.446   0.382   0.212  1.00  0.00     0.026 A 
HETATM   23  C5  LIG X 999       1.361   1.377  -0.159  1.00  0.00    -0.025 A 
HETATM   24  C4  LIG X 999       1.276   1.990  -1.417  1.00  0.00     0.015 A 
HETATM   25  C23 LIG X 999       2.380   1.765   0.741  1.00  0.00    -0.023 A 
HETATM   26  C3  LIG X 999       2.192   2.981  -1.778  1.00  0.00     0.037 A 
HETATM   27  C2  LIG X 999       3.205   3.375  -0.896  1.00  0.00     0.069 A 
HETATM   28  C24 LIG X 999       3.296   2.762   0.369  1.00  0.00     0.049 A 
HETATM   29  C22 LIG X 999       2.465   1.149   1.998  1.00  0.00     0.013 A 
HETATM   30  C21 LIG X 999       1.548   0.158   2.360  1.00  0.00     0.014 A 
BRANCH  27  31
HETATM   31  O1  LIG X 999       4.096   4.375  -1.313  1.00  0.00    -0.356 OA
HETATM   32  C1  LIG X 999       5.171   4.875  -0.524  1.00  0.00     0.210 C 
ENDBRANCH  27  31
ENDBRANCH   1  21
TORSDOF 8
