REMARK  1 active torsions:
REMARK  status: ('A' for Active; 'I' for Inactive)
REMARK    1  A    between atoms: C4_4  and  N1_5 
ROOT
HETATM    1  C1  LIG X 999       1.853  -0.053   1.470  1.00  0.00     0.049 C 
HETATM    2  C2  LIG X 999       0.987  -0.381   0.278  1.00  0.00    -0.045 C 
HETATM    3  C3  LIG X 999       0.622  -1.729   0.134  1.00  0.00     0.057 C 
HETATM    4  C4  LIG X 999      -0.381  -2.094  -0.761  1.00  0.00     0.122 C 
HETATM    5  N2  LIG X 999      -1.027  -1.137  -1.469  1.00  0.00    -0.231 NA
HETATM    6  C5  LIG X 999      -0.682   0.174  -1.401  1.00  0.00     0.070 C 
HETATM    7  C6  LIG X 999      -1.446   1.098  -2.114  1.00  0.00     0.033 C 
HETATM    8  C7  LIG X 999      -1.140   2.451  -2.070  1.00  0.00     0.014 C 
HETATM    9  C8  LIG X 999       0.004   2.893  -1.401  1.00  0.00    -0.025 C 
HETATM   10  C9  LIG X 999       0.350   4.253  -1.462  1.00  0.00     0.012 C 
HETATM   11  C10 LIG X 999       1.552   4.699  -0.917  1.00  0.00     0.001 C 
HETATM   12  C11 LIG X 999       2.435   3.787  -0.346  1.00  0.00     0.001 C 
HETATM   13  C12 LIG X 999       2.098   2.434  -0.266  1.00  0.00     0.013 C 
HETATM   14  C13 LIG X 999       0.840   1.965  -0.712  1.00  0.00    -0.013 C 
HETATM   15  C14 LIG X 999       0.418   0.597  -0.601  1.00  0.00     0.010 C 
ENDROOT
BRANCH   4  16
HETATM   16  N1  LIG X 999      -0.775  -3.460  -0.892  1.00  0.00    -0.384 N 
HETATM   17  H5  LIG X 999      -0.303  -4.211  -0.341  1.00  0.00     0.157 HD
HETATM   18  H6  LIG X 999      -1.544  -3.724  -1.548  1.00  0.00     0.157 HD
ENDBRANCH   4  16
TORSDOF 1
