REMARK  3 active torsions:
REMARK  status: ('A' for Active; 'I' for Inactive)
REMARK       I    between atoms: N1_2  and  C3_4 
REMARK    1  A    between atoms: C3_4  and  O2_6 
REMARK    2  A    between atoms: O2_6  and  C4_7 
REMARK    3  A    between atoms: C7_10  and  N2_11 
ROOT
HETATM    1  C4  LIG X 999       0.527  -1.080   0.059  1.00  0.00     0.092 A 
HETATM    2  C5  LIG X 999       0.054  -2.390   0.106  1.00  0.00     0.040 A 
HETATM    3  C6  LIG X 999      -1.190  -2.714  -0.428  1.00  0.00     0.033 A 
HETATM    4  C7  LIG X 999      -1.994  -1.737  -1.030  1.00  0.00     0.037 A 
HETATM    5  C8  LIG X 999      -1.509  -0.404  -1.137  1.00  0.00     0.003 A 
HETATM    6  C9  LIG X 999      -2.238   0.609  -1.799  1.00  0.00     0.014 A 
HETATM    7  C10 LIG X 999      -1.726   1.903  -1.904  1.00  0.00     0.001 A 
HETATM    8  C11 LIG X 999      -0.479   2.212  -1.370  1.00  0.00     0.001 A 
HETATM    9  C12 LIG X 999       0.268   1.229  -0.723  1.00  0.00     0.015 A 
HETATM   10  C13 LIG X 999      -0.234  -0.080  -0.587  1.00  0.00     0.010 A 
ENDROOT
BRANCH   1  11
HETATM   11  O2  LIG X 999       1.765  -0.803   0.650  1.00  0.00    -0.255 OA
BRANCH  11  12
HETATM   12  C3  LIG X 999       1.903  -0.006   1.795  1.00  0.00     0.461 C 
HETATM   13  N1  LIG X 999       3.215   0.305   2.302  1.00  0.00     0.009 N 
HETATM   14  C1  LIG X 999       3.965   1.086   1.307  1.00  0.00     0.282 C 
HETATM   15  C2  LIG X 999       3.931  -0.934   2.641  1.00  0.00     0.282 C 
HETATM   16  H4  LIG X 999       3.125   0.881   3.173  1.00  0.00     0.292 HD
HETATM   17  O1  LIG X 999       0.880   0.436   2.389  1.00  0.00    -0.230 OA
ENDBRANCH  11  12
ENDBRANCH   1  11
BRANCH   4  18
HETATM   18  N2  LIG X 999      -3.288  -2.132  -1.512  1.00  0.00    -0.398 N 
HETATM   19  H10 LIG X 999      -3.557  -3.141  -1.526  1.00  0.00     0.156 HD
HETATM   20  H11 LIG X 999      -4.039  -1.452  -1.756  1.00  0.00     0.156 HD
ENDBRANCH   4  18
TORSDOF 3
