REMARK  3 active torsions:
REMARK  status: ('A' for Active; 'I' for Inactive)
REMARK    1  A    between atoms: C2_2  and  N1_3 
REMARK       I    between atoms: N2_8  and  C7_9 
REMARK    2  A    between atoms: C7_9  and  C8_11 
REMARK    3  A    between atoms: C9_12  and  C10_13 
ROOT
HETATM    1  C8  LIG X 999      -0.818   1.526   0.064  1.00  0.00     0.001 C 
HETATM    2  C9  LIG X 999       0.256   2.017   0.306  1.00  0.00    -0.057 C 
ENDROOT
BRANCH   1   3
HETATM    3  C7  LIG X 999      -2.097   0.934  -0.229  1.00  0.00     0.313 C 
HETATM    4  N2  LIG X 999      -2.205  -0.188  -1.121  1.00  0.00    -0.269 N 
HETATM    5  N1  LIG X 999      -3.449  -0.782  -1.407  1.00  0.00    -0.226 NA
HETATM    6  C6  LIG X 999      -1.049  -0.937  -1.584  1.00  0.00     0.153 C 
HETATM    7  C3  LIG X 999      -3.110  -2.136  -1.881  1.00  0.00     0.119 C 
HETATM    8  C4  LIG X 999      -1.649  -2.107  -2.344  1.00  0.00     0.016 C 
HETATM    9  C5  LIG X 999      -0.917  -3.428  -2.085  1.00  0.00     0.013 C 
HETATM   10  O1  LIG X 999      -3.129   1.414   0.308  1.00  0.00    -0.257 OA
BRANCH   5  11
HETATM   11  C2  LIG X 999      -4.114   0.010  -2.463  1.00  0.00     0.109 C 
HETATM   12  C1  LIG X 999      -5.614  -0.267  -2.470  1.00  0.00     0.023 C 
ENDBRANCH   5  11
ENDBRANCH   1   3
BRANCH   2  13
HETATM   13  C10 LIG X 999       1.539   2.601   0.592  1.00  0.00     0.019 A 
HETATM   14  C11 LIG X 999       2.176   3.397  -0.368  1.00  0.00     0.021 A 
HETATM   15  C12 LIG X 999       3.423   3.966  -0.098  1.00  0.00     0.013 A 
HETATM   16  C13 LIG X 999       4.047   3.743   1.139  1.00  0.00    -0.026 A 
HETATM   17  C14 LIG X 999       5.300   4.309   1.422  1.00  0.00     0.012 A 
HETATM   18  C18 LIG X 999       3.405   2.938   2.113  1.00  0.00    -0.025 A 
HETATM   19  C15 LIG X 999       5.910   4.079   2.658  1.00  0.00     0.001 A 
HETATM   20  C16 LIG X 999       5.278   3.284   3.619  1.00  0.00     0.001 A 
HETATM   21  C17 LIG X 999       4.030   2.715   3.350  1.00  0.00     0.012 A 
HETATM   22  C19 LIG X 999       2.153   2.371   1.831  1.00  0.00     0.032 A 
ENDBRANCH   2  13
TORSDOF 3
