REMARK  1 active torsions:
REMARK  status: ('A' for Active; 'I' for Inactive)
REMARK    1  A    between atoms: C9_10  and  N2_11 
ROOT
HETATM    1  C1  LIG X 999       2.228  -2.542   2.093  1.00  0.00     0.272 C 
HETATM    2  N1  LIG X 999       1.082  -1.665   2.435  1.00  0.00    -0.067 N 
HETATM    3  C2  LIG X 999       0.998  -1.534   3.907  1.00  0.00     0.272 C 
HETATM    4  C3  LIG X 999      -0.186  -2.242   1.883  1.00  0.00     0.276 C 
HETATM    5  C4  LIG X 999      -0.575  -1.352   0.767  1.00  0.00    -0.024 A 
HETATM    6  C5  LIG X 999      -1.630  -1.517  -0.131  1.00  0.00     0.021 A 
HETATM    7  C6  LIG X 999      -1.840  -0.529  -1.113  1.00  0.00    -0.025 A 
HETATM    8  C7  LIG X 999      -2.885  -0.654  -2.039  1.00  0.00     0.014 A 
HETATM    9  C8  LIG X 999      -3.087   0.333  -3.008  1.00  0.00     0.030 A 
HETATM   10  C9  LIG X 999      -2.249   1.456  -3.066  1.00  0.00     0.026 A 
HETATM   11  C10 LIG X 999      -1.201   1.592  -2.144  1.00  0.00     0.041 A 
HETATM   12  C11 LIG X 999      -0.986   0.609  -1.167  1.00  0.00    -0.023 A 
HETATM   13  C12 LIG X 999       0.064   0.741  -0.236  1.00  0.00     0.021 A 
HETATM   14  C13 LIG X 999       0.242  -0.264   0.716  1.00  0.00    -0.024 A 
HETATM   15  C14 LIG X 999       1.254  -0.323   1.793  1.00  0.00     0.276 C 
ENDROOT
BRANCH  10  16
HETATM   16  N2  LIG X 999      -2.464   2.460  -4.061  1.00  0.00    -0.399 N 
HETATM   17  H12 LIG X 999      -3.241   2.370  -4.753  1.00  0.00     0.156 HD
HETATM   18  H13 LIG X 999      -1.847   3.301  -4.115  1.00  0.00     0.156 HD
ENDBRANCH  10  16
TORSDOF 1
