REMARK  7 active torsions:
REMARK  status: ('A' for Active; 'I' for Inactive)
REMARK    1  A    between atoms: N1_2  and  C2_3 
REMARK    2  A    between atoms: C2_3  and  C4_5 
REMARK    3  A    between atoms: C4_5  and  C5_6 
REMARK    4  A    between atoms: C5_6  and  C6_7 
REMARK    5  A    between atoms: C6_7  and  C7_8 
REMARK    6  A    between atoms: C7_8  and  N2_9 
REMARK    7  A    between atoms: N2_9  and  C8_10 
ROOT
HETATM    1  C8  LIG X 999      -2.658   0.248   1.681  1.00  0.00     0.204 C 
HETATM    2  C9  LIG X 999      -3.317   0.276   0.450  1.00  0.00     0.063 C 
HETATM    3  C10 LIG X 999      -2.923   1.175  -0.548  1.00  0.00    -0.045 C 
HETATM    4  C11 LIG X 999      -3.872   1.334  -1.710  1.00  0.00     0.049 C 
HETATM    5  C12 LIG X 999      -1.743   1.960  -0.355  1.00  0.00     0.008 C 
HETATM    6  C13 LIG X 999      -1.205   1.996   0.964  1.00  0.00     0.045 C 
HETATM    7  C14 LIG X 999      -0.201   2.913   1.295  1.00  0.00     0.031 C 
HETATM    8  C15 LIG X 999       0.305   3.785   0.342  1.00  0.00     0.014 C 
HETATM    9  C16 LIG X 999      -0.102   3.688  -0.990  1.00  0.00    -0.025 C 
HETATM   10  C17 LIG X 999       0.510   4.505  -1.954  1.00  0.00     0.012 C 
HETATM   11  C18 LIG X 999       0.222   4.335  -3.306  1.00  0.00     0.001 C 
HETATM   12  C19 LIG X 999      -0.647   3.326  -3.708  1.00  0.00     0.001 C 
HETATM   13  C20 LIG X 999      -1.276   2.517  -2.759  1.00  0.00     0.013 C 
HETATM   14  C21 LIG X 999      -1.085   2.730  -1.373  1.00  0.00    -0.013 C 
HETATM   15  N3  LIG X 999      -1.664   1.143   1.926  1.00  0.00    -0.336 N 
HETATM   16  H29 LIG X 999      -1.222   1.155   2.874  1.00  0.00     0.167 HD
ENDROOT
BRANCH   1  17
HETATM   17  N2  LIG X 999      -3.015  -0.738   2.675  1.00  0.00    -0.030 N 
HETATM   18  H17 LIG X 999      -4.056  -0.850   2.689  1.00  0.00     0.285 HD
HETATM   19  H18 LIG X 999      -2.724  -0.423   3.630  1.00  0.00     0.285 HD
BRANCH  17  20
HETATM   20  C7  LIG X 999      -2.400  -2.040   2.361  1.00  0.00     0.240 C 
BRANCH  20  21
HETATM   21  C6  LIG X 999      -0.892  -2.056   2.687  1.00  0.00     0.028 C 
BRANCH  21  22
HETATM   22  C5  LIG X 999      -0.146  -3.251   2.066  1.00  0.00     0.004 C 
BRANCH  22  23
HETATM   23  C4  LIG X 999      -0.138  -3.300   0.520  1.00  0.00     0.035 C 
BRANCH  23  24
HETATM   24  C2  LIG X 999       0.262  -1.981  -0.199  1.00  0.00     0.216 C 
HETATM   25  C3  LIG X 999       1.681  -1.547   0.202  1.00  0.00     0.042 C 
BRANCH  24  26
HETATM   26  N1  LIG X 999       0.214  -2.167  -1.665  1.00  0.00     0.083 N 
HETATM   27  C1  LIG X 999      -0.139  -0.922  -2.356  1.00  0.00     0.307 C 
HETATM   28  H4  LIG X 999      -0.528  -2.861  -1.918  1.00  0.00     0.315 HD
ENDBRANCH  24  26
ENDBRANCH  23  24
ENDBRANCH  22  23
ENDBRANCH  21  22
ENDBRANCH  20  21
ENDBRANCH  17  20
ENDBRANCH   1  17
TORSDOF 7
