REMARK  7 active torsions:
REMARK  status: ('A' for Active; 'I' for Inactive)
REMARK    1  A    between atoms: C6_6  and  N1_7 
REMARK       I    between atoms: N1_7  and  C7_8 
REMARK    2  A    between atoms: C7_8  and  C8_10 
REMARK    3  A    between atoms: C8_10  and  N2_11 
REMARK    4  A    between atoms: C11_16  and  C12_17 
REMARK    5  A    between atoms: C12_17  and  O2_18 
REMARK    6  A    between atoms: O2_18  and  C13_19 
REMARK    7  A    between atoms: C22_28  and  N5_29 
ROOT
HETATM    1  N5  LIG X 999       1.176  -1.554   1.508  1.00  0.00    -0.069 NA
HETATM    2  N6  LIG X 999       0.058  -1.691   2.014  1.00  0.00    -0.162 NA
HETATM    3  N7  LIG X 999      -1.050  -1.835   2.529  1.00  0.00     0.068 N 
ENDROOT
BRANCH   1   4
HETATM    4  C22 LIG X 999       1.407  -1.006   0.188  1.00  0.00     0.137 A 
HETATM    5  C13 LIG X 999       0.346  -0.776  -0.731  1.00  0.00     0.101 A 
HETATM    6  C14 LIG X 999       0.625  -0.231  -2.003  1.00  0.00     0.040 A 
HETATM    7  C15 LIG X 999       1.925   0.111  -2.362  1.00  0.00     0.015 A 
HETATM    8  C16 LIG X 999       2.979  -0.083  -1.458  1.00  0.00    -0.023 A 
HETATM    9  C17 LIG X 999       4.285   0.303  -1.809  1.00  0.00     0.012 A 
HETATM   10  C21 LIG X 999       2.731  -0.665  -0.184  1.00  0.00     0.009 A 
HETATM   11  C18 LIG X 999       5.347   0.095  -0.913  1.00  0.00     0.001 A 
HETATM   12  C19 LIG X 999       5.115  -0.498   0.332  1.00  0.00     0.001 A 
HETATM   13  C20 LIG X 999       3.819  -0.877   0.699  1.00  0.00     0.015 A 
BRANCH   5  14
HETATM   14  O2  LIG X 999      -0.966  -1.096  -0.360  1.00  0.00    -0.343 OA
BRANCH  14  15
HETATM   15  C12 LIG X 999      -2.134  -0.747  -1.099  1.00  0.00     0.236 C 
BRANCH  15  16
HETATM   16  C11 LIG X 999      -3.334  -0.970  -0.235  1.00  0.00     0.077 A 
HETATM   17  N2  LIG X 999      -3.665  -0.238   0.847  1.00  0.00    -0.265 N 
HETATM   18  N3  LIG X 999      -4.746  -0.772   1.394  1.00  0.00     0.005 NA
HETATM   19  N4  LIG X 999      -5.129  -1.844   0.715  1.00  0.00    -0.163 NA
HETATM   20  C9  LIG X 999      -4.253  -1.997  -0.302  1.00  0.00     0.074 A 
HETATM   21  C10 LIG X 999      -4.301  -3.109  -1.302  1.00  0.00     0.074 C 
BRANCH  17  22
HETATM   22  C8  LIG X 999      -2.966   0.925   1.387  1.00  0.00     0.251 C 
BRANCH  22  23
HETATM   23  C7  LIG X 999      -3.360   2.167   0.637  1.00  0.00     0.263 C 
HETATM   24  N1  LIG X 999      -2.427   2.919  -0.147  1.00  0.00    -0.213 NA
HETATM   25  O1  LIG X 999      -4.569   2.529   0.653  1.00  0.00    -0.269 OA
BRANCH  24  26
HETATM   26  C6  LIG X 999      -0.999   2.920  -0.016  1.00  0.00     0.063 A 
HETATM   27  C1  LIG X 999      -0.211   3.044  -1.167  1.00  0.00     0.034 A 
HETATM   28  C2  LIG X 999       1.186   3.028  -1.076  1.00  0.00     0.042 A 
HETATM   29  C3  LIG X 999       1.798   2.900   0.174  1.00  0.00     0.102 A 
HETATM   30  C4  LIG X 999       1.016   2.812   1.330  1.00  0.00     0.104 A 
HETATM   31  O4  LIG X 999       3.187   2.850   0.294  1.00  0.00    -0.346 OA
HETATM   32  C5  LIG X 999      -0.377   2.847   1.242  1.00  0.00     0.071 A 
HETATM   33  O3  LIG X 999       1.646   2.680   2.573  1.00  0.00    -0.346 OA
HETATM   34  C23 LIG X 999       3.023   2.315   2.660  1.00  0.00     0.202 C 
HETATM   35  C24 LIG X 999       3.827   3.023   1.557  1.00  0.00     0.202 C 
ENDBRANCH  24  26
ENDBRANCH  22  23
ENDBRANCH  17  22
ENDBRANCH  15  16
ENDBRANCH  14  15
ENDBRANCH   5  14
ENDBRANCH   1   4
TORSDOF 7
