REMARK  4 active torsions:
REMARK  status: ('A' for Active; 'I' for Inactive)
REMARK    1  A    between atoms: C4_4  and  N1_5 
REMARK    2  A    between atoms: C7_10  and  S1_11 
REMARK    3  A    between atoms: S1_11  and  C8_12 
REMARK    4  A    between atoms: C8_12  and  C9_13 
ROOT
HETATM    1  N1  LIG X 999      -1.517  -2.369   1.450  1.00  0.00    -0.071 NA
HETATM    2  N2  LIG X 999      -2.584  -2.095   2.000  1.00  0.00    -0.162 NA
HETATM    3  N3  LIG X 999      -3.649  -1.833   2.558  1.00  0.00     0.068 N 
ENDROOT
BRANCH   1   4
HETATM    4  C4  LIG X 999      -0.851  -1.505   0.511  1.00  0.00     0.108 A 
HETATM    5  C3  LIG X 999      -1.409  -0.290   0.051  1.00  0.00     0.008 A 
HETATM    6  C2  LIG X 999      -0.722   0.523  -0.804  1.00  0.00    -0.021 A 
HETATM    7  C15 LIG X 999      -2.709   0.343   0.393  1.00  0.00     0.278 C 
HETATM    8  C1  LIG X 999       0.554   0.205  -1.254  1.00  0.00     0.018 A 
HETATM    9  C18 LIG X 999      -1.476   1.762  -1.087  1.00  0.00     0.276 C 
HETATM   10  C6  LIG X 999       1.149  -0.989  -0.816  1.00  0.00    -0.035 A 
HETATM   11  C5  LIG X 999       0.435  -1.869   0.033  1.00  0.00    -0.018 A 
HETATM   12  C7  LIG X 999       2.554  -1.340  -1.233  1.00  0.00     0.081 C 
HETATM   13  C14 LIG X 999       1.123  -3.129   0.515  1.00  0.00     0.042 C 
HETATM   14  C13 LIG X 999       2.056  -3.773  -0.539  1.00  0.00     0.006 C 
HETATM   15  C12 LIG X 999       2.587  -2.820  -1.635  1.00  0.00     0.020 C 
HETATM   16  N4  LIG X 999      -2.818   1.566  -0.463  1.00  0.00    -0.067 N 
HETATM   17  C16 LIG X 999      -3.194   2.745   0.351  1.00  0.00     0.272 C 
HETATM   18  C17 LIG X 999      -3.842   1.362  -1.516  1.00  0.00     0.272 C 
BRANCH  12  19
HETATM   19  S1  LIG X 999       3.759  -1.030   0.123  1.00  0.00    -0.147 SA
BRANCH  19  20
HETATM   20  C8  LIG X 999       3.656   0.793   0.139  1.00  0.00     0.168 C 
BRANCH  20  21
HETATM   21  C9  LIG X 999       2.557   1.222   1.007  1.00  0.00    -0.097 C 
HETATM   22  C10 LIG X 999       1.635   1.563   1.705  1.00  0.00    -0.110 C 
HETATM   23  C11 LIG X 999       0.501   1.966   2.536  1.00  0.00     0.112 C 
ENDBRANCH  20  21
ENDBRANCH  19  20
ENDBRANCH  12  19
ENDBRANCH   1   4
TORSDOF 4
