REMARK  7 active torsions:
REMARK  status: ('A' for Active; 'I' for Inactive)
REMARK    1  A    between atoms: C2_2  and  C3_3 
REMARK    2  A    between atoms: C3_3  and  N1_4 
REMARK    3  A    between atoms: N1_4  and  C5_6 
REMARK    4  A    between atoms: C5_6  and  C7_8 
REMARK    5  A    between atoms: C7_8  and  C8_9 
REMARK    6  A    between atoms: N4_12  and  C9_13 
REMARK    7  A    between atoms: C19_23  and  C20_24 
ROOT
HETATM    1  C8  LIG X 999      -1.372  -1.657   0.867  1.00  0.00     0.078 A 
HETATM    2  N2  LIG X 999      -0.258  -2.144   0.288  1.00  0.00    -0.163 NA
HETATM    3  N3  LIG X 999       0.004  -1.375  -0.758  1.00  0.00     0.005 NA
HETATM    4  N4  LIG X 999      -0.906  -0.418  -0.879  1.00  0.00    -0.271 N 
HETATM    5  C19 LIG X 999      -1.791  -0.557   0.136  1.00  0.00     0.053 A 
ENDROOT
BRANCH   4   6
HETATM    6  C9  LIG X 999      -0.845   0.645  -1.896  1.00  0.00     0.114 C 
HETATM    7  C10 LIG X 999      -0.177   0.137  -3.187  1.00  0.00     0.028 C 
HETATM    8  C11 LIG X 999      -0.270   1.177  -4.323  1.00  0.00     0.003 C 
HETATM    9  C12 LIG X 999      -0.309   2.635  -3.818  1.00  0.00     0.009 C 
HETATM   10  C13 LIG X 999       0.469   2.820  -2.502  1.00  0.00     0.018 C 
HETATM   11  C14 LIG X 999       1.945   2.570  -2.734  1.00  0.00    -0.021 C 
HETATM   12  C18 LIG X 999      -0.142   1.936  -1.360  1.00  0.00     0.040 C 
HETATM   13  C15 LIG X 999       2.730   2.065  -1.782  1.00  0.00    -0.004 C 
HETATM   14  C16 LIG X 999       2.181   1.655  -0.486  1.00  0.00    -0.004 C 
HETATM   15  C17 LIG X 999       0.866   1.640  -0.267  1.00  0.00    -0.019 C 
ENDBRANCH   4   6
BRANCH   5  16
HETATM   16  C20 LIG X 999      -2.975   0.334   0.422  1.00  0.00     0.056 C 
HETATM   17  C21 LIG X 999      -2.683   1.311   1.556  1.00  0.00     0.011 C 
ENDBRANCH   5  16
BRANCH   1  18
HETATM   18  C7  LIG X 999      -1.965  -2.215   2.131  1.00  0.00     0.098 C 
BRANCH  18  19
HETATM   19  C5  LIG X 999      -1.082  -1.891   3.353  1.00  0.00     0.224 C 
HETATM   20  C6  LIG X 999      -1.789  -2.308   4.660  1.00  0.00     0.043 C 
BRANCH  19  21
HETATM   21  N1  LIG X 999       0.279  -2.480   3.191  1.00  0.00     0.092 N 
HETATM   22  C4  LIG X 999       0.375  -3.904   3.565  1.00  0.00     0.310 C 
BRANCH  21  23
HETATM   23  C3  LIG X 999       1.325  -1.685   3.864  1.00  0.00     0.299 C 
BRANCH  23  24
HETATM   24  C2  LIG X 999       1.646  -0.461   3.048  1.00  0.00    -0.007 C 
HETATM   25  C1  LIG X 999       1.525   0.772   3.546  1.00  0.00     0.008 C 
ENDBRANCH  23  24
ENDBRANCH  21  23
ENDBRANCH  19  21
ENDBRANCH  18  19
ENDBRANCH   1  18
TORSDOF 7
