REMARK  5 active torsions:
REMARK  status: ('A' for Active; 'I' for Inactive)
REMARK    1  A    between atoms: C3_3  and  O1_4 
REMARK    2  A    between atoms: O1_4  and  C4_5 
REMARK    3  A    between atoms: C4_5  and  O2_6 
REMARK    4  A    between atoms: C5_8  and  C6_9 
REMARK    5  A    between atoms: C11_14  and  O3_15 
ROOT
HETATM    1  C1  LIG X 999      -3.918  -3.270  -0.490  1.00  0.00     0.014 C 
HETATM    2  C2  LIG X 999      -4.141  -2.193   0.004  1.00  0.00    -0.091 C 
HETATM    3  C3  LIG X 999      -4.409  -0.885   0.603  1.00  0.00     0.270 C 
ENDROOT
BRANCH   3   4
HETATM    4  O1  LIG X 999      -3.186  -0.175   0.739  1.00  0.00    -0.319 OA
BRANCH   4   5
HETATM    5  C4  LIG X 999      -3.123   1.118   1.267  1.00  0.00     0.179 C 
HETATM    6  C5  LIG X 999      -1.947   1.753   1.377  1.00  0.00     0.075 C 
BRANCH   5   7
HETATM    7  O2  LIG X 999      -4.293   1.738   1.710  1.00  0.00    -0.341 OA
HETATM    8  H4  LIG X 999      -4.291   2.672   2.105  1.00  0.00     0.220 HD
ENDBRANCH   5   7
BRANCH   6   9
HETATM    9  C6  LIG X 999      -0.653   1.185   0.933  1.00  0.00    -0.031 A 
HETATM   10  C7  LIG X 999       0.494   1.436   1.702  1.00  0.00     0.012 A 
HETATM   11  C8  LIG X 999       1.738   0.933   1.310  1.00  0.00     0.013 A 
HETATM   12  C9  LIG X 999       1.858   0.185   0.131  1.00  0.00    -0.023 A 
HETATM   13  C10 LIG X 999       3.103  -0.324  -0.269  1.00  0.00     0.049 A 
HETATM   14  C15 LIG X 999       0.714  -0.051  -0.666  1.00  0.00    -0.025 A 
HETATM   15  C11 LIG X 999       3.219  -1.067  -1.461  1.00  0.00     0.069 A 
HETATM   16  C13 LIG X 999       2.080  -1.290  -2.243  1.00  0.00     0.037 A 
HETATM   17  C14 LIG X 999       0.836  -0.787  -1.853  1.00  0.00     0.015 A 
HETATM   18  C16 LIG X 999      -0.531   0.459  -0.266  1.00  0.00     0.024 A 
BRANCH  15  19
HETATM   19  O3  LIG X 999       4.441  -1.596  -1.902  1.00  0.00    -0.356 OA
HETATM   20  C12 LIG X 999       5.678  -1.449  -1.212  1.00  0.00     0.210 C 
ENDBRANCH  15  19
ENDBRANCH   6   9
ENDBRANCH   4   5
ENDBRANCH   3   4
TORSDOF 5
