REMARK  6 active torsions:
REMARK  status: ('A' for Active; 'I' for Inactive)
REMARK    1  A    between atoms: C8_8  and  O1_9 
REMARK    2  A    between atoms: O1_9  and  C9_10 
REMARK    3  A    between atoms: C9_10  and  C10_11 
REMARK    4  A    between atoms: C10_11  and  C11_12 
REMARK    5  A    between atoms: C11_12  and  N1_13 
REMARK    6  A    between atoms: C13_18  and  N4_19 
ROOT
HETATM    1  N1  LIG X 999      -2.458  -2.667  -2.319  1.00  0.00    -0.116 NA
HETATM    2  N2  LIG X 999      -1.367  -3.200  -2.116  1.00  0.00    -0.168 NA
HETATM    3  N3  LIG X 999      -0.277  -3.732  -1.914  1.00  0.00     0.068 N 
ENDROOT
BRANCH   1   4
HETATM    4  C11 LIG X 999      -3.224  -2.080  -1.225  1.00  0.00     0.191 C 
BRANCH   4   5
HETATM    5  C10 LIG X 999      -3.487  -0.594  -1.491  1.00  0.00     0.051 C 
BRANCH   5   6
HETATM    6  C9  LIG X 999      -2.203   0.239  -1.479  1.00  0.00     0.170 C 
BRANCH   6   7
HETATM    7  O1  LIG X 999      -1.615   0.186  -0.195  1.00  0.00    -0.384 OA
BRANCH   7   8
HETATM    8  C8  LIG X 999      -0.315   0.752  -0.208  1.00  0.00     0.146 C 
HETATM    9  C7  LIG X 999      -0.097   1.504   1.114  1.00  0.00     0.072 C 
HETATM   10  C5  LIG X 999       1.349   1.854   1.378  1.00  0.00    -0.047 A 
HETATM   11  C4  LIG X 999       2.412   1.188   0.719  1.00  0.00    -0.023 A 
HETATM   12  C6  LIG X 999       1.639   2.775   2.398  1.00  0.00     0.008 A 
HETATM   13  C3  LIG X 999       3.737   1.478   1.087  1.00  0.00     0.010 A 
HETATM   14  C13 LIG X 999       2.159   0.233  -0.432  1.00  0.00     0.199 C 
HETATM   15  C2  LIG X 999       4.009   2.405   2.094  1.00  0.00     0.001 A 
HETATM   16  C1  LIG X 999       2.961   3.055   2.747  1.00  0.00     0.001 A 
HETATM   17  C12 LIG X 999       0.740  -0.361  -0.386  1.00  0.00     0.143 C 
HETATM   18 CL1  LIG X 999       0.617  -1.598   0.907  1.00  0.00    -0.120 Cl
BRANCH  14  19
HETATM   19  N4  LIG X 999       2.345   0.927  -1.705  1.00  0.00    -0.104 NA
HETATM   20  N5  LIG X 999       3.454   1.327  -2.062  1.00  0.00    -0.167 NA
HETATM   21  N6  LIG X 999       4.561   1.727  -2.419  1.00  0.00     0.068 N 
ENDBRANCH  14  19
ENDBRANCH   7   8
ENDBRANCH   6   7
ENDBRANCH   5   6
ENDBRANCH   4   5
ENDBRANCH   1   4
TORSDOF 6
