REMARK  2 active torsions:
REMARK  status: ('A' for Active; 'I' for Inactive)
REMARK    1  A    between atoms: C1_1  and  N1_14 
REMARK    2  A    between atoms: C2_2  and  C3_4 
ROOT
HETATM    1  C3  LIG X 999      -0.592   0.416  -0.021  1.00  0.00     0.003 A 
HETATM    2  C4  LIG X 999       0.356   1.448  -0.172  1.00  0.00     0.015 A 
HETATM    3  C5  LIG X 999       1.370   1.628   0.772  1.00  0.00     0.013 A 
HETATM    4  C6  LIG X 999       1.453   0.788   1.889  1.00  0.00    -0.026 A 
HETATM    5  C7  LIG X 999       2.469   0.962   2.843  1.00  0.00     0.012 A 
HETATM    6  C8  LIG X 999       2.538   0.118   3.955  1.00  0.00     0.001 A 
HETATM    7  C9  LIG X 999       1.596  -0.900   4.125  1.00  0.00     0.001 A 
HETATM    8  C10 LIG X 999       0.580  -1.083   3.184  1.00  0.00     0.012 A 
HETATM    9  C11 LIG X 999       0.499  -0.243   2.061  1.00  0.00    -0.025 A 
HETATM   10  C12 LIG X 999      -0.517  -0.417   1.109  1.00  0.00     0.026 A 
ENDROOT
BRANCH   1  11
HETATM   11  C2  LIG X 999      -1.688   0.212  -1.004  1.00  0.00     0.132 C 
HETATM   12  C1  LIG X 999      -1.544   0.514  -2.303  1.00  0.00     0.121 C 
HETATM   13  O1  LIG X 999      -2.889  -0.332  -0.557  1.00  0.00    -0.190 OA
BRANCH  12  14
HETATM   14  N1  LIG X 999      -2.607   0.319  -3.240  1.00  0.00    -0.406 N 
HETATM   15  H9  LIG X 999      -3.541  -0.046  -2.950  1.00  0.00     0.155 HD
HETATM   16  H10 LIG X 999      -2.453   0.551  -4.246  1.00  0.00     0.155 HD
ENDBRANCH  12  14
ENDBRANCH   1  11
TORSDOF 2
