REMARK  6 active torsions:
REMARK  status: ('A' for Active; 'I' for Inactive)
REMARK    1  A    between atoms: C2_2  and  C3_3 
REMARK    2  A    between atoms: C3_3  and  O1_4 
REMARK    3  A    between atoms: O1_4  and  C4_5 
REMARK    4  A    between atoms: C4_5  and  C6_7 
REMARK    5  A    between atoms: C6_7  and  C7_8 
REMARK       I    between atoms: N1_10  and  C9_11 
REMARK    6  A    between atoms: C9_11  and  C10_13 
ROOT
HETATM    1  C7  LIG X 999       0.681  -2.760  -1.087  1.00  0.00     0.043 A 
HETATM    2  C8  LIG X 999       0.624  -1.666  -1.925  1.00  0.00     0.144 A 
HETATM    3  N1  LIG X 999       0.101  -0.658  -1.198  1.00  0.00    -0.213 N 
HETATM    4  C9  LIG X 999      -0.094   0.696  -1.635  1.00  0.00     0.274 C 
HETATM    5  O2  LIG X 999       0.462   1.087  -2.698  1.00  0.00    -0.266 OA
HETATM    6  N2  LIG X 999      -0.136  -1.103   0.028  1.00  0.00    -0.013 NA
HETATM    7  N3  LIG X 999       0.205  -2.379   0.113  1.00  0.00    -0.286 N 
HETATM    8  H20 LIG X 999       0.113  -2.965   0.971  1.00  0.00     0.184 HD
ENDROOT
BRANCH   4   9
HETATM    9  C10 LIG X 999      -0.916   1.652  -0.858  1.00  0.00     0.034 A 
HETATM   10  C11 LIG X 999      -0.570   3.013  -0.835  1.00  0.00     0.018 A 
HETATM   11  C12 LIG X 999      -1.339   3.931  -0.115  1.00  0.00     0.013 A 
HETATM   12  C13 LIG X 999      -2.475   3.505   0.585  1.00  0.00    -0.026 A 
HETATM   13  C14 LIG X 999      -3.254   4.419   1.311  1.00  0.00     0.012 A 
HETATM   14  C18 LIG X 999      -2.842   2.138   0.556  1.00  0.00    -0.025 A 
HETATM   15  C15 LIG X 999      -4.388   3.982   2.001  1.00  0.00     0.001 A 
HETATM   16  C16 LIG X 999      -4.752   2.633   1.972  1.00  0.00     0.001 A 
HETATM   17  C17 LIG X 999      -3.985   1.712   1.252  1.00  0.00     0.012 A 
HETATM   18  C19 LIG X 999      -2.064   1.223  -0.169  1.00  0.00     0.029 A 
ENDBRANCH   4   9
BRANCH   1  19
HETATM   19  C6  LIG X 999       1.226  -4.122  -1.406  1.00  0.00     0.091 C 
BRANCH  19  20
HETATM   20  C4  LIG X 999       2.739  -4.242  -1.131  1.00  0.00     0.123 C 
HETATM   21  C5  LIG X 999       3.555  -3.379  -2.097  1.00  0.00     0.040 C 
BRANCH  20  22
HETATM   22  O1  LIG X 999       3.041  -3.841   0.197  1.00  0.00    -0.382 OA
BRANCH  22  23
HETATM   23  C3  LIG X 999       3.091  -4.958   1.062  1.00  0.00     0.194 C 
BRANCH  23  24
HETATM   24  C2  LIG X 999       3.453  -4.501   2.443  1.00  0.00    -0.011 C 
HETATM   25  C1  LIG X 999       2.648  -3.704   3.151  1.00  0.00     0.009 C 
ENDBRANCH  23  24
ENDBRANCH  22  23
ENDBRANCH  20  22
ENDBRANCH  19  20
ENDBRANCH   1  19
TORSDOF 6
