REMARK  7 active torsions:
REMARK  status: ('A' for Active; 'I' for Inactive)
REMARK    1  A    between atoms: C2_2  and  C3_3 
REMARK    2  A    between atoms: C3_3  and  C4_4 
REMARK    3  A    between atoms: N3_7  and  C5_8 
REMARK    4  A    between atoms: C5_8  and  O1_9 
REMARK    5  A    between atoms: O1_9  and  C6_10 
REMARK    6  A    between atoms: C6_10  and  O3_12 
REMARK    7  A    between atoms: O3_12  and  C7_13 
ROOT
HETATM    1  C6  LIG X 999       1.007  -1.184   0.148  1.00  0.00     0.413 C 
HETATM    2  O2  LIG X 999       1.540  -2.144   0.770  1.00  0.00    -0.229 OA
ENDROOT
BRANCH   1   3
HETATM    3  O1  LIG X 999      -0.372  -1.162  -0.066  1.00  0.00    -0.277 OA
BRANCH   3   4
HETATM    4  C5  LIG X 999      -1.233  -2.213   0.361  1.00  0.00     0.327 C 
BRANCH   4   5
HETATM    5  N3  LIG X 999      -2.609  -1.887   0.005  1.00  0.00    -0.254 N 
HETATM    6  N2  LIG X 999      -3.237  -2.378  -1.053  1.00  0.00    -0.018 NA
HETATM    7  N1  LIG X 999      -4.456  -1.867  -1.126  1.00  0.00    -0.286 N 
HETATM    8  C4  LIG X 999      -4.620  -1.023  -0.089  1.00  0.00     0.047 A 
HETATM    9  H8  LIG X 999      -5.151  -2.089  -1.874  1.00  0.00     0.184 HD
HETATM   10  C17 LIG X 999      -3.432  -1.010   0.619  1.00  0.00     0.049 A 
HETATM   11  C18 LIG X 999      -3.123  -0.249   1.873  1.00  0.00     0.072 C 
BRANCH   8  12
HETATM   12  C3  LIG X 999      -5.852  -0.205   0.158  1.00  0.00     0.060 C 
BRANCH  12  13
HETATM   13  C2  LIG X 999      -5.744   1.153  -0.542  1.00  0.00     0.002 C 
HETATM   14  C1  LIG X 999      -6.987   2.001  -0.294  1.00  0.00     0.005 C 
ENDBRANCH  12  13
ENDBRANCH   8  12
ENDBRANCH   4   5
ENDBRANCH   3   4
ENDBRANCH   1   3
BRANCH   1  15
HETATM   15  O3  LIG X 999       1.774  -0.096  -0.287  1.00  0.00    -0.256 OA
BRANCH  15  16
HETATM   16  C7  LIG X 999       3.173  -0.080  -0.397  1.00  0.00     0.082 A 
HETATM   17  C8  LIG X 999       3.917  -1.240  -0.683  1.00  0.00     0.038 A 
HETATM   18  C9  LIG X 999       5.309  -1.179  -0.794  1.00  0.00     0.015 A 
HETATM   19  C10 LIG X 999       5.977   0.043  -0.634  1.00  0.00    -0.026 A 
HETATM   20  C11 LIG X 999       7.374   0.116  -0.744  1.00  0.00     0.012 A 
HETATM   21  C15 LIG X 999       5.233   1.218  -0.367  1.00  0.00    -0.023 A 
HETATM   22  C12 LIG X 999       8.027   1.342  -0.589  1.00  0.00     0.001 A 
HETATM   23  C13 LIG X 999       7.293   2.502  -0.326  1.00  0.00     0.001 A 
HETATM   24  C14 LIG X 999       5.901   2.443  -0.215  1.00  0.00     0.012 A 
HETATM   25  C16 LIG X 999       3.836   1.145  -0.257  1.00  0.00     0.049 A 
ENDBRANCH  15  16
ENDBRANCH   1  15
TORSDOF 7
