REMARK  3 active torsions:
REMARK  status: ('A' for Active; 'I' for Inactive)
REMARK    1  A    between atoms: C3_3  and  O1_4 
REMARK    2  A    between atoms: O1_4  and  C4_5 
REMARK    3  A    between atoms: C5_7  and  C6_8 
ROOT
HETATM    1  C1  LIG X 999      -0.730  -3.787  -2.274  1.00  0.00     0.014 C 
HETATM    2  C2  LIG X 999      -0.423  -2.675  -2.624  1.00  0.00    -0.091 C 
HETATM    3  C3  LIG X 999      -0.050  -1.324  -3.046  1.00  0.00     0.270 C 
ENDROOT
BRANCH   3   4
HETATM    4  O1  LIG X 999      -0.183  -0.438  -1.943  1.00  0.00    -0.317 OA
BRANCH   4   5
HETATM    5  C4  LIG X 999       0.135   0.920  -2.029  1.00  0.00     0.217 C 
HETATM    6  O2  LIG X 999       0.561   1.464  -3.237  1.00  0.00    -0.164 OA
HETATM    7  C5  LIG X 999       0.023   1.711  -0.959  1.00  0.00     0.079 C 
BRANCH   7   8
HETATM    8  C6  LIG X 999      -0.466   1.218   0.348  1.00  0.00    -0.020 A 
HETATM    9  C7  LIG X 999      -1.630   1.806   0.866  1.00  0.00     0.012 A 
HETATM   10  C8  LIG X 999      -2.179   1.361   2.068  1.00  0.00     0.002 A 
HETATM   11  C9  LIG X 999      -1.571   0.329   2.780  1.00  0.00     0.012 A 
HETATM   12  C10 LIG X 999      -0.388  -0.255   2.306  1.00  0.00    -0.025 A 
HETATM   13  C11 LIG X 999       0.234  -1.276   3.042  1.00  0.00     0.012 A 
HETATM   14  C15 LIG X 999       0.188   0.196   1.087  1.00  0.00    -0.015 A 
HETATM   15  C12 LIG X 999       1.429  -1.839   2.592  1.00  0.00     0.001 A 
HETATM   16  C13 LIG X 999       2.019  -1.382   1.414  1.00  0.00     0.001 A 
HETATM   17  C14 LIG X 999       1.413  -0.368   0.669  1.00  0.00     0.013 A 
ENDBRANCH   7   8
ENDBRANCH   4   5
ENDBRANCH   3   4
TORSDOF 3
