REMARK  10 active torsions:
REMARK  status: ('A' for Active; 'I' for Inactive)
REMARK    1  A    between atoms: O1_2  and  C2_3 
REMARK    2  A    between atoms: C7_8  and  N1_9 
REMARK    3  A    between atoms: C10_14  and  C11_15 
REMARK    4  A    between atoms: C11_15  and  O2_16 
REMARK    5  A    between atoms: O2_16  and  C12_17 
REMARK    6  A    between atoms: C12_17  and  C13_18 
REMARK    7  A    between atoms: C13_18  and  O3_19 
REMARK    8  A    between atoms: O3_19  and  C14_20 
REMARK    9  A    between atoms: C14_20  and  C15_21 
REMARK   10  A    between atoms: C15_21  and  N4_22 
ROOT
HETATM    1  N1  LIG X 999       4.001  -0.219  -0.405  1.00  0.00    -0.240 N 
HETATM    2  N2  LIG X 999       5.278  -0.211  -0.051  1.00  0.00    -0.015 NA
HETATM    3  N3  LIG X 999       5.886  -1.283  -0.535  1.00  0.00    -0.286 N 
HETATM    4  C8  LIG X 999       4.977  -2.010  -1.210  1.00  0.00     0.046 A 
HETATM    5  C9  LIG X 999       5.242  -3.349  -1.821  1.00  0.00     0.071 C 
HETATM    6  C10 LIG X 999       3.768  -1.341  -1.125  1.00  0.00     0.079 A 
HETATM    7  H7  LIG X 999       6.892  -1.518  -0.380  1.00  0.00     0.184 HD
ENDROOT
BRANCH   1   8
HETATM    8  C7  LIG X 999       3.049   0.767   0.022  1.00  0.00     0.055 A 
HETATM    9  C6  LIG X 999       2.179   1.369  -0.901  1.00  0.00     0.043 A 
HETATM   10  C5  LIG X 999       1.231   2.311  -0.474  1.00  0.00    -0.024 A 
HETATM   11  C4  LIG X 999       0.349   2.903  -1.390  1.00  0.00     0.015 A 
HETATM   12  C18 LIG X 999       1.163   2.666   0.892  1.00  0.00    -0.023 A 
HETATM   13  C3  LIG X 999      -0.597   3.835  -0.955  1.00  0.00     0.037 A 
HETATM   14  C2  LIG X 999      -0.673   4.192   0.405  1.00  0.00     0.069 A 
HETATM   15  C19 LIG X 999       0.211   3.605   1.319  1.00  0.00     0.049 A 
HETATM   16  C17 LIG X 999       2.050   2.078   1.807  1.00  0.00     0.014 A 
HETATM   17  C16 LIG X 999       2.989   1.139   1.372  1.00  0.00     0.032 A 
BRANCH  14  18
HETATM   18  O1  LIG X 999      -1.609   5.120   0.886  1.00  0.00    -0.356 OA
HETATM   19  C1  LIG X 999      -2.581   5.774   0.077  1.00  0.00     0.210 C 
ENDBRANCH  14  18
ENDBRANCH   1   8
BRANCH   6  20
HETATM   20  C11 LIG X 999       2.419  -1.837  -1.560  1.00  0.00     0.228 C 
BRANCH  20  21
HETATM   21  O2  LIG X 999       1.578  -1.902  -0.427  1.00  0.00    -0.383 OA
BRANCH  21  22
HETATM   22  C12 LIG X 999       0.237  -2.068  -0.832  1.00  0.00     0.194 C 
BRANCH  22  23
HETATM   23  C13 LIG X 999      -0.634  -2.202   0.409  1.00  0.00     0.193 C 
BRANCH  23  24
HETATM   24  O3  LIG X 999      -1.984  -2.348   0.021  1.00  0.00    -0.387 OA
BRANCH  24  25
HETATM   25  C14 LIG X 999      -2.788  -2.499   1.175  1.00  0.00     0.195 C 
BRANCH  25  26
HETATM   26  C15 LIG X 999      -4.255  -2.655   0.766  1.00  0.00     0.255 C 
BRANCH  26  27
HETATM   27  N4  LIG X 999      -4.465  -3.865  -0.031  1.00  0.00    -0.077 N 
HETATM   28  H21 LIG X 999      -5.489  -3.984  -0.211  1.00  0.00     0.274 HD
HETATM   29  H22 LIG X 999      -4.112  -4.706   0.484  1.00  0.00     0.274 HD
HETATM   30  H23 LIG X 999      -3.968  -3.784  -0.948  1.00  0.00     0.274 HD
ENDBRANCH  26  27
ENDBRANCH  25  26
ENDBRANCH  24  25
ENDBRANCH  23  24
ENDBRANCH  22  23
ENDBRANCH  21  22
ENDBRANCH  20  21
ENDBRANCH   6  20
TORSDOF 10
