REMARK  6 active torsions:
REMARK  status: ('A' for Active; 'I' for Inactive)
REMARK    1  A    between atoms: O1_2  and  C1_3 
REMARK    2  A    between atoms: C1_3  and  C2_4 
REMARK    3  A    between atoms: C1_3  and  C13_20 
REMARK    4  A    between atoms: C2_4  and  O3_6 
REMARK    5  A    between atoms: O3_6  and  C3_7 
REMARK    6  A    between atoms: C8_12  and  N1_13 
ROOT
HETATM    1  N1  LIG X 999       4.814  -1.436   3.221  1.00  0.00    -0.073 NA
HETATM    2  N2  LIG X 999       5.598  -0.486   3.205  1.00  0.00    -0.162 NA
HETATM    3  N3  LIG X 999       6.382   0.462   3.191  1.00  0.00     0.068 N 
ENDROOT
BRANCH   1   4
HETATM    4  C8  LIG X 999       3.572  -1.417   2.505  1.00  0.00     0.094 A 
HETATM    5  C7  LIG X 999       3.175  -0.306   1.737  1.00  0.00     0.046 A 
HETATM    6  C6  LIG X 999       1.952  -0.321   1.049  1.00  0.00    -0.024 A 
HETATM    7  C5  LIG X 999       1.552   0.780   0.278  1.00  0.00     0.015 A 
HETATM    8  C11 LIG X 999       1.116  -1.459   1.127  1.00  0.00    -0.023 A 
HETATM    9  C4  LIG X 999       0.332   0.756  -0.404  1.00  0.00     0.038 A 
HETATM   10  C3  LIG X 999      -0.512  -0.366  -0.315  1.00  0.00     0.080 A 
HETATM   11  C12 LIG X 999      -0.106  -1.474   0.438  1.00  0.00     0.049 A 
HETATM   12  C10 LIG X 999       1.518  -2.563   1.892  1.00  0.00     0.014 A 
HETATM   13  C9  LIG X 999       2.737  -2.539   2.575  1.00  0.00     0.035 A 
BRANCH  10  14
HETATM   14  O3  LIG X 999      -1.739  -0.435  -0.992  1.00  0.00    -0.277 OA
BRANCH  14  15
HETATM   15  C2  LIG X 999      -2.552   0.661  -1.312  1.00  0.00     0.293 C 
HETATM   16  O2  LIG X 999      -2.400   1.771  -0.733  1.00  0.00    -0.262 OA
BRANCH  15  17
HETATM   17  C1  LIG X 999      -3.682   0.484  -2.287  1.00  0.00     0.217 C 
BRANCH  17  18
HETATM   18  O1  LIG X 999      -3.202  -0.058  -3.493  1.00  0.00    -0.386 OA
HETATM   19  H1  LIG X 999      -2.880  -0.979  -3.307  1.00  0.00     0.210 HD
ENDBRANCH  17  18
BRANCH  17  20
HETATM   20  C13 LIG X 999      -4.790  -0.395  -1.676  1.00  0.00     0.037 C 
HETATM   21  C14 LIG X 999      -5.995  -0.515  -2.606  1.00  0.00     0.008 C 
ENDBRANCH  17  20
ENDBRANCH  15  17
ENDBRANCH  14  15
ENDBRANCH  10  14
ENDBRANCH   1   4
TORSDOF 6
