REMARK  12 active torsions:
REMARK  status: ('A' for Active; 'I' for Inactive)
REMARK    1  A    between atoms: C2_2  and  C3_3 
REMARK    2  A    between atoms: C3_3  and  C4_4 
REMARK    3  A    between atoms: C4_4  and  C5_5 
REMARK    4  A    between atoms: C4_4  and  O1_8 
REMARK    5  A    between atoms: C5_5  and  C6_6 
REMARK    6  A    between atoms: O1_8  and  C8_9 
REMARK    7  A    between atoms: C8_9  and  C9_10 
REMARK    8  A    between atoms: C14_15  and  N1_16 
REMARK    9  A    between atoms: C15_19  and  C16_20 
REMARK   10  A    between atoms: C18_22  and  C19_23 
REMARK   11  A    between atoms: C19_23  and  O2_24 
REMARK   12  A    between atoms: O2_24  and  C20_25 
ROOT
HETATM    1  N1  LIG X 999      -0.839   0.304   1.505  1.00  0.00    -0.238 N 
HETATM    2  N2  LIG X 999      -1.846   1.159   1.583  1.00  0.00     0.010 NA
HETATM    3  N3  LIG X 999      -1.458   2.369   1.205  1.00  0.00    -0.162 NA
HETATM    4  C15 LIG X 999      -0.152   2.283   0.878  1.00  0.00     0.078 A 
HETATM    5  C18 LIG X 999       0.249   0.966   1.063  1.00  0.00     0.083 A 
ENDROOT
BRANCH   1   6
HETATM    6  C14 LIG X 999      -0.911  -1.055   1.956  1.00  0.00     0.063 A 
HETATM    7  C9  LIG X 999      -1.709  -2.006   1.281  1.00  0.00    -0.006 A 
HETATM    8  C10 LIG X 999      -1.787  -3.318   1.783  1.00  0.00     0.012 A 
HETATM    9  C11 LIG X 999      -1.062  -3.686   2.919  1.00  0.00     0.001 A 
HETATM   10  C12 LIG X 999      -0.260  -2.749   3.571  1.00  0.00     0.002 A 
HETATM   11  C13 LIG X 999      -0.186  -1.439   3.094  1.00  0.00     0.032 A 
BRANCH   7  12
HETATM   12  C8  LIG X 999      -2.473  -1.640   0.036  1.00  0.00     0.209 C 
BRANCH  12  13
HETATM   13  O1  LIG X 999      -3.627  -0.909   0.398  1.00  0.00    -0.381 OA
BRANCH  13  14
HETATM   14  C4  LIG X 999      -4.336  -0.475  -0.755  1.00  0.00     0.125 C 
BRANCH  14  15
HETATM   15  C3  LIG X 999      -5.845  -0.571  -0.458  1.00  0.00     0.058 C 
BRANCH  15  16
HETATM   16  C2  LIG X 999      -6.242  -1.958  -0.030  1.00  0.00    -0.034 C 
HETATM   17  C1  LIG X 999      -6.231  -2.989  -0.880  1.00  0.00     0.007 C 
ENDBRANCH  15  16
ENDBRANCH  14  15
BRANCH  14  18
HETATM   18  C5  LIG X 999      -3.921   0.978  -1.079  1.00  0.00     0.032 C 
BRANCH  18  19
HETATM   19  C6  LIG X 999      -4.460   1.469  -2.431  1.00  0.00    -0.002 C 
HETATM   20  C7  LIG X 999      -3.866   2.827  -2.797  1.00  0.00     0.005 C 
ENDBRANCH  18  19
ENDBRANCH  14  18
ENDBRANCH  13  14
ENDBRANCH  12  13
ENDBRANCH   7  12
ENDBRANCH   1   6
BRANCH   5  21
HETATM   21  C19 LIG X 999       1.625   0.373   0.938  1.00  0.00     0.236 C 
BRANCH  21  22
HETATM   22  O2  LIG X 999       2.350   1.011  -0.109  1.00  0.00    -0.345 OA
BRANCH  22  23
HETATM   23  C20 LIG X 999       3.669   0.699  -0.468  1.00  0.00     0.070 A 
HETATM   24  C21 LIG X 999       4.320   1.536  -1.383  1.00  0.00     0.037 A 
HETATM   25  C22 LIG X 999       5.636   1.275  -1.777  1.00  0.00     0.015 A 
HETATM   26  C23 LIG X 999       6.317   0.162  -1.264  1.00  0.00    -0.026 A 
HETATM   27  C24 LIG X 999       7.636  -0.114  -1.659  1.00  0.00     0.012 A 
HETATM   28  C28 LIG X 999       5.667  -0.696  -0.342  1.00  0.00    -0.023 A 
HETATM   29  C25 LIG X 999       8.301  -1.234  -1.150  1.00  0.00     0.001 A 
HETATM   30  C26 LIG X 999       7.658  -2.084  -0.243  1.00  0.00     0.001 A 
HETATM   31  C27 LIG X 999       6.347  -1.817   0.162  1.00  0.00     0.012 A 
HETATM   32  C29 LIG X 999       4.350  -0.418   0.057  1.00  0.00     0.049 A 
ENDBRANCH  22  23
ENDBRANCH  21  22
ENDBRANCH   5  21
BRANCH   4  33
HETATM   33  C16 LIG X 999       0.676   3.466   0.468  1.00  0.00     0.058 C 
HETATM   34  C17 LIG X 999       1.630   3.885   1.583  1.00  0.00     0.011 C 
ENDBRANCH   4  33
TORSDOF 12
