REMARK  5 active torsions:
REMARK  status: ('A' for Active; 'I' for Inactive)
REMARK    1  A    between atoms: O1_2  and  C1_3 
REMARK    2  A    between atoms: C1_3  and  C2_4 
REMARK    3  A    between atoms: C2_4  and  C3_5 
REMARK       I    between atoms: N1_7  and  C5_8 
REMARK    4  A    between atoms: C5_8  and  C6_10 
REMARK    5  A    between atoms: C12_16  and  N2_17 
ROOT
HETATM    1  N2  LIG X 999      -1.183   1.807  -3.008  1.00  0.00    -0.105 NA
HETATM    2  N3  LIG X 999      -0.165   2.000  -2.341  1.00  0.00    -0.167 NA
HETATM    3  N4  LIG X 999       0.852   2.193  -1.676  1.00  0.00     0.068 N 
ENDROOT
BRANCH   1   4
HETATM    4  C12 LIG X 999      -2.169   0.801  -2.618  1.00  0.00     0.179 C 
HETATM    5  C10 LIG X 999      -2.869   1.221  -1.338  1.00  0.00    -0.024 A 
HETATM    6  C9  LIG X 999      -4.146   1.830  -1.357  1.00  0.00    -0.050 A 
HETATM    7  C11 LIG X 999      -2.198   1.065  -0.114  1.00  0.00     0.027 A 
HETATM    8  C8  LIG X 999      -4.727   2.247  -0.150  1.00  0.00     0.009 A 
HETATM    9  C15 LIG X 999      -4.959   1.935  -2.627  1.00  0.00     0.039 C 
HETATM   10  C7  LIG X 999      -4.051   2.083   1.060  1.00  0.00     0.017 A 
HETATM   11  C6  LIG X 999      -2.789   1.474   1.093  1.00  0.00     0.034 A 
HETATM   12  C14 LIG X 999      -4.108   1.793  -3.892  1.00  0.00     0.007 C 
HETATM   13  C13 LIG X 999      -3.164   0.596  -3.770  1.00  0.00     0.035 C 
BRANCH  11  14
HETATM   14  C5  LIG X 999      -2.074   1.313   2.382  1.00  0.00     0.274 C 
HETATM   15  N1  LIG X 999      -1.165   0.227   2.611  1.00  0.00    -0.213 N 
HETATM   16  C4  LIG X 999      -1.179  -0.992   2.033  1.00  0.00     0.144 A 
HETATM   17  N5  LIG X 999      -0.149   0.279   3.458  1.00  0.00    -0.013 NA
HETATM   18  C3  LIG X 999      -0.102  -1.679   2.551  1.00  0.00     0.044 A 
HETATM   19  N6  LIG X 999       0.511  -0.868   3.433  1.00  0.00    -0.286 N 
HETATM   20  H15 LIG X 999       1.365  -1.077   3.995  1.00  0.00     0.184 HD
HETATM   21  O2  LIG X 999      -2.256   2.160   3.298  1.00  0.00    -0.266 OA
BRANCH  18  22
HETATM   22  C2  LIG X 999       0.377  -3.048   2.156  1.00  0.00     0.097 C 
BRANCH  22  23
HETATM   23  C1  LIG X 999       1.085  -3.078   0.766  1.00  0.00     0.063 C 
HETATM   24  C16 LIG X 999       2.375  -2.201   0.787  1.00  0.00     0.038 C 
HETATM   25  C17 LIG X 999       3.631  -2.885   1.360  1.00  0.00     0.003 C 
HETATM   26  C18 LIG X 999       4.450  -3.596   0.270  1.00  0.00     0.000 C 
HETATM   27  C19 LIG X 999       3.828  -4.911  -0.214  1.00  0.00     0.000 C 
HETATM   28  C20 LIG X 999       2.391  -4.761  -0.741  1.00  0.00     0.003 C 
HETATM   29  C21 LIG X 999       1.374  -4.566   0.399  1.00  0.00     0.038 C 
BRANCH  23  30
HETATM   30  O1  LIG X 999       0.229  -2.527  -0.212  1.00  0.00    -0.389 OA
HETATM   31  H1  LIG X 999      -0.630  -3.027  -0.197  1.00  0.00     0.210 HD
ENDBRANCH  23  30
ENDBRANCH  22  23
ENDBRANCH  18  22
ENDBRANCH  11  14
ENDBRANCH   1   4
TORSDOF 5
