REMARK  2 active torsions:
REMARK  status: ('A' for Active; 'I' for Inactive)
REMARK    1  A    between atoms: C2_2  and  N1_3 
REMARK    2  A    between atoms: C3_6  and  O1_7 
ROOT
HETATM    1  N1  LIG X 999       0.804  -0.267  -4.851  1.00  0.00    -0.070 NA
HETATM    2  N2  LIG X 999       0.358  -0.929  -5.788  1.00  0.00    -0.162 NA
HETATM    3  N3  LIG X 999      -0.084  -1.586  -6.730  1.00  0.00     0.068 N 
ENDROOT
BRANCH   1   4
HETATM    4  C2  LIG X 999       0.489  -0.525  -3.471  1.00  0.00     0.127 A 
HETATM    5  C1  LIG X 999       1.072   0.313  -2.512  1.00  0.00     0.049 A 
HETATM    6  C11 LIG X 999       0.819   0.131  -1.148  1.00  0.00    -0.023 A 
HETATM    7  C6  LIG X 999      -0.043  -0.918  -0.729  1.00  0.00    -0.022 A 
HETATM    8  C10 LIG X 999       1.408   0.980  -0.190  1.00  0.00     0.021 A 
HETATM    9  C5  LIG X 999      -0.628  -1.757  -1.685  1.00  0.00     0.051 A 
HETATM   10  C7  LIG X 999      -0.303  -1.104   0.644  1.00  0.00     0.021 A 
HETATM   11  C3  LIG X 999      -0.372  -1.573  -3.059  1.00  0.00     0.100 A 
HETATM   12  C8  LIG X 999       0.305  -0.246   1.562  1.00  0.00    -0.024 A 
HETATM   13  C9  LIG X 999       1.130   0.759   1.160  1.00  0.00    -0.024 A 
HETATM   14  C15 LIG X 999       0.159  -0.241   3.034  1.00  0.00     0.276 C 
HETATM   15  C12 LIG X 999       1.614   1.531   2.324  1.00  0.00     0.276 C 
HETATM   16  N4  LIG X 999       1.123   0.791   3.531  1.00  0.00    -0.067 N 
HETATM   17  C13 LIG X 999       2.259   0.134   4.221  1.00  0.00     0.272 C 
HETATM   18  C14 LIG X 999       0.457   1.717   4.475  1.00  0.00     0.272 C 
BRANCH  11  19
HETATM   19  O1  LIG X 999      -0.955  -2.412  -4.024  1.00  0.00    -0.353 OA
HETATM   20  C4  LIG X 999      -1.833  -3.496  -3.739  1.00  0.00     0.210 C 
ENDBRANCH  11  19
ENDBRANCH   1   4
TORSDOF 2
