REMARK  8 active torsions:
REMARK  status: ('A' for Active; 'I' for Inactive)
REMARK    1  A    between atoms: C3_3  and  S1_4 
REMARK    2  A    between atoms: S1_4  and  C4_7 
REMARK    3  A    between atoms: C9_14  and  O3_15 
REMARK    4  A    between atoms: O3_15  and  C10_16 
REMARK    5  A    between atoms: C10_16  and  C11_17 
REMARK    6  A    between atoms: C11_17  and  C12_18 
REMARK    7  A    between atoms: C12_18  and  N1_19 
REMARK    8  A    between atoms: C15_24  and  N4_25 
ROOT
HETATM    1  C1  LIG X 999       6.251  -3.337  -4.582  1.00  0.00     0.013 C 
HETATM    2  C2  LIG X 999       5.200  -3.187  -4.012  1.00  0.00    -0.102 C 
HETATM    3  C3  LIG X 999       3.922  -3.005  -3.320  1.00  0.00     0.233 C 
ENDROOT
BRANCH   3   4
HETATM    4  S1  LIG X 999       4.159  -2.040  -1.838  1.00  0.00     0.159 S 
HETATM    5  O1  LIG X 999       5.222  -2.687  -0.995  1.00  0.00    -0.227 OA
HETATM    6  O2  LIG X 999       4.602  -0.652  -2.212  1.00  0.00    -0.227 OA
BRANCH   4   7
HETATM    7  C4  LIG X 999       2.631  -1.959  -0.899  1.00  0.00     0.116 C 
HETATM    8  C5  LIG X 999       1.511  -1.330  -1.739  1.00  0.00     0.061 C 
HETATM    9  C6  LIG X 999       0.252  -1.051  -0.940  1.00  0.00    -0.025 A 
HETATM   10  C7  LIG X 999      -0.966  -0.809  -1.616  1.00  0.00     0.065 A 
HETATM   11  C14 LIG X 999       0.293  -0.953   0.474  1.00  0.00    -0.020 A 
HETATM   12 CL1  LIG X 999      -1.031  -0.818  -3.384  1.00  0.00    -0.082 Cl
HETATM   13  C8  LIG X 999      -2.140  -0.548  -0.888  1.00  0.00     0.089 A 
HETATM   14 CL2  LIG X 999      -3.668  -0.259  -1.720  1.00  0.00    -0.080 Cl
HETATM   15  C9  LIG X 999      -2.114  -0.518   0.511  1.00  0.00     0.092 A 
HETATM   16  C13 LIG X 999      -0.899  -0.729   1.183  1.00  0.00     0.048 A 
HETATM   17  C15 LIG X 999       1.575  -1.204   1.256  1.00  0.00     0.180 C 
HETATM   18  C16 LIG X 999       2.835  -1.145   0.379  1.00  0.00     0.055 C 
BRANCH  15  19
HETATM   19  O3  LIG X 999      -3.312  -0.273   1.202  1.00  0.00    -0.349 OA
BRANCH  19  20
HETATM   20  C10 LIG X 999      -3.433  -0.204   2.620  1.00  0.00     0.177 C 
BRANCH  20  21
HETATM   21  C11 LIG X 999      -4.887   0.089   2.989  1.00  0.00     0.051 C 
BRANCH  21  22
HETATM   22  C12 LIG X 999      -5.098   0.133   4.508  1.00  0.00     0.191 C 
BRANCH  22  23
HETATM   23  N1  LIG X 999      -4.350   1.225   5.121  1.00  0.00    -0.116 NA
HETATM   24  N2  LIG X 999      -4.619   2.400   4.869  1.00  0.00    -0.168 NA
HETATM   25  N3  LIG X 999      -4.886   3.574   4.616  1.00  0.00     0.068 N 
ENDBRANCH  22  23
ENDBRANCH  21  22
ENDBRANCH  20  21
ENDBRANCH  19  20
ENDBRANCH  15  19
BRANCH  17  26
HETATM   26  N4  LIG X 999       1.706  -0.267   2.374  1.00  0.00    -0.105 NA
HETATM   27  N5  LIG X 999       1.762   0.951   2.193  1.00  0.00    -0.167 NA
HETATM   28  N6  LIG X 999       1.818   2.166   2.013  1.00  0.00     0.068 N 
ENDBRANCH  17  26
ENDBRANCH   4   7
ENDBRANCH   3   4
TORSDOF 8
