REMARK  3 active torsions:
REMARK  status: ('A' for Active; 'I' for Inactive)
REMARK    1  A    between atoms: C3_3  and  S1_4 
REMARK    2  A    between atoms: S1_4  and  C4_5 
REMARK    3  A    between atoms: C8_9  and  N1_10 
ROOT
HETATM    1  C1  LIG X 999      -2.835  -2.978   0.992  1.00  0.00     0.013 C 
HETATM    2  C2  LIG X 999      -2.906  -1.863   1.445  1.00  0.00    -0.107 C 
HETATM    3  C3  LIG X 999      -2.991  -0.506   1.991  1.00  0.00     0.172 C 
ENDROOT
BRANCH   3   4
HETATM    4  S1  LIG X 999      -1.812  -0.298   3.368  1.00  0.00    -0.117 SA
BRANCH   4   5
HETATM    5  C4  LIG X 999      -0.355  -0.182   2.316  1.00  0.00     0.015 A 
HETATM    6  C5  LIG X 999      -0.052   1.101   1.775  1.00  0.00     0.020 A 
HETATM    7  C6  LIG X 999       0.966   1.271   0.812  1.00  0.00     0.018 A 
HETATM    8  C7  LIG X 999       1.663   0.137   0.412  1.00  0.00     0.026 A 
HETATM    9  C8  LIG X 999       2.618  -0.102  -0.563  1.00  0.00     0.175 A 
HETATM   10  C10 LIG X 999       1.393  -1.073   0.961  1.00  0.00     0.019 A 
HETATM   11  N4  LIG X 999       2.910  -1.431  -0.622  1.00  0.00    -0.337 N 
HETATM   12  H6  LIG X 999       3.560  -1.912  -1.283  1.00  0.00     0.167 HD
HETATM   13  C9  LIG X 999       2.142  -2.012   0.327  1.00  0.00     0.046 A 
HETATM   14  C14 LIG X 999       1.968  -3.439   0.625  1.00  0.00     0.033 C 
HETATM   15  C13 LIG X 999       1.094  -3.787   1.591  1.00  0.00     0.034 C 
HETATM   16  C12 LIG X 999       0.338  -2.751   2.370  1.00  0.00     0.060 C 
HETATM   17  C11 LIG X 999       0.432  -1.312   1.930  1.00  0.00     0.022 A 
HETATM   18  N5  LIG X 999      -0.236  -3.123   3.470  1.00  0.00    -0.299 NA
HETATM   19  H7  LIG X 999      -0.694  -2.484   4.149  1.00  0.00     0.187 HD
BRANCH   9  20
HETATM   20  N1  LIG X 999       3.173   0.889  -1.430  1.00  0.00    -0.053 NA
HETATM   21  N2  LIG X 999       4.002   0.592  -2.291  1.00  0.00    -0.160 NA
HETATM   22  N3  LIG X 999       4.830   0.295  -3.150  1.00  0.00     0.068 N 
ENDBRANCH   9  20
ENDBRANCH   4   5
ENDBRANCH   3   4
TORSDOF 3
