REMARK  3 active torsions:
REMARK  status: ('A' for Active; 'I' for Inactive)
REMARK    1  A    between atoms: C2_2  and  N1_3 
REMARK    2  A    between atoms: C3_6  and  O1_7 
REMARK    3  A    between atoms: O1_7  and  C4_8 
REMARK       I    between atoms: C4_8  and  N4_10 
ROOT
HETATM    1  N1  LIG X 999       1.394   3.615   0.864  1.00  0.00    -0.070 NA
HETATM    2  N2  LIG X 999       1.837   4.488   0.116  1.00  0.00    -0.162 NA
HETATM    3  N3  LIG X 999       2.279   5.361  -0.630  1.00  0.00     0.068 N 
ENDROOT
BRANCH   1   4
HETATM    4  C2  LIG X 999       1.009   2.316   0.390  1.00  0.00     0.128 A 
HETATM    5  C1  LIG X 999       1.113   1.974  -0.972  1.00  0.00     0.049 A 
HETATM    6  C13 LIG X 999       0.735   0.700  -1.415  1.00  0.00    -0.023 A 
HETATM    7  C8  LIG X 999       0.251  -0.255  -0.479  1.00  0.00    -0.022 A 
HETATM    8  C12 LIG X 999       0.841   0.354  -2.777  1.00  0.00     0.021 A 
HETATM    9  C7  LIG X 999       0.151   0.091   0.874  1.00  0.00     0.052 A 
HETATM   10  C9  LIG X 999      -0.115  -1.543  -0.919  1.00  0.00     0.021 A 
HETATM   11  C3  LIG X 999       0.512   1.379   1.311  1.00  0.00     0.113 A 
HETATM   12  C10 LIG X 999      -0.002  -1.843  -2.277  1.00  0.00    -0.024 A 
HETATM   13  C11 LIG X 999       0.458  -0.928  -3.173  1.00  0.00    -0.024 A 
HETATM   14  C17 LIG X 999      -0.305  -3.124  -2.951  1.00  0.00     0.276 C 
HETATM   15  C14 LIG X 999       0.507  -1.510  -4.532  1.00  0.00     0.276 C 
HETATM   16  N5  LIG X 999      -0.135  -2.859  -4.415  1.00  0.00    -0.067 N 
HETATM   17  C15 LIG X 999      -1.457  -2.851  -5.086  1.00  0.00     0.272 C 
HETATM   18  C16 LIG X 999       0.716  -3.898  -5.039  1.00  0.00     0.272 C 
BRANCH  11  19
HETATM   19  O1  LIG X 999       0.429   1.748   2.663  1.00  0.00    -0.259 OA
BRANCH  19  20
HETATM   20  C4  LIG X 999      -0.514   1.263   3.582  1.00  0.00     0.367 C 
HETATM   21  O2  LIG X 999      -1.560   0.684   3.178  1.00  0.00    -0.238 OA
HETATM   22  N4  LIG X 999      -0.311   1.478   4.989  1.00  0.00    -0.336 N 
HETATM   23  C5  LIG X 999       0.894   2.178   5.440  1.00  0.00     0.154 C 
HETATM   24  C6  LIG X 999      -1.303   0.992   5.952  1.00  0.00     0.154 C 
ENDBRANCH  19  20
ENDBRANCH  11  19
ENDBRANCH   1   4
TORSDOF 3
