REMARK  1 active torsions:
REMARK  status: ('A' for Active; 'I' for Inactive)
REMARK    1  A    between atoms: N1_1  and  C1_2 
ROOT
HETATM    1  C1  LIG X 999       3.084   0.801   1.792  1.00  0.00     0.103 A 
HETATM    2  C2  LIG X 999       1.904   0.835   2.541  1.00  0.00     0.049 A 
HETATM    3  C3  LIG X 999       0.758   0.196   2.057  1.00  0.00     0.001 A 
HETATM    4  C4  LIG X 999      -0.440   0.211   2.782  1.00  0.00     0.015 A 
HETATM    5  C5  LIG X 999      -1.572  -0.433   2.280  1.00  0.00     0.013 A 
HETATM    6  C6  LIG X 999      -1.521  -1.100   1.047  1.00  0.00    -0.023 A 
HETATM    7  C7  LIG X 999      -2.661  -1.747   0.544  1.00  0.00     0.012 A 
HETATM    8  C8  LIG X 999      -2.609  -2.410  -0.684  1.00  0.00     0.001 A 
HETATM    9  C9  LIG X 999      -1.422  -2.434  -1.419  1.00  0.00     0.001 A 
HETATM   10  C10 LIG X 999      -0.279  -1.795  -0.932  1.00  0.00     0.015 A 
HETATM   11  C11 LIG X 999      -0.313  -1.122   0.303  1.00  0.00     0.009 A 
HETATM   12  C12 LIG X 999       0.828  -0.470   0.813  1.00  0.00     0.101 A 
HETATM   13  O1  LIG X 999       1.973  -0.478   0.131  1.00  0.00    -0.272 OA
HETATM   14  C13 LIG X 999       3.079   0.119   0.564  1.00  0.00     0.314 A 
HETATM   15  O2  LIG X 999       4.122   0.066  -0.140  1.00  0.00    -0.257 OA
ENDROOT
BRANCH   1  16
HETATM   16  N1  LIG X 999       4.263   1.452   2.279  1.00  0.00    -0.394 N 
HETATM   17  H1  LIG X 999       5.154   1.438   1.734  1.00  0.00     0.156 HD
HETATM   18  H2  LIG X 999       4.255   1.956   3.194  1.00  0.00     0.156 HD
ENDBRANCH   1  16
TORSDOF 1
