REMARK  6 active torsions:
REMARK  status: ('A' for Active; 'I' for Inactive)
REMARK    1  A    between atoms: O1_2  and  C1_3 
REMARK    2  A    between atoms: C1_3  and  C2_4 
REMARK    3  A    between atoms: C1_3  and  C13_20 
REMARK    4  A    between atoms: C2_4  and  O3_6 
REMARK    5  A    between atoms: O3_6  and  C3_7 
REMARK    6  A    between atoms: C8_12  and  N1_13 
ROOT
HETATM    1  N1  LIG X 999      -2.962   0.416  -6.143  1.00  0.00    -0.073 NA
HETATM    2  N2  LIG X 999      -3.395  -0.501  -6.842  1.00  0.00    -0.162 NA
HETATM    3  N3  LIG X 999      -3.827  -1.417  -7.540  1.00  0.00     0.068 N 
ENDROOT
BRANCH   1   4
HETATM    4  C8  LIG X 999      -2.617   0.233  -4.763  1.00  0.00     0.094 A 
HETATM    5  C7  LIG X 999      -2.132   1.329  -4.038  1.00  0.00     0.046 A 
HETATM    6  C6  LIG X 999      -1.784   1.190  -2.686  1.00  0.00    -0.024 A 
HETATM    7  C5  LIG X 999      -1.306   2.288  -1.955  1.00  0.00     0.015 A 
HETATM    8  C11 LIG X 999      -1.922  -0.066  -2.050  1.00  0.00    -0.023 A 
HETATM    9  C4  LIG X 999      -0.963   2.139  -0.609  1.00  0.00     0.038 A 
HETATM   10  C3  LIG X 999      -1.077   0.897   0.025  1.00  0.00     0.080 A 
HETATM   11  C12 LIG X 999      -1.574  -0.204  -0.698  1.00  0.00     0.049 A 
HETATM   12  C10 LIG X 999      -2.412  -1.160  -2.778  1.00  0.00     0.014 A 
HETATM   13  C9  LIG X 999      -2.756  -1.013  -4.125  1.00  0.00     0.035 A 
BRANCH  10  14
HETATM   14  O3  LIG X 999      -0.726   0.806   1.379  1.00  0.00    -0.277 OA
BRANCH  14  15
HETATM   15  C2  LIG X 999      -0.236  -0.343   2.015  1.00  0.00     0.293 C 
HETATM   16  O2  LIG X 999       0.221  -1.309   1.345  1.00  0.00    -0.262 OA
BRANCH  15  17
HETATM   17  C1  LIG X 999      -0.150  -0.380   3.513  1.00  0.00     0.217 C 
BRANCH  17  18
HETATM   18  O1  LIG X 999      -1.181   0.399   4.063  1.00  0.00    -0.386 OA
HETATM   19  H1  LIG X 999      -1.247   0.151   5.022  1.00  0.00     0.210 HD
ENDBRANCH  17  18
BRANCH  17  20
HETATM   20  C13 LIG X 999       1.227   0.105   4.006  1.00  0.00     0.037 C 
HETATM   21  C14 LIG X 999       1.498   1.579   3.695  1.00  0.00     0.008 C 
ENDBRANCH  17  20
ENDBRANCH  15  17
ENDBRANCH  14  15
ENDBRANCH  10  14
ENDBRANCH   1   4
TORSDOF 6
