REMARK  4 active torsions:
REMARK  status: ('A' for Active; 'I' for Inactive)
REMARK    1  A    between atoms: C2_2  and  N1_3 
REMARK    2  A    between atoms: C3_6  and  O1_7 
REMARK    3  A    between atoms: O1_7  and  C4_8 
REMARK    4  A    between atoms: C4_8  and  C5_9 
ROOT
HETATM    1  N1  LIG X 999      -4.339   0.817   0.776  1.00  0.00    -0.070 NA
HETATM    2  N2  LIG X 999      -4.621   0.873   1.974  1.00  0.00    -0.162 NA
HETATM    3  N3  LIG X 999      -4.904   0.928   3.170  1.00  0.00     0.068 N 
ENDROOT
BRANCH   1   4
HETATM    4  C2  LIG X 999      -3.053   0.388   0.306  1.00  0.00     0.127 A 
HETATM    5  C1  LIG X 999      -2.037   0.006   1.203  1.00  0.00     0.049 A 
HETATM    6  C14 LIG X 999      -0.787  -0.409   0.727  1.00  0.00    -0.023 A 
HETATM    7  C9  LIG X 999      -0.546  -0.444  -0.674  1.00  0.00    -0.022 A 
HETATM    8  C13 LIG X 999       0.231  -0.788   1.623  1.00  0.00     0.021 A 
HETATM    9  C8  LIG X 999      -1.560  -0.064  -1.562  1.00  0.00     0.051 A 
HETATM   10  C10 LIG X 999       0.712  -0.858  -1.157  1.00  0.00     0.021 A 
HETATM   11  C3  LIG X 999      -2.815   0.356  -1.079  1.00  0.00     0.102 A 
HETATM   12  C11 LIG X 999       1.692  -1.232  -0.236  1.00  0.00    -0.024 A 
HETATM   13  C12 LIG X 999       1.460  -1.198   1.105  1.00  0.00    -0.024 A 
HETATM   14  C18 LIG X 999       3.075  -1.673  -0.513  1.00  0.00     0.276 C 
HETATM   15  C15 LIG X 999       2.667  -1.614   1.851  1.00  0.00     0.276 C 
HETATM   16  N4  LIG X 999       3.645  -2.072   0.813  1.00  0.00    -0.067 N 
HETATM   17  C16 LIG X 999       4.967  -1.440   1.026  1.00  0.00     0.272 C 
HETATM   18  C17 LIG X 999       3.799  -3.545   0.877  1.00  0.00     0.272 C 
BRANCH  11  19
HETATM   19  O1  LIG X 999      -3.855   0.749  -1.941  1.00  0.00    -0.337 OA
BRANCH  19  20
HETATM   20  C4  LIG X 999      -3.772   0.822  -3.363  1.00  0.00     0.269 C 
BRANCH  20  21
HETATM   21  C5  LIG X 999      -2.909   1.936  -3.769  1.00  0.00    -0.080 C 
HETATM   22  C6  LIG X 999      -2.195   2.850  -4.098  1.00  0.00    -0.109 C 
HETATM   23  C7  LIG X 999      -1.326   3.958  -4.494  1.00  0.00     0.112 C 
ENDBRANCH  20  21
ENDBRANCH  19  20
ENDBRANCH  11  19
ENDBRANCH   1   4
TORSDOF 4
