REMARK  4 active torsions:
REMARK  status: ('A' for Active; 'I' for Inactive)
REMARK    1  A    between atoms: C3_3  and  O1_4 
REMARK    2  A    between atoms: O1_4  and  C4_5 
REMARK    3  A    between atoms: C4_5  and  C5_7 
REMARK    4  A    between atoms: C5_7  and  C6_8 
ROOT
HETATM    1  C1  LIG X 999      -3.522  -0.424  -4.066  1.00  0.00     0.014 C 
HETATM    2  C2  LIG X 999      -2.342  -0.222  -3.931  1.00  0.00    -0.091 C 
HETATM    3  C3  LIG X 999      -0.909   0.024  -3.767  1.00  0.00     0.271 C 
ENDROOT
BRANCH   3   4
HETATM    4  O1  LIG X 999      -0.408  -0.805  -2.725  1.00  0.00    -0.309 OA
BRANCH   4   5
HETATM    5  C4  LIG X 999       0.931  -0.785  -2.324  1.00  0.00     0.263 C 
HETATM    6  O2  LIG X 999       1.765  -0.038  -2.904  1.00  0.00    -0.265 OA
BRANCH   5   7
HETATM    7  C5  LIG X 999       1.378  -1.674  -1.206  1.00  0.00     0.150 C 
BRANCH   7   8
HETATM    8  C6  LIG X 999       0.560  -1.412   0.040  1.00  0.00    -0.038 A 
HETATM    9  C7  LIG X 999      -0.474  -2.311   0.356  1.00  0.00     0.008 A 
HETATM   10  C8  LIG X 999      -1.274  -2.116   1.482  1.00  0.00     0.001 A 
HETATM   11  C9  LIG X 999      -1.065  -1.017   2.311  1.00  0.00     0.012 A 
HETATM   12  C10 LIG X 999      -0.053  -0.093   2.017  1.00  0.00    -0.025 A 
HETATM   13  C11 LIG X 999       0.142   1.018   2.853  1.00  0.00     0.012 A 
HETATM   14  C15 LIG X 999       0.770  -0.277   0.872  1.00  0.00    -0.019 A 
HETATM   15  C12 LIG X 999       1.139   1.949   2.565  1.00  0.00     0.001 A 
HETATM   16  C13 LIG X 999       1.948   1.783   1.442  1.00  0.00     0.001 A 
HETATM   17  C14 LIG X 999       1.770   0.683   0.600  1.00  0.00     0.013 A 
ENDBRANCH   7   8
ENDBRANCH   5   7
ENDBRANCH   4   5
ENDBRANCH   3   4
TORSDOF 4
