REMARK  3 active torsions:
REMARK  status: ('A' for Active; 'I' for Inactive)
REMARK    1  A    between atoms: C2_2  and  N1_3 
REMARK       I    between atoms: N2_8  and  C7_9 
REMARK    2  A    between atoms: C7_9  and  C8_11 
REMARK    3  A    between atoms: C9_12  and  C10_13 
ROOT
HETATM    1  C8  LIG X 999       0.378   0.964  -1.377  1.00  0.00     0.001 C 
HETATM    2  C9  LIG X 999       1.153   1.495  -0.623  1.00  0.00    -0.057 C 
ENDROOT
BRANCH   1   3
HETATM    3  C7  LIG X 999      -0.555   0.328  -2.269  1.00  0.00     0.313 C 
HETATM    4  N2  LIG X 999      -1.806  -0.185  -1.782  1.00  0.00    -0.269 N 
HETATM    5  N1  LIG X 999      -2.782  -0.690  -2.662  1.00  0.00    -0.226 NA
HETATM    6  C6  LIG X 999      -1.981  -0.566  -0.391  1.00  0.00     0.153 C 
HETATM    7  C3  LIG X 999      -3.478  -1.731  -1.884  1.00  0.00     0.119 C 
HETATM    8  C4  LIG X 999      -3.183  -1.498  -0.394  1.00  0.00     0.016 C 
HETATM    9  C5  LIG X 999      -4.384  -0.897   0.348  1.00  0.00     0.013 C 
HETATM   10  O1  LIG X 999      -0.258   0.220  -3.488  1.00  0.00    -0.257 OA
BRANCH   5  11
HETATM   11  C2  LIG X 999      -3.712   0.401  -3.028  1.00  0.00     0.109 C 
HETATM   12  C1  LIG X 999      -3.108   1.319  -4.087  1.00  0.00     0.023 C 
ENDBRANCH   5  11
ENDBRANCH   1   3
BRANCH   2  13
HETATM   13  C10 LIG X 999       2.075   2.127   0.284  1.00  0.00     0.019 A 
HETATM   14  C11 LIG X 999       3.205   2.787  -0.214  1.00  0.00     0.021 A 
HETATM   15  C12 LIG X 999       4.104   3.403   0.661  1.00  0.00     0.013 A 
HETATM   16  C13 LIG X 999       3.880   3.364   2.046  1.00  0.00    -0.026 A 
HETATM   17  C14 LIG X 999       4.775   3.978   2.934  1.00  0.00     0.012 A 
HETATM   18  C18 LIG X 999       2.737   2.696   2.552  1.00  0.00    -0.025 A 
HETATM   19  C15 LIG X 999       4.540   3.932   4.311  1.00  0.00     0.001 A 
HETATM   20  C16 LIG X 999       3.413   3.273   4.811  1.00  0.00     0.001 A 
HETATM   21  C17 LIG X 999       2.513   2.657   3.937  1.00  0.00     0.012 A 
HETATM   22  C19 LIG X 999       1.841   2.081   1.664  1.00  0.00     0.032 A 
ENDBRANCH   2  13
TORSDOF 3
