REMARK  3 active torsions:
REMARK  status: ('A' for Active; 'I' for Inactive)
REMARK    1  A    between atoms: C3_3  and  S1_4 
REMARK    2  A    between atoms: S1_4  and  N1_7 
REMARK    3  A    between atoms: C10_16  and  N4_17 
ROOT
HETATM    1  N1  LIG X 999       3.188   3.150  -0.992  1.00  0.00     0.026 NA
HETATM    2  N2  LIG X 999       3.570   2.306  -1.802  1.00  0.00    -0.150 NA
HETATM    3  N3  LIG X 999       3.951   1.462  -2.611  1.00  0.00     0.069 N 
ENDROOT
BRANCH   1   4
HETATM    4  S1  LIG X 999       2.541   2.660   0.532  1.00  0.00     0.311 S 
HETATM    5  O1  LIG X 999       2.110   3.879   1.298  1.00  0.00    -0.196 OA
HETATM    6  O2  LIG X 999       3.598   1.945   1.326  1.00  0.00    -0.196 OA
BRANCH   4   7
HETATM    7  C3  LIG X 999       1.159   1.599   0.275  1.00  0.00     0.084 A 
HETATM    8  C2  LIG X 999      -0.145   2.097   0.357  1.00  0.00     0.026 A 
HETATM    9  C1  LIG X 999      -1.235   1.250   0.154  1.00  0.00     0.009 A 
HETATM   10  C6  LIG X 999      -1.039  -0.108  -0.139  1.00  0.00    -0.050 A 
HETATM   11  C5  LIG X 999       0.280  -0.610  -0.280  1.00  0.00    -0.023 A 
HETATM   12  C7  LIG X 999      -2.248  -0.979  -0.381  1.00  0.00     0.039 C 
HETATM   13  C4  LIG X 999       1.366   0.250  -0.037  1.00  0.00     0.035 A 
HETATM   14  C10 LIG X 999       0.544  -2.081  -0.557  1.00  0.00     0.179 C 
HETATM   15  C9  LIG X 999      -0.700  -2.821  -1.074  1.00  0.00     0.035 C 
HETATM   16  C8  LIG X 999      -1.927  -2.468  -0.238  1.00  0.00     0.007 C 
BRANCH  14  17
HETATM   17  N4  LIG X 999       1.613  -2.222  -1.544  1.00  0.00    -0.105 NA
HETATM   18  N5  LIG X 999       2.672  -2.783  -1.260  1.00  0.00    -0.167 NA
HETATM   19  N6  LIG X 999       3.730  -3.342  -0.977  1.00  0.00     0.068 N 
ENDBRANCH  14  17
ENDBRANCH   4   7
ENDBRANCH   1   4
TORSDOF 3
