REMARK  6 active torsions:
REMARK  status: ('A' for Active; 'I' for Inactive)
REMARK    1  A    between atoms: N1_1  and  C1_2 
REMARK    2  A    between atoms: C1_2  and  C2_3 
REMARK    3  A    between atoms: C2_3  and  O1_4 
REMARK    4  A    between atoms: C2_3  and  C3_5 
REMARK    5  A    between atoms: C3_5  and  O2_6 
REMARK    6  A    between atoms: O2_6  and  C4_7 
ROOT
HETATM    1  C4  LIG X 999      -0.562   0.965   0.949  1.00  0.00     0.080 A 
HETATM    2  C5  LIG X 999       0.454   1.659   1.636  1.00  0.00     0.037 A 
HETATM    3  C6  LIG X 999       0.210   2.214   2.893  1.00  0.00     0.004 A 
HETATM    4  C7  LIG X 999      -1.044   2.089   3.489  1.00  0.00     0.012 A 
HETATM    5  C8  LIG X 999      -2.072   1.403   2.827  1.00  0.00    -0.023 A 
HETATM    6  C9  LIG X 999      -3.337   1.276   3.424  1.00  0.00     0.012 A 
HETATM    7  C10 LIG X 999      -4.359   0.592   2.763  1.00  0.00     0.001 A 
HETATM    8  C11 LIG X 999      -4.131   0.032   1.505  1.00  0.00     0.001 A 
HETATM    9  C12 LIG X 999      -2.878   0.150   0.898  1.00  0.00     0.015 A 
HETATM   10  C13 LIG X 999      -1.834   0.836   1.549  1.00  0.00     0.007 A 
ENDROOT
BRANCH   1  11
HETATM   11  O2  LIG X 999      -0.341   0.398  -0.317  1.00  0.00    -0.348 OA
BRANCH  11  12
HETATM   12  C3  LIG X 999       0.894   0.453  -1.028  1.00  0.00     0.209 C 
BRANCH  12  13
HETATM   13  C2  LIG X 999       0.746  -0.278  -2.366  1.00  0.00     0.170 C 
BRANCH  13  14
HETATM   14  C1  LIG X 999       2.056  -0.238  -3.172  1.00  0.00     0.300 C 
BRANCH  14  15
HETATM   15  N1  LIG X 999       2.396   1.132  -3.547  1.00  0.00     0.080 N 
HETATM   16  H1  LIG X 999       3.322   1.109  -4.032  1.00  0.00     0.312 HD
HETATM   17  H2  LIG X 999       1.698   1.461  -4.255  1.00  0.00     0.312 HD
ENDBRANCH  14  15
ENDBRANCH  13  14
BRANCH  13  18
HETATM   18  O1  LIG X 999       0.390  -1.613  -2.118  1.00  0.00    -0.392 OA
HETATM   19  H6  LIG X 999       0.004  -1.970  -2.961  1.00  0.00     0.210 HD
ENDBRANCH  13  18
ENDBRANCH  12  13
ENDBRANCH  11  12
ENDBRANCH   1  11
TORSDOF 6
