REMARK  5 active torsions:
REMARK  status: ('A' for Active; 'I' for Inactive)
REMARK    1  A    between atoms: C6_6  and  C7_7 
REMARK    2  A    between atoms: C7_7  and  N3_15 
REMARK    3  A    between atoms: N1_8  and  C8_9 
REMARK    4  A    between atoms: C8_9  and  C9_10 
REMARK    5  A    between atoms: C9_10  and  N2_11 
ROOT
HETATM    1  N3  LIG X 999      -3.334   0.944   0.998  1.00  0.00    -0.052 NA
HETATM    2  N4  LIG X 999      -3.892  -0.113   0.701  1.00  0.00    -0.160 NA
HETATM    3  N5  LIG X 999      -4.452  -1.167   0.403  1.00  0.00     0.068 N 
ENDROOT
BRANCH   1   4
HETATM    4  C7  LIG X 999      -1.918   1.136   0.841  1.00  0.00     0.191 C 
HETATM    5  N1  LIG X 999      -1.414   2.334   0.911  1.00  0.00    -0.267 NA
BRANCH   4   6
HETATM    6  C6  LIG X 999      -1.003  -0.004   0.595  1.00  0.00     0.015 A 
HETATM    7  C5  LIG X 999       0.057   0.130  -0.318  1.00  0.00     0.027 A 
HETATM    8  C4  LIG X 999       0.937  -0.938  -0.549  1.00  0.00    -0.025 A 
HETATM    9  C3  LIG X 999       1.990  -0.811  -1.469  1.00  0.00     0.012 A 
HETATM   10  C12 LIG X 999       0.762  -2.156   0.151  1.00  0.00    -0.026 A 
HETATM   11  C2  LIG X 999       2.861  -1.882  -1.692  1.00  0.00     0.001 A 
HETATM   12  C1  LIG X 999       2.688  -3.084  -1.000  1.00  0.00     0.001 A 
HETATM   13  C13 LIG X 999       1.644  -3.223  -0.081  1.00  0.00     0.012 A 
HETATM   14  C11 LIG X 999      -0.286  -2.281   1.072  1.00  0.00     0.013 A 
HETATM   15  C10 LIG X 999      -1.158  -1.213   1.296  1.00  0.00     0.016 A 
ENDBRANCH   4   6
BRANCH   5  16
HETATM   16  C8  LIG X 999      -2.185   3.559   1.120  1.00  0.00     0.178 C 
BRANCH  16  17
HETATM   17  C9  LIG X 999      -2.907   3.989  -0.165  1.00  0.00     0.251 C 
BRANCH  17  18
HETATM   18  N2  LIG X 999      -1.960   4.287  -1.240  1.00  0.00    -0.078 N 
HETATM   19  H9  LIG X 999      -2.489   4.625  -2.076  1.00  0.00     0.274 HD
HETATM   20  H10 LIG X 999      -1.431   3.425  -1.506  1.00  0.00     0.274 HD
HETATM   21  H11 LIG X 999      -1.293   5.033  -0.938  1.00  0.00     0.274 HD
ENDBRANCH  17  18
ENDBRANCH  16  17
ENDBRANCH   5  16
ENDBRANCH   1   4
TORSDOF 5
