REMARK  3 active torsions:
REMARK  status: ('A' for Active; 'I' for Inactive)
REMARK    1  A    between atoms: O1_2  and  C1_3 
REMARK    2  A    between atoms: C1_3  and  C3_8 
REMARK    3  A    between atoms: C2_4  and  N1_5 
ROOT
HETATM    1  N1  LIG X 999      -0.021  -0.493  -4.331  1.00  0.00    -0.082 NA
HETATM    2  N2  LIG X 999       0.591  -1.534  -4.572  1.00  0.00    -0.163 NA
HETATM    3  N3  LIG X 999       1.201  -2.574  -4.819  1.00  0.00     0.068 N 
ENDROOT
BRANCH   1   4
HETATM    4  C2  LIG X 999      -0.141   0.075  -3.016  1.00  0.00     0.193 C 
HETATM    5  C1  LIG X 999       0.354  -0.489  -1.897  1.00  0.00     0.096 C 
BRANCH   5   6
HETATM    6  O1  LIG X 999       1.015  -1.716  -1.959  1.00  0.00    -0.358 OA
HETATM    7  H1  LIG X 999       1.444  -2.136  -1.143  1.00  0.00     0.217 HD
ENDBRANCH   5   6
BRANCH   5   8
HETATM    8  C3  LIG X 999       0.190   0.180  -0.581  1.00  0.00    -0.001 A 
HETATM    9  C4  LIG X 999       0.356   1.571  -0.449  1.00  0.00     0.015 A 
HETATM   10  C5  LIG X 999       0.209   2.190   0.795  1.00  0.00     0.013 A 
HETATM   11  C6  LIG X 999      -0.103   1.430   1.930  1.00  0.00    -0.026 A 
HETATM   12  C7  LIG X 999      -0.253   2.044   3.184  1.00  0.00     0.012 A 
HETATM   13  C11 LIG X 999      -0.268   0.030   1.811  1.00  0.00    -0.025 A 
HETATM   14  C8  LIG X 999      -0.564   1.274   4.308  1.00  0.00     0.001 A 
HETATM   15  C9  LIG X 999      -0.729  -0.108   4.191  1.00  0.00     0.001 A 
HETATM   16  C10 LIG X 999      -0.582  -0.731   2.948  1.00  0.00     0.012 A 
HETATM   17  C12 LIG X 999      -0.118  -0.585   0.558  1.00  0.00     0.026 A 
ENDBRANCH   5   8
ENDBRANCH   1   4
TORSDOF 3
